data_str_m1_o10_o16_pcu_sym.242
_audit_creation_date              2020-01-03
_audit_creation_method            'Materials Studio'
_symmetry_space_group_name_H-M    'P1'
_symmetry_Int_Tables_number       1
_symmetry_cell_setting            triclinic
loop_
_symmetry_equiv_pos_as_xyz
  x,y,z
_cell_length_a                    32.6884
_cell_length_b                    32.4982
_cell_length_c                    31.1355
_cell_angle_alpha                 96.3414
_cell_angle_beta                  75.1951
_cell_angle_gamma                 98.8469
loop_
_atom_site_label
_atom_site_type_symbol
_atom_site_fract_x
_atom_site_fract_y
_atom_site_fract_z
_atom_site_U_iso_or_equiv
_atom_site_adp_type
_atom_site_occupancy
C1     C     0.05312   0.15969   0.25915   0.00000  Uiso   1.00
C2     C     0.16912   0.16297   0.06053   0.00000  Uiso   1.00
C3     C     0.21128   0.10771   0.06014   0.00000  Uiso   1.00
C4     C     0.28064   0.17345   0.24013   0.00000  Uiso   1.00
C5     C     0.14268   0.19309   0.41919   0.00000  Uiso   1.00
C6     C     0.32599   0.17693   0.23846   0.00000  Uiso   1.00
C7     C     0.00806   0.15402   0.26296   0.00000  Uiso   1.00
C8     C     0.18077   0.32259   0.23542   0.00000  Uiso   1.00
C9     C     0.15234   0.01160   0.26297   0.00000  Uiso   1.00
C10    C     0.15586   0.05589   0.26037   0.00000  Uiso   1.00
C11    C     0.17676   0.27787   0.24005   0.00000  Uiso   1.00
C12    C     0.13924   0.24784   0.47874   0.00000  Uiso   1.00
C13    C     0.18528   0.14791   0.12968   0.00000  Uiso   1.00
C14    C     0.14790   0.18373   0.37087   0.00000  Uiso   1.00
C15    C     0.20821   0.09315   0.01716   0.00000  Uiso   1.00
C16    C     0.19071   0.14112   0.08206   0.00000  Uiso   1.00
C17    C     0.13324   0.23303   0.43707   0.00000  Uiso   1.00
C18    C     0.31785   0.11672   0.28625   0.00000  Uiso   1.00
C19    C     0.20568   0.00929   0.15978   0.00000  Uiso   1.00
C20    C     0.19474   0.06280   0.42515   0.00000  Uiso   1.00
C21    C     0.19479   0.01819   0.01437   0.00000  Uiso   1.00
C22    C     0.09536   0.17119   0.09575   0.00000  Uiso   1.00
C23    C     0.15437   0.22301   0.00321   0.00000  Uiso   1.00
C24    C     0.15931   0.18076   0.48871   0.00000  Uiso   1.00
C25    C     0.15334   0.16578   0.44608   0.00000  Uiso   1.00
C26    C     0.17248   0.15385   0.01430   0.00000  Uiso   1.00
C27    C     0.18822   0.11586   0.49340   0.00000  Uiso   1.00
C28    C     0.18098   0.10139   0.45087   0.00000  Uiso   1.00
C29    C     0.15955   0.12439   0.43071   0.00000  Uiso   1.00
H30    H     0.22635   0.09021   0.07813   0.00000  Uiso   1.00
H31    H     0.23302   0.02693   0.13716   0.00000  Uiso   1.00
H32    H     0.17697   0.02489   0.16324   0.00000  Uiso   1.00
H33    H     0.20026   0.31025   0.14464   0.00000  Uiso   1.00
H34    H     0.17118   0.03850   0.41582   0.00000  Uiso   1.00
H35    H     0.25414   0.05357   0.00344   0.00000  Uiso   1.00
H36    H     0.20787   0.32316   0.49631   0.00000  Uiso   1.00
H37    H     0.16330   0.01921   0.00737   0.00000  Uiso   1.00
H38    H     0.19050   0.01617   0.05070   0.00000  Uiso   1.00
H39    H     0.14808   0.20631   0.11371   0.00000  Uiso   1.00
H40    H     0.07474   0.19491   0.11368   0.00000  Uiso   1.00
H41    H     0.12611   0.33072   0.28820   0.00000  Uiso   1.00
H42    H     0.09038   0.14465   0.11697   0.00000  Uiso   1.00
H43    H     0.08574   0.15998   0.06429   0.00000  Uiso   1.00
H44    H     0.12442   0.25421   0.41745   0.00000  Uiso   1.00
H45    H     0.16367   0.23823   0.03247   0.00000  Uiso   1.00
H46    H     0.13429   0.27956   0.49110   0.00000  Uiso   1.00
H47    H     0.14984   0.11001   0.40125   0.00000  Uiso   1.00
H48    H     0.01415   0.20023   0.21810   0.00000  Uiso   1.00
H49    H     0.32259   0.11177   0.31846   0.00000  Uiso   1.00
H50    H     0.24369   0.33090   0.19966   0.00000  Uiso   1.00
N51    N     0.21512   0.00870   0.20264   0.00000  Uiso   1.00
N52    N     0.22399   0.05487   0.49946   0.00000  Uiso   1.00
N53    N     0.13957   0.18974   0.08642   0.00000  Uiso   1.00
O54    O     0.16667   0.16667   0.25000   0.00000  Uiso   1.00
O55    O     0.15451   0.12637   0.15459   0.00000  Uiso   1.00
O56    O     0.12940   0.20391   0.34968   0.00000  Uiso   1.00
O57    O     0.20824   0.17759   0.14606   0.00000  Uiso   1.00
O58    O     0.17451   0.15880   0.34968   0.00000  Uiso   1.00
O59    O     0.29612   0.08973   0.26824   0.00000  Uiso   1.00
O60    O     0.23261   0.05930   0.41141   0.00000  Uiso   1.00
O61    O     0.17930   0.08019   0.28214   0.00000  Uiso   1.00
O62    O     0.14632   0.26085   0.27014   0.00000  Uiso   1.00
O63    O     0.07412   0.13291   0.23413   0.00000  Uiso   1.00
O64    O     0.26693   0.19272   0.21361   0.00000  Uiso   1.00
O65    O     0.07071   0.18878   0.28213   0.00000  Uiso   1.00
O66    O     0.25491   0.15226   0.27014   0.00000  Uiso   1.00
O67    O     0.13760   0.06944   0.23413   0.00000  Uiso   1.00
O68    O     0.20345   0.25620   0.21361   0.00000  Uiso   1.00
Zn69   Zn    0.19338   0.13994   0.28734   0.00000  Uiso   1.00
Zn70   Zn    0.13379   0.12458   0.21876   0.00000  Uiso   1.00
Zn71   Zn    0.21056   0.19775   0.20657   0.00000  Uiso   1.00
Zn72   Zn    0.12893   0.20439   0.28734   0.00000  Uiso   1.00
C73    C     0.38646   0.15969   0.25915   0.00000  Uiso   1.00
C74    C     0.50245   0.16297   0.06053   0.00000  Uiso   1.00
C75    C     0.54461   0.10771   0.06014   0.00000  Uiso   1.00
C76    C     0.61397   0.17345   0.24013   0.00000  Uiso   1.00
C77    C     0.47601   0.19309   0.41919   0.00000  Uiso   1.00
C78    C     0.65933   0.17693   0.23846   0.00000  Uiso   1.00
C79    C     0.34139   0.15402   0.26296   0.00000  Uiso   1.00
C80    C     0.51410   0.32259   0.23542   0.00000  Uiso   1.00
C81    C     0.48567   0.01160   0.26297   0.00000  Uiso   1.00
C82    C     0.48920   0.05589   0.26037   0.00000  Uiso   1.00
C83    C     0.51010   0.27787   0.24005   0.00000  Uiso   1.00
C84    C     0.47258   0.24784   0.47874   0.00000  Uiso   1.00
C85    C     0.51862   0.14791   0.12968   0.00000  Uiso   1.00
C86    C     0.48123   0.18373   0.37087   0.00000  Uiso   1.00
C87    C     0.54154   0.09315   0.01716   0.00000  Uiso   1.00
C88    C     0.52404   0.14112   0.08206   0.00000  Uiso   1.00
C89    C     0.46657   0.23303   0.43707   0.00000  Uiso   1.00
C90    C     0.65119   0.11672   0.28625   0.00000  Uiso   1.00
C91    C     0.53902   0.00929   0.15978   0.00000  Uiso   1.00
C92    C     0.52807   0.06280   0.42515   0.00000  Uiso   1.00
C93    C     0.52812   0.01819   0.01437   0.00000  Uiso   1.00
C94    C     0.42869   0.17119   0.09575   0.00000  Uiso   1.00
C95    C     0.48771   0.22301   0.00321   0.00000  Uiso   1.00
C96    C     0.49264   0.18076   0.48871   0.00000  Uiso   1.00
C97    C     0.48668   0.16578   0.44608   0.00000  Uiso   1.00
C98    C     0.50581   0.15385   0.01430   0.00000  Uiso   1.00
C99    C     0.52156   0.11586   0.49340   0.00000  Uiso   1.00
C100   C     0.51432   0.10139   0.45087   0.00000  Uiso   1.00
C101   C     0.49288   0.12439   0.43071   0.00000  Uiso   1.00
H102   H     0.55968   0.09021   0.07813   0.00000  Uiso   1.00
H103   H     0.56635   0.02693   0.13716   0.00000  Uiso   1.00
H104   H     0.51030   0.02489   0.16324   0.00000  Uiso   1.00
H105   H     0.53359   0.31025   0.14464   0.00000  Uiso   1.00
H106   H     0.50451   0.03850   0.41582   0.00000  Uiso   1.00
H107   H     0.58747   0.05357   0.00344   0.00000  Uiso   1.00
H108   H     0.54121   0.32316   0.49631   0.00000  Uiso   1.00
H109   H     0.49664   0.01921   0.00737   0.00000  Uiso   1.00
H110   H     0.52383   0.01617   0.05070   0.00000  Uiso   1.00
H111   H     0.48141   0.20631   0.11371   0.00000  Uiso   1.00
H112   H     0.40807   0.19491   0.11368   0.00000  Uiso   1.00
H113   H     0.45944   0.33072   0.28820   0.00000  Uiso   1.00
H114   H     0.42371   0.14465   0.11697   0.00000  Uiso   1.00
H115   H     0.41908   0.15998   0.06429   0.00000  Uiso   1.00
H116   H     0.45775   0.25421   0.41745   0.00000  Uiso   1.00
H117   H     0.49700   0.23823   0.03247   0.00000  Uiso   1.00
H118   H     0.46762   0.27956   0.49110   0.00000  Uiso   1.00
H119   H     0.48317   0.11001   0.40125   0.00000  Uiso   1.00
H120   H     0.34748   0.20023   0.21810   0.00000  Uiso   1.00
H121   H     0.65593   0.11177   0.31846   0.00000  Uiso   1.00
H122   H     0.57702   0.33090   0.19966   0.00000  Uiso   1.00
N123   N     0.54846   0.00870   0.20264   0.00000  Uiso   1.00
N124   N     0.55733   0.05487   0.49946   0.00000  Uiso   1.00
N125   N     0.47291   0.18974   0.08642   0.00000  Uiso   1.00
O126   O     0.50000   0.16667   0.25000   0.00000  Uiso   1.00
O127   O     0.48784   0.12637   0.15459   0.00000  Uiso   1.00
O128   O     0.46274   0.20391   0.34968   0.00000  Uiso   1.00
O129   O     0.54157   0.17759   0.14606   0.00000  Uiso   1.00
O130   O     0.50785   0.15880   0.34968   0.00000  Uiso   1.00
O131   O     0.62945   0.08973   0.26824   0.00000  Uiso   1.00
O132   O     0.56595   0.05930   0.41141   0.00000  Uiso   1.00
O133   O     0.51264   0.08019   0.28214   0.00000  Uiso   1.00
O134   O     0.47965   0.26085   0.27014   0.00000  Uiso   1.00
O135   O     0.40745   0.13291   0.23413   0.00000  Uiso   1.00
O136   O     0.60026   0.19272   0.21361   0.00000  Uiso   1.00
O137   O     0.40405   0.18878   0.28213   0.00000  Uiso   1.00
O138   O     0.58824   0.15226   0.27014   0.00000  Uiso   1.00
O139   O     0.47093   0.06944   0.23413   0.00000  Uiso   1.00
O140   O     0.53678   0.25620   0.21361   0.00000  Uiso   1.00
Zn141  Zn    0.52672   0.13994   0.28734   0.00000  Uiso   1.00
Zn142  Zn    0.46713   0.12458   0.21876   0.00000  Uiso   1.00
Zn143  Zn    0.54389   0.19775   0.20657   0.00000  Uiso   1.00
Zn144  Zn    0.46226   0.20439   0.28734   0.00000  Uiso   1.00
C145   C     0.71979   0.15969   0.25915   0.00000  Uiso   1.00
C146   C     0.83578   0.16297   0.06053   0.00000  Uiso   1.00
C147   C     0.87795   0.10771   0.06014   0.00000  Uiso   1.00
C148   C     0.94731   0.17345   0.24013   0.00000  Uiso   1.00
C149   C     0.80934   0.19309   0.41919   0.00000  Uiso   1.00
C150   C     0.99266   0.17693   0.23846   0.00000  Uiso   1.00
C151   C     0.67472   0.15402   0.26296   0.00000  Uiso   1.00
C152   C     0.84744   0.32259   0.23542   0.00000  Uiso   1.00
C153   C     0.81900   0.01160   0.26297   0.00000  Uiso   1.00
C154   C     0.82253   0.05589   0.26037   0.00000  Uiso   1.00
C155   C     0.84343   0.27787   0.24005   0.00000  Uiso   1.00
C156   C     0.80591   0.24784   0.47874   0.00000  Uiso   1.00
C157   C     0.85195   0.14791   0.12968   0.00000  Uiso   1.00
C158   C     0.81457   0.18373   0.37087   0.00000  Uiso   1.00
C159   C     0.87487   0.09315   0.01716   0.00000  Uiso   1.00
C160   C     0.85738   0.14112   0.08206   0.00000  Uiso   1.00
C161   C     0.79990   0.23303   0.43707   0.00000  Uiso   1.00
C162   C     0.98452   0.11672   0.28625   0.00000  Uiso   1.00
C163   C     0.87235   0.00929   0.15978   0.00000  Uiso   1.00
C164   C     0.86141   0.06280   0.42515   0.00000  Uiso   1.00
C165   C     0.86146   0.01819   0.01437   0.00000  Uiso   1.00
C166   C     0.76203   0.17119   0.09575   0.00000  Uiso   1.00
C167   C     0.82104   0.22301   0.00321   0.00000  Uiso   1.00
C168   C     0.82598   0.18076   0.48871   0.00000  Uiso   1.00
C169   C     0.82001   0.16578   0.44608   0.00000  Uiso   1.00
C170   C     0.83914   0.15385   0.01430   0.00000  Uiso   1.00
C171   C     0.85489   0.11586   0.49340   0.00000  Uiso   1.00
C172   C     0.84765   0.10139   0.45087   0.00000  Uiso   1.00
C173   C     0.82622   0.12439   0.43071   0.00000  Uiso   1.00
H174   H     0.89302   0.09021   0.07813   0.00000  Uiso   1.00
H175   H     0.89968   0.02693   0.13716   0.00000  Uiso   1.00
H176   H     0.84364   0.02489   0.16324   0.00000  Uiso   1.00
H177   H     0.86692   0.31025   0.14464   0.00000  Uiso   1.00
H178   H     0.83785   0.03850   0.41582   0.00000  Uiso   1.00
H179   H     0.92081   0.05357   0.00344   0.00000  Uiso   1.00
H180   H     0.87454   0.32316   0.49631   0.00000  Uiso   1.00
H181   H     0.82997   0.01921   0.00737   0.00000  Uiso   1.00
H182   H     0.85717   0.01617   0.05070   0.00000  Uiso   1.00
H183   H     0.81475   0.20631   0.11371   0.00000  Uiso   1.00
H184   H     0.74141   0.19491   0.11368   0.00000  Uiso   1.00
H185   H     0.79277   0.33072   0.28820   0.00000  Uiso   1.00
H186   H     0.75704   0.14465   0.11697   0.00000  Uiso   1.00
H187   H     0.75241   0.15998   0.06429   0.00000  Uiso   1.00
H188   H     0.79108   0.25421   0.41745   0.00000  Uiso   1.00
H189   H     0.83034   0.23823   0.03247   0.00000  Uiso   1.00
H190   H     0.80095   0.27956   0.49110   0.00000  Uiso   1.00
H191   H     0.81650   0.11001   0.40125   0.00000  Uiso   1.00
H192   H     0.68082   0.20023   0.21810   0.00000  Uiso   1.00
H193   H     0.98926   0.11177   0.31846   0.00000  Uiso   1.00
H194   H     0.91036   0.33090   0.19966   0.00000  Uiso   1.00
N195   N     0.88179   0.00870   0.20264   0.00000  Uiso   1.00
N196   N     0.89066   0.05487   0.49946   0.00000  Uiso   1.00
N197   N     0.80624   0.18974   0.08642   0.00000  Uiso   1.00
O198   O     0.83333   0.16667   0.25000   0.00000  Uiso   1.00
O199   O     0.82118   0.12637   0.15459   0.00000  Uiso   1.00
O200   O     0.79607   0.20391   0.34968   0.00000  Uiso   1.00
O201   O     0.87491   0.17759   0.14606   0.00000  Uiso   1.00
O202   O     0.84118   0.15880   0.34968   0.00000  Uiso   1.00
O203   O     0.96278   0.08973   0.26824   0.00000  Uiso   1.00
O204   O     0.89928   0.05930   0.41141   0.00000  Uiso   1.00
O205   O     0.84597   0.08019   0.28214   0.00000  Uiso   1.00
O206   O     0.81298   0.26085   0.27014   0.00000  Uiso   1.00
O207   O     0.74078   0.13291   0.23413   0.00000  Uiso   1.00
O208   O     0.93360   0.19272   0.21361   0.00000  Uiso   1.00
O209   O     0.73738   0.18878   0.28213   0.00000  Uiso   1.00
O210   O     0.92158   0.15226   0.27014   0.00000  Uiso   1.00
O211   O     0.80426   0.06944   0.23413   0.00000  Uiso   1.00
O212   O     0.87012   0.25620   0.21361   0.00000  Uiso   1.00
Zn213  Zn    0.86005   0.13994   0.28734   0.00000  Uiso   1.00
Zn214  Zn    0.80046   0.12458   0.21876   0.00000  Uiso   1.00
Zn215  Zn    0.87723   0.19775   0.20657   0.00000  Uiso   1.00
Zn216  Zn    0.79560   0.20439   0.28734   0.00000  Uiso   1.00
C217   C     0.05312   0.49302   0.25915   0.00000  Uiso   1.00
C218   C     0.16912   0.49630   0.06053   0.00000  Uiso   1.00
C219   C     0.21128   0.44104   0.06014   0.00000  Uiso   1.00
C220   C     0.28064   0.50678   0.24013   0.00000  Uiso   1.00
C221   C     0.14268   0.52642   0.41919   0.00000  Uiso   1.00
C222   C     0.32599   0.51026   0.23846   0.00000  Uiso   1.00
C223   C     0.00806   0.48736   0.26296   0.00000  Uiso   1.00
C224   C     0.18077   0.65592   0.23542   0.00000  Uiso   1.00
C225   C     0.15234   0.34494   0.26297   0.00000  Uiso   1.00
C226   C     0.15586   0.38923   0.26037   0.00000  Uiso   1.00
C227   C     0.17676   0.61121   0.24005   0.00000  Uiso   1.00
C228   C     0.13924   0.58117   0.47874   0.00000  Uiso   1.00
C229   C     0.18528   0.48124   0.12968   0.00000  Uiso   1.00
C230   C     0.14790   0.51706   0.37087   0.00000  Uiso   1.00
C231   C     0.20821   0.42649   0.01716   0.00000  Uiso   1.00
C232   C     0.19071   0.47445   0.08206   0.00000  Uiso   1.00
C233   C     0.13324   0.56637   0.43707   0.00000  Uiso   1.00
C234   C     0.31785   0.45005   0.28625   0.00000  Uiso   1.00
C235   C     0.20568   0.34262   0.15978   0.00000  Uiso   1.00
C236   C     0.19474   0.39613   0.42515   0.00000  Uiso   1.00
C237   C     0.19479   0.35152   0.01437   0.00000  Uiso   1.00
C238   C     0.09536   0.50452   0.09575   0.00000  Uiso   1.00
C239   C     0.15437   0.55634   0.00321   0.00000  Uiso   1.00
C240   C     0.15931   0.51409   0.48871   0.00000  Uiso   1.00
C241   C     0.15334   0.49911   0.44608   0.00000  Uiso   1.00
C242   C     0.17248   0.48719   0.01430   0.00000  Uiso   1.00
C243   C     0.18822   0.44919   0.49340   0.00000  Uiso   1.00
C244   C     0.18098   0.43472   0.45087   0.00000  Uiso   1.00
C245   C     0.15955   0.45772   0.43071   0.00000  Uiso   1.00
H246   H     0.22635   0.42354   0.07813   0.00000  Uiso   1.00
H247   H     0.23302   0.36026   0.13716   0.00000  Uiso   1.00
H248   H     0.17697   0.35822   0.16324   0.00000  Uiso   1.00
H249   H     0.20026   0.64359   0.14464   0.00000  Uiso   1.00
H250   H     0.17118   0.37184   0.41582   0.00000  Uiso   1.00
H251   H     0.25414   0.38691   0.00344   0.00000  Uiso   1.00
H252   H     0.20787   0.65649   0.49631   0.00000  Uiso   1.00
H253   H     0.16330   0.35255   0.00737   0.00000  Uiso   1.00
H254   H     0.19050   0.34951   0.05070   0.00000  Uiso   1.00
H255   H     0.14808   0.53964   0.11371   0.00000  Uiso   1.00
H256   H     0.07474   0.52825   0.11368   0.00000  Uiso   1.00
H257   H     0.12611   0.66405   0.28820   0.00000  Uiso   1.00
H258   H     0.09038   0.47798   0.11697   0.00000  Uiso   1.00
H259   H     0.08574   0.49331   0.06429   0.00000  Uiso   1.00
H260   H     0.12442   0.58754   0.41745   0.00000  Uiso   1.00
H261   H     0.16367   0.57156   0.03247   0.00000  Uiso   1.00
H262   H     0.13429   0.61289   0.49110   0.00000  Uiso   1.00
H263   H     0.14984   0.44335   0.40125   0.00000  Uiso   1.00
H264   H     0.01415   0.53356   0.21810   0.00000  Uiso   1.00
H265   H     0.32259   0.44511   0.31846   0.00000  Uiso   1.00
H266   H     0.24369   0.66423   0.19966   0.00000  Uiso   1.00
N267   N     0.21512   0.34204   0.20264   0.00000  Uiso   1.00
N268   N     0.22399   0.38820   0.49946   0.00000  Uiso   1.00
N269   N     0.13957   0.52308   0.08642   0.00000  Uiso   1.00
O270   O     0.16667   0.50000   0.25000   0.00000  Uiso   1.00
O271   O     0.15451   0.45970   0.15459   0.00000  Uiso   1.00
O272   O     0.12940   0.53724   0.34968   0.00000  Uiso   1.00
O273   O     0.20824   0.51092   0.14606   0.00000  Uiso   1.00
O274   O     0.17451   0.49213   0.34968   0.00000  Uiso   1.00
O275   O     0.29612   0.42306   0.26824   0.00000  Uiso   1.00
O276   O     0.23261   0.39263   0.41141   0.00000  Uiso   1.00
O277   O     0.17930   0.41352   0.28214   0.00000  Uiso   1.00
O278   O     0.14632   0.59418   0.27014   0.00000  Uiso   1.00
O279   O     0.07412   0.46625   0.23413   0.00000  Uiso   1.00
O280   O     0.26693   0.52605   0.21361   0.00000  Uiso   1.00
O281   O     0.07071   0.52211   0.28213   0.00000  Uiso   1.00
O282   O     0.25491   0.48559   0.27014   0.00000  Uiso   1.00
O283   O     0.13760   0.40277   0.23413   0.00000  Uiso   1.00
O284   O     0.20345   0.58953   0.21361   0.00000  Uiso   1.00
Zn285  Zn    0.19338   0.47327   0.28734   0.00000  Uiso   1.00
Zn286  Zn    0.13379   0.45791   0.21876   0.00000  Uiso   1.00
Zn287  Zn    0.21056   0.53109   0.20657   0.00000  Uiso   1.00
Zn288  Zn    0.12893   0.53773   0.28734   0.00000  Uiso   1.00
C289   C     0.38646   0.49302   0.25915   0.00000  Uiso   1.00
C290   C     0.50245   0.49630   0.06053   0.00000  Uiso   1.00
C291   C     0.54461   0.44104   0.06014   0.00000  Uiso   1.00
C292   C     0.61397   0.50678   0.24013   0.00000  Uiso   1.00
C293   C     0.47601   0.52642   0.41919   0.00000  Uiso   1.00
C294   C     0.65933   0.51026   0.23846   0.00000  Uiso   1.00
C295   C     0.34139   0.48736   0.26296   0.00000  Uiso   1.00
C296   C     0.51410   0.65592   0.23542   0.00000  Uiso   1.00
C297   C     0.48567   0.34494   0.26297   0.00000  Uiso   1.00
C298   C     0.48920   0.38923   0.26037   0.00000  Uiso   1.00
C299   C     0.51010   0.61121   0.24005   0.00000  Uiso   1.00
C300   C     0.47258   0.58117   0.47874   0.00000  Uiso   1.00
C301   C     0.51862   0.48124   0.12968   0.00000  Uiso   1.00
C302   C     0.48123   0.51706   0.37087   0.00000  Uiso   1.00
C303   C     0.54154   0.42649   0.01716   0.00000  Uiso   1.00
C304   C     0.52404   0.47445   0.08206   0.00000  Uiso   1.00
C305   C     0.46657   0.56637   0.43707   0.00000  Uiso   1.00
C306   C     0.65119   0.45005   0.28625   0.00000  Uiso   1.00
C307   C     0.53902   0.34262   0.15978   0.00000  Uiso   1.00
C308   C     0.52807   0.39613   0.42515   0.00000  Uiso   1.00
C309   C     0.52812   0.35152   0.01437   0.00000  Uiso   1.00
C310   C     0.42869   0.50452   0.09575   0.00000  Uiso   1.00
C311   C     0.48771   0.55634   0.00321   0.00000  Uiso   1.00
C312   C     0.49264   0.51409   0.48871   0.00000  Uiso   1.00
C313   C     0.48668   0.49911   0.44608   0.00000  Uiso   1.00
C314   C     0.50581   0.48719   0.01430   0.00000  Uiso   1.00
C315   C     0.52156   0.44919   0.49340   0.00000  Uiso   1.00
C316   C     0.51432   0.43472   0.45087   0.00000  Uiso   1.00
C317   C     0.49288   0.45772   0.43071   0.00000  Uiso   1.00
H318   H     0.55968   0.42354   0.07813   0.00000  Uiso   1.00
H319   H     0.56635   0.36026   0.13716   0.00000  Uiso   1.00
H320   H     0.51030   0.35822   0.16324   0.00000  Uiso   1.00
H321   H     0.53359   0.64359   0.14464   0.00000  Uiso   1.00
H322   H     0.50451   0.37184   0.41582   0.00000  Uiso   1.00
H323   H     0.58747   0.38691   0.00344   0.00000  Uiso   1.00
H324   H     0.54121   0.65649   0.49631   0.00000  Uiso   1.00
H325   H     0.49664   0.35255   0.00737   0.00000  Uiso   1.00
H326   H     0.52383   0.34951   0.05070   0.00000  Uiso   1.00
H327   H     0.48141   0.53964   0.11371   0.00000  Uiso   1.00
H328   H     0.40807   0.52825   0.11368   0.00000  Uiso   1.00
H329   H     0.45944   0.66405   0.28820   0.00000  Uiso   1.00
H330   H     0.42371   0.47798   0.11697   0.00000  Uiso   1.00
H331   H     0.41908   0.49331   0.06429   0.00000  Uiso   1.00
H332   H     0.45775   0.58754   0.41745   0.00000  Uiso   1.00
H333   H     0.49700   0.57156   0.03247   0.00000  Uiso   1.00
H334   H     0.46762   0.61289   0.49110   0.00000  Uiso   1.00
H335   H     0.48317   0.44335   0.40125   0.00000  Uiso   1.00
H336   H     0.34748   0.53356   0.21810   0.00000  Uiso   1.00
H337   H     0.65593   0.44511   0.31846   0.00000  Uiso   1.00
H338   H     0.57702   0.66423   0.19966   0.00000  Uiso   1.00
N339   N     0.54846   0.34204   0.20264   0.00000  Uiso   1.00
N340   N     0.55733   0.38820   0.49946   0.00000  Uiso   1.00
N341   N     0.47291   0.52308   0.08642   0.00000  Uiso   1.00
O342   O     0.50000   0.50000   0.25000   0.00000  Uiso   1.00
O343   O     0.48784   0.45970   0.15459   0.00000  Uiso   1.00
O344   O     0.46274   0.53724   0.34968   0.00000  Uiso   1.00
O345   O     0.54157   0.51092   0.14606   0.00000  Uiso   1.00
O346   O     0.50785   0.49213   0.34968   0.00000  Uiso   1.00
O347   O     0.62945   0.42306   0.26824   0.00000  Uiso   1.00
O348   O     0.56595   0.39263   0.41141   0.00000  Uiso   1.00
O349   O     0.51264   0.41352   0.28214   0.00000  Uiso   1.00
O350   O     0.47965   0.59418   0.27014   0.00000  Uiso   1.00
O351   O     0.40745   0.46625   0.23413   0.00000  Uiso   1.00
O352   O     0.60026   0.52605   0.21361   0.00000  Uiso   1.00
O353   O     0.40405   0.52211   0.28213   0.00000  Uiso   1.00
O354   O     0.58824   0.48559   0.27014   0.00000  Uiso   1.00
O355   O     0.47093   0.40277   0.23413   0.00000  Uiso   1.00
O356   O     0.53678   0.58953   0.21361   0.00000  Uiso   1.00
Zn357  Zn    0.52672   0.47327   0.28734   0.00000  Uiso   1.00
Zn358  Zn    0.46713   0.45791   0.21876   0.00000  Uiso   1.00
Zn359  Zn    0.54389   0.53109   0.20657   0.00000  Uiso   1.00
Zn360  Zn    0.46226   0.53773   0.28734   0.00000  Uiso   1.00
C361   C     0.71979   0.49302   0.25915   0.00000  Uiso   1.00
C362   C     0.83578   0.49630   0.06053   0.00000  Uiso   1.00
C363   C     0.87795   0.44104   0.06014   0.00000  Uiso   1.00
C364   C     0.94731   0.50678   0.24013   0.00000  Uiso   1.00
C365   C     0.80934   0.52642   0.41919   0.00000  Uiso   1.00
C366   C     0.99266   0.51026   0.23846   0.00000  Uiso   1.00
C367   C     0.67472   0.48736   0.26296   0.00000  Uiso   1.00
C368   C     0.84744   0.65592   0.23542   0.00000  Uiso   1.00
C369   C     0.81900   0.34494   0.26297   0.00000  Uiso   1.00
C370   C     0.82253   0.38923   0.26037   0.00000  Uiso   1.00
C371   C     0.84343   0.61121   0.24005   0.00000  Uiso   1.00
C372   C     0.80591   0.58117   0.47874   0.00000  Uiso   1.00
C373   C     0.85195   0.48124   0.12968   0.00000  Uiso   1.00
C374   C     0.81457   0.51706   0.37087   0.00000  Uiso   1.00
C375   C     0.87487   0.42649   0.01716   0.00000  Uiso   1.00
C376   C     0.85738   0.47445   0.08206   0.00000  Uiso   1.00
C377   C     0.79990   0.56637   0.43707   0.00000  Uiso   1.00
C378   C     0.98452   0.45005   0.28625   0.00000  Uiso   1.00
C379   C     0.87235   0.34262   0.15978   0.00000  Uiso   1.00
C380   C     0.86141   0.39613   0.42515   0.00000  Uiso   1.00
C381   C     0.86146   0.35152   0.01437   0.00000  Uiso   1.00
C382   C     0.76203   0.50452   0.09575   0.00000  Uiso   1.00
C383   C     0.82104   0.55634   0.00321   0.00000  Uiso   1.00
C384   C     0.82598   0.51409   0.48871   0.00000  Uiso   1.00
C385   C     0.82001   0.49911   0.44608   0.00000  Uiso   1.00
C386   C     0.83914   0.48719   0.01430   0.00000  Uiso   1.00
C387   C     0.85489   0.44919   0.49340   0.00000  Uiso   1.00
C388   C     0.84765   0.43472   0.45087   0.00000  Uiso   1.00
C389   C     0.82622   0.45772   0.43071   0.00000  Uiso   1.00
H390   H     0.89302   0.42354   0.07813   0.00000  Uiso   1.00
H391   H     0.89968   0.36026   0.13716   0.00000  Uiso   1.00
H392   H     0.84364   0.35822   0.16324   0.00000  Uiso   1.00
H393   H     0.86692   0.64359   0.14464   0.00000  Uiso   1.00
H394   H     0.83785   0.37184   0.41582   0.00000  Uiso   1.00
H395   H     0.92081   0.38691   0.00344   0.00000  Uiso   1.00
H396   H     0.87454   0.65649   0.49631   0.00000  Uiso   1.00
H397   H     0.82997   0.35255   0.00737   0.00000  Uiso   1.00
H398   H     0.85717   0.34951   0.05070   0.00000  Uiso   1.00
H399   H     0.81475   0.53964   0.11371   0.00000  Uiso   1.00
H400   H     0.74141   0.52825   0.11368   0.00000  Uiso   1.00
H401   H     0.79277   0.66405   0.28820   0.00000  Uiso   1.00
H402   H     0.75704   0.47798   0.11697   0.00000  Uiso   1.00
H403   H     0.75241   0.49331   0.06429   0.00000  Uiso   1.00
H404   H     0.79108   0.58754   0.41745   0.00000  Uiso   1.00
H405   H     0.83034   0.57156   0.03247   0.00000  Uiso   1.00
H406   H     0.80095   0.61289   0.49110   0.00000  Uiso   1.00
H407   H     0.81650   0.44335   0.40125   0.00000  Uiso   1.00
H408   H     0.68082   0.53356   0.21810   0.00000  Uiso   1.00
H409   H     0.98926   0.44511   0.31846   0.00000  Uiso   1.00
H410   H     0.91036   0.66423   0.19966   0.00000  Uiso   1.00
N411   N     0.88179   0.34204   0.20264   0.00000  Uiso   1.00
N412   N     0.89066   0.38820   0.49946   0.00000  Uiso   1.00
N413   N     0.80624   0.52308   0.08642   0.00000  Uiso   1.00
O414   O     0.83333   0.50000   0.25000   0.00000  Uiso   1.00
O415   O     0.82118   0.45970   0.15459   0.00000  Uiso   1.00
O416   O     0.79607   0.53724   0.34968   0.00000  Uiso   1.00
O417   O     0.87491   0.51092   0.14606   0.00000  Uiso   1.00
O418   O     0.84118   0.49213   0.34968   0.00000  Uiso   1.00
O419   O     0.96278   0.42306   0.26824   0.00000  Uiso   1.00
O420   O     0.89928   0.39263   0.41141   0.00000  Uiso   1.00
O421   O     0.84597   0.41352   0.28214   0.00000  Uiso   1.00
O422   O     0.81298   0.59418   0.27014   0.00000  Uiso   1.00
O423   O     0.74078   0.46625   0.23413   0.00000  Uiso   1.00
O424   O     0.93360   0.52605   0.21361   0.00000  Uiso   1.00
O425   O     0.73738   0.52211   0.28213   0.00000  Uiso   1.00
O426   O     0.92158   0.48559   0.27014   0.00000  Uiso   1.00
O427   O     0.80426   0.40277   0.23413   0.00000  Uiso   1.00
O428   O     0.87012   0.58953   0.21361   0.00000  Uiso   1.00
Zn429  Zn    0.86005   0.47327   0.28734   0.00000  Uiso   1.00
Zn430  Zn    0.80046   0.45791   0.21876   0.00000  Uiso   1.00
Zn431  Zn    0.87723   0.53109   0.20657   0.00000  Uiso   1.00
Zn432  Zn    0.79560   0.53773   0.28734   0.00000  Uiso   1.00
C433   C     0.05312   0.82635   0.25915   0.00000  Uiso   1.00
C434   C     0.16912   0.82964   0.06053   0.00000  Uiso   1.00
C435   C     0.21128   0.77437   0.06014   0.00000  Uiso   1.00
C436   C     0.28064   0.84011   0.24013   0.00000  Uiso   1.00
C437   C     0.14268   0.85975   0.41919   0.00000  Uiso   1.00
C438   C     0.32599   0.84360   0.23846   0.00000  Uiso   1.00
C439   C     0.00806   0.82069   0.26296   0.00000  Uiso   1.00
C440   C     0.18077   0.98926   0.23542   0.00000  Uiso   1.00
C441   C     0.15234   0.67827   0.26297   0.00000  Uiso   1.00
C442   C     0.15586   0.72256   0.26037   0.00000  Uiso   1.00
C443   C     0.17676   0.94454   0.24005   0.00000  Uiso   1.00
C444   C     0.13924   0.91451   0.47874   0.00000  Uiso   1.00
C445   C     0.18528   0.81457   0.12968   0.00000  Uiso   1.00
C446   C     0.14790   0.85040   0.37087   0.00000  Uiso   1.00
C447   C     0.20821   0.75982   0.01716   0.00000  Uiso   1.00
C448   C     0.19071   0.80778   0.08206   0.00000  Uiso   1.00
C449   C     0.13324   0.89970   0.43707   0.00000  Uiso   1.00
C450   C     0.31785   0.78338   0.28625   0.00000  Uiso   1.00
C451   C     0.20568   0.67595   0.15978   0.00000  Uiso   1.00
C452   C     0.19474   0.72947   0.42515   0.00000  Uiso   1.00
C453   C     0.19479   0.68486   0.01437   0.00000  Uiso   1.00
C454   C     0.09536   0.83785   0.09575   0.00000  Uiso   1.00
C455   C     0.15437   0.88968   0.00321   0.00000  Uiso   1.00
C456   C     0.15931   0.84743   0.48871   0.00000  Uiso   1.00
C457   C     0.15334   0.83245   0.44608   0.00000  Uiso   1.00
C458   C     0.17248   0.82052   0.01430   0.00000  Uiso   1.00
C459   C     0.18822   0.78252   0.49340   0.00000  Uiso   1.00
C460   C     0.18098   0.76806   0.45087   0.00000  Uiso   1.00
C461   C     0.15955   0.79105   0.43071   0.00000  Uiso   1.00
H462   H     0.22635   0.75687   0.07813   0.00000  Uiso   1.00
H463   H     0.23302   0.69359   0.13716   0.00000  Uiso   1.00
H464   H     0.17697   0.69156   0.16324   0.00000  Uiso   1.00
H465   H     0.20026   0.97692   0.14464   0.00000  Uiso   1.00
H466   H     0.17118   0.70517   0.41582   0.00000  Uiso   1.00
H467   H     0.25414   0.72024   0.00344   0.00000  Uiso   1.00
H468   H     0.20787   0.98983   0.49631   0.00000  Uiso   1.00
H469   H     0.16330   0.68588   0.00737   0.00000  Uiso   1.00
H470   H     0.19050   0.68284   0.05070   0.00000  Uiso   1.00
H471   H     0.14808   0.87298   0.11371   0.00000  Uiso   1.00
H472   H     0.07474   0.86158   0.11368   0.00000  Uiso   1.00
H473   H     0.12611   0.99738   0.28820   0.00000  Uiso   1.00
H474   H     0.09038   0.81132   0.11697   0.00000  Uiso   1.00
H475   H     0.08574   0.82665   0.06429   0.00000  Uiso   1.00
H476   H     0.12442   0.92087   0.41745   0.00000  Uiso   1.00
H477   H     0.16367   0.90489   0.03247   0.00000  Uiso   1.00
H478   H     0.13429   0.94623   0.49110   0.00000  Uiso   1.00
H479   H     0.14984   0.77668   0.40125   0.00000  Uiso   1.00
H480   H     0.01415   0.86690   0.21810   0.00000  Uiso   1.00
H481   H     0.32259   0.77844   0.31846   0.00000  Uiso   1.00
H482   H     0.24369   0.99756   0.19966   0.00000  Uiso   1.00
N483   N     0.21512   0.67537   0.20264   0.00000  Uiso   1.00
N484   N     0.22399   0.72153   0.49946   0.00000  Uiso   1.00
N485   N     0.13957   0.85641   0.08642   0.00000  Uiso   1.00
O486   O     0.16667   0.83333   0.25000   0.00000  Uiso   1.00
O487   O     0.15451   0.79304   0.15459   0.00000  Uiso   1.00
O488   O     0.12940   0.87058   0.34968   0.00000  Uiso   1.00
O489   O     0.20824   0.84425   0.14606   0.00000  Uiso   1.00
O490   O     0.17451   0.82546   0.34968   0.00000  Uiso   1.00
O491   O     0.29612   0.75639   0.26824   0.00000  Uiso   1.00
O492   O     0.23261   0.72597   0.41141   0.00000  Uiso   1.00
O493   O     0.17930   0.74686   0.28214   0.00000  Uiso   1.00
O494   O     0.14632   0.92751   0.27014   0.00000  Uiso   1.00
O495   O     0.07412   0.79958   0.23413   0.00000  Uiso   1.00
O496   O     0.26693   0.85939   0.21361   0.00000  Uiso   1.00
O497   O     0.07071   0.85544   0.28213   0.00000  Uiso   1.00
O498   O     0.25491   0.81892   0.27014   0.00000  Uiso   1.00
O499   O     0.13760   0.73610   0.23413   0.00000  Uiso   1.00
O500   O     0.20345   0.92286   0.21361   0.00000  Uiso   1.00
Zn501  Zn    0.19338   0.80661   0.28734   0.00000  Uiso   1.00
Zn502  Zn    0.13379   0.79124   0.21876   0.00000  Uiso   1.00
Zn503  Zn    0.21056   0.86442   0.20657   0.00000  Uiso   1.00
Zn504  Zn    0.12893   0.87106   0.28734   0.00000  Uiso   1.00
C505   C     0.38646   0.82635   0.25915   0.00000  Uiso   1.00
C506   C     0.50245   0.82964   0.06053   0.00000  Uiso   1.00
C507   C     0.54461   0.77437   0.06014   0.00000  Uiso   1.00
C508   C     0.61397   0.84011   0.24013   0.00000  Uiso   1.00
C509   C     0.47601   0.85975   0.41919   0.00000  Uiso   1.00
C510   C     0.65933   0.84360   0.23846   0.00000  Uiso   1.00
C511   C     0.34139   0.82069   0.26296   0.00000  Uiso   1.00
C512   C     0.51410   0.98926   0.23542   0.00000  Uiso   1.00
C513   C     0.48567   0.67827   0.26297   0.00000  Uiso   1.00
C514   C     0.48920   0.72256   0.26037   0.00000  Uiso   1.00
C515   C     0.51010   0.94454   0.24005   0.00000  Uiso   1.00
C516   C     0.47258   0.91451   0.47874   0.00000  Uiso   1.00
C517   C     0.51862   0.81457   0.12968   0.00000  Uiso   1.00
C518   C     0.48123   0.85040   0.37087   0.00000  Uiso   1.00
C519   C     0.54154   0.75982   0.01716   0.00000  Uiso   1.00
C520   C     0.52404   0.80778   0.08206   0.00000  Uiso   1.00
C521   C     0.46657   0.89970   0.43707   0.00000  Uiso   1.00
C522   C     0.65119   0.78338   0.28625   0.00000  Uiso   1.00
C523   C     0.53902   0.67595   0.15978   0.00000  Uiso   1.00
C524   C     0.52807   0.72947   0.42515   0.00000  Uiso   1.00
C525   C     0.52812   0.68486   0.01437   0.00000  Uiso   1.00
C526   C     0.42869   0.83785   0.09575   0.00000  Uiso   1.00
C527   C     0.48771   0.88968   0.00321   0.00000  Uiso   1.00
C528   C     0.49264   0.84743   0.48871   0.00000  Uiso   1.00
C529   C     0.48668   0.83245   0.44608   0.00000  Uiso   1.00
C530   C     0.50581   0.82052   0.01430   0.00000  Uiso   1.00
C531   C     0.52156   0.78252   0.49340   0.00000  Uiso   1.00
C532   C     0.51432   0.76806   0.45087   0.00000  Uiso   1.00
C533   C     0.49288   0.79105   0.43071   0.00000  Uiso   1.00
H534   H     0.55968   0.75687   0.07813   0.00000  Uiso   1.00
H535   H     0.56635   0.69359   0.13716   0.00000  Uiso   1.00
H536   H     0.51030   0.69156   0.16324   0.00000  Uiso   1.00
H537   H     0.53359   0.97692   0.14464   0.00000  Uiso   1.00
H538   H     0.50451   0.70517   0.41582   0.00000  Uiso   1.00
H539   H     0.58747   0.72024   0.00344   0.00000  Uiso   1.00
H540   H     0.54121   0.98983   0.49631   0.00000  Uiso   1.00
H541   H     0.49664   0.68588   0.00737   0.00000  Uiso   1.00
H542   H     0.52383   0.68284   0.05070   0.00000  Uiso   1.00
H543   H     0.48141   0.87298   0.11371   0.00000  Uiso   1.00
H544   H     0.40807   0.86158   0.11368   0.00000  Uiso   1.00
H545   H     0.45944   0.99738   0.28820   0.00000  Uiso   1.00
H546   H     0.42371   0.81132   0.11697   0.00000  Uiso   1.00
H547   H     0.41908   0.82665   0.06429   0.00000  Uiso   1.00
H548   H     0.45775   0.92087   0.41745   0.00000  Uiso   1.00
H549   H     0.49700   0.90489   0.03247   0.00000  Uiso   1.00
H550   H     0.46762   0.94623   0.49110   0.00000  Uiso   1.00
H551   H     0.48317   0.77668   0.40125   0.00000  Uiso   1.00
H552   H     0.34748   0.86690   0.21810   0.00000  Uiso   1.00
H553   H     0.65593   0.77844   0.31846   0.00000  Uiso   1.00
H554   H     0.57702   0.99756   0.19966   0.00000  Uiso   1.00
N555   N     0.54846   0.67537   0.20264   0.00000  Uiso   1.00
N556   N     0.55733   0.72153   0.49946   0.00000  Uiso   1.00
N557   N     0.47291   0.85641   0.08642   0.00000  Uiso   1.00
O558   O     0.50000   0.83333   0.25000   0.00000  Uiso   1.00
O559   O     0.48784   0.79304   0.15459   0.00000  Uiso   1.00
O560   O     0.46274   0.87058   0.34968   0.00000  Uiso   1.00
O561   O     0.54157   0.84425   0.14606   0.00000  Uiso   1.00
O562   O     0.50785   0.82546   0.34968   0.00000  Uiso   1.00
O563   O     0.62945   0.75639   0.26824   0.00000  Uiso   1.00
O564   O     0.56595   0.72597   0.41141   0.00000  Uiso   1.00
O565   O     0.51264   0.74686   0.28214   0.00000  Uiso   1.00
O566   O     0.47965   0.92751   0.27014   0.00000  Uiso   1.00
O567   O     0.40745   0.79958   0.23413   0.00000  Uiso   1.00
O568   O     0.60026   0.85939   0.21361   0.00000  Uiso   1.00
O569   O     0.40405   0.85544   0.28213   0.00000  Uiso   1.00
O570   O     0.58824   0.81892   0.27014   0.00000  Uiso   1.00
O571   O     0.47093   0.73610   0.23413   0.00000  Uiso   1.00
O572   O     0.53678   0.92286   0.21361   0.00000  Uiso   1.00
Zn573  Zn    0.52672   0.80661   0.28734   0.00000  Uiso   1.00
Zn574  Zn    0.46713   0.79124   0.21876   0.00000  Uiso   1.00
Zn575  Zn    0.54389   0.86442   0.20657   0.00000  Uiso   1.00
Zn576  Zn    0.46226   0.87106   0.28734   0.00000  Uiso   1.00
C577   C     0.71979   0.82635   0.25915   0.00000  Uiso   1.00
C578   C     0.83578   0.82964   0.06053   0.00000  Uiso   1.00
C579   C     0.87795   0.77437   0.06014   0.00000  Uiso   1.00
C580   C     0.94731   0.84011   0.24013   0.00000  Uiso   1.00
C581   C     0.80934   0.85975   0.41919   0.00000  Uiso   1.00
C582   C     0.99266   0.84360   0.23846   0.00000  Uiso   1.00
C583   C     0.67472   0.82069   0.26296   0.00000  Uiso   1.00
C584   C     0.84744   0.98926   0.23542   0.00000  Uiso   1.00
C585   C     0.81900   0.67827   0.26297   0.00000  Uiso   1.00
C586   C     0.82253   0.72256   0.26037   0.00000  Uiso   1.00
C587   C     0.84343   0.94454   0.24005   0.00000  Uiso   1.00
C588   C     0.80591   0.91451   0.47874   0.00000  Uiso   1.00
C589   C     0.85195   0.81457   0.12968   0.00000  Uiso   1.00
C590   C     0.81457   0.85040   0.37087   0.00000  Uiso   1.00
C591   C     0.87487   0.75982   0.01716   0.00000  Uiso   1.00
C592   C     0.85738   0.80778   0.08206   0.00000  Uiso   1.00
C593   C     0.79990   0.89970   0.43707   0.00000  Uiso   1.00
C594   C     0.98452   0.78338   0.28625   0.00000  Uiso   1.00
C595   C     0.87235   0.67595   0.15978   0.00000  Uiso   1.00
C596   C     0.86141   0.72947   0.42515   0.00000  Uiso   1.00
C597   C     0.86146   0.68486   0.01437   0.00000  Uiso   1.00
C598   C     0.76203   0.83785   0.09575   0.00000  Uiso   1.00
C599   C     0.82104   0.88968   0.00321   0.00000  Uiso   1.00
C600   C     0.82598   0.84743   0.48871   0.00000  Uiso   1.00
C601   C     0.82001   0.83245   0.44608   0.00000  Uiso   1.00
C602   C     0.83914   0.82052   0.01430   0.00000  Uiso   1.00
C603   C     0.85489   0.78252   0.49340   0.00000  Uiso   1.00
C604   C     0.84765   0.76806   0.45087   0.00000  Uiso   1.00
C605   C     0.82622   0.79105   0.43071   0.00000  Uiso   1.00
H606   H     0.89302   0.75687   0.07813   0.00000  Uiso   1.00
H607   H     0.89968   0.69359   0.13716   0.00000  Uiso   1.00
H608   H     0.84364   0.69156   0.16324   0.00000  Uiso   1.00
H609   H     0.86692   0.97692   0.14464   0.00000  Uiso   1.00
H610   H     0.83785   0.70517   0.41582   0.00000  Uiso   1.00
H611   H     0.92081   0.72024   0.00344   0.00000  Uiso   1.00
H612   H     0.87454   0.98983   0.49631   0.00000  Uiso   1.00
H613   H     0.82997   0.68588   0.00737   0.00000  Uiso   1.00
H614   H     0.85717   0.68284   0.05070   0.00000  Uiso   1.00
H615   H     0.81475   0.87298   0.11371   0.00000  Uiso   1.00
H616   H     0.74141   0.86158   0.11368   0.00000  Uiso   1.00
H617   H     0.79277   0.99738   0.28820   0.00000  Uiso   1.00
H618   H     0.75704   0.81132   0.11697   0.00000  Uiso   1.00
H619   H     0.75241   0.82665   0.06429   0.00000  Uiso   1.00
H620   H     0.79108   0.92087   0.41745   0.00000  Uiso   1.00
H621   H     0.83034   0.90489   0.03247   0.00000  Uiso   1.00
H622   H     0.80095   0.94623   0.49110   0.00000  Uiso   1.00
H623   H     0.81650   0.77668   0.40125   0.00000  Uiso   1.00
H624   H     0.68082   0.86690   0.21810   0.00000  Uiso   1.00
H625   H     0.98926   0.77844   0.31846   0.00000  Uiso   1.00
H626   H     0.91036   0.99756   0.19966   0.00000  Uiso   1.00
N627   N     0.88179   0.67537   0.20264   0.00000  Uiso   1.00
N628   N     0.89066   0.72153   0.49946   0.00000  Uiso   1.00
N629   N     0.80624   0.85641   0.08642   0.00000  Uiso   1.00
O630   O     0.83333   0.83333   0.25000   0.00000  Uiso   1.00
O631   O     0.82118   0.79304   0.15459   0.00000  Uiso   1.00
O632   O     0.79607   0.87058   0.34968   0.00000  Uiso   1.00
O633   O     0.87491   0.84425   0.14606   0.00000  Uiso   1.00
O634   O     0.84118   0.82546   0.34968   0.00000  Uiso   1.00
O635   O     0.96278   0.75639   0.26824   0.00000  Uiso   1.00
O636   O     0.89928   0.72597   0.41141   0.00000  Uiso   1.00
O637   O     0.84597   0.74686   0.28214   0.00000  Uiso   1.00
O638   O     0.81298   0.92751   0.27014   0.00000  Uiso   1.00
O639   O     0.74078   0.79958   0.23413   0.00000  Uiso   1.00
O640   O     0.93360   0.85939   0.21361   0.00000  Uiso   1.00
O641   O     0.73738   0.85544   0.28213   0.00000  Uiso   1.00
O642   O     0.92158   0.81892   0.27014   0.00000  Uiso   1.00
O643   O     0.80426   0.73610   0.23413   0.00000  Uiso   1.00
O644   O     0.87012   0.92286   0.21361   0.00000  Uiso   1.00
Zn645  Zn    0.86005   0.80661   0.28734   0.00000  Uiso   1.00
Zn646  Zn    0.80046   0.79124   0.21876   0.00000  Uiso   1.00
Zn647  Zn    0.87723   0.86442   0.20657   0.00000  Uiso   1.00
Zn648  Zn    0.79560   0.87106   0.28734   0.00000  Uiso   1.00
C649   C     0.05312   0.15969   0.75915   0.00000  Uiso   1.00
C650   C     0.16912   0.16297   0.56053   0.00000  Uiso   1.00
C651   C     0.21128   0.10771   0.56014   0.00000  Uiso   1.00
C652   C     0.28064   0.17345   0.74013   0.00000  Uiso   1.00
C653   C     0.14268   0.19309   0.91919   0.00000  Uiso   1.00
C654   C     0.32599   0.17693   0.73846   0.00000  Uiso   1.00
C655   C     0.00806   0.15402   0.76296   0.00000  Uiso   1.00
C656   C     0.18077   0.32259   0.73542   0.00000  Uiso   1.00
C657   C     0.15234   0.01160   0.76297   0.00000  Uiso   1.00
C658   C     0.15586   0.05589   0.76037   0.00000  Uiso   1.00
C659   C     0.17676   0.27787   0.74005   0.00000  Uiso   1.00
C660   C     0.13924   0.24784   0.97874   0.00000  Uiso   1.00
C661   C     0.18528   0.14791   0.62968   0.00000  Uiso   1.00
C662   C     0.14790   0.18373   0.87087   0.00000  Uiso   1.00
C663   C     0.20821   0.09315   0.51716   0.00000  Uiso   1.00
C664   C     0.19071   0.14112   0.58206   0.00000  Uiso   1.00
C665   C     0.13324   0.23303   0.93707   0.00000  Uiso   1.00
C666   C     0.31785   0.11672   0.78625   0.00000  Uiso   1.00
C667   C     0.20568   0.00929   0.65978   0.00000  Uiso   1.00
C668   C     0.19474   0.06280   0.92515   0.00000  Uiso   1.00
C669   C     0.19479   0.01819   0.51437   0.00000  Uiso   1.00
C670   C     0.09536   0.17119   0.59575   0.00000  Uiso   1.00
C671   C     0.15437   0.22301   0.50321   0.00000  Uiso   1.00
C672   C     0.15931   0.18076   0.98871   0.00000  Uiso   1.00
C673   C     0.15334   0.16578   0.94608   0.00000  Uiso   1.00
C674   C     0.17248   0.15385   0.51430   0.00000  Uiso   1.00
C675   C     0.18822   0.11586   0.99340   0.00000  Uiso   1.00
C676   C     0.18098   0.10139   0.95087   0.00000  Uiso   1.00
C677   C     0.15955   0.12439   0.93071   0.00000  Uiso   1.00
H678   H     0.22635   0.09021   0.57813   0.00000  Uiso   1.00
H679   H     0.23302   0.02693   0.63716   0.00000  Uiso   1.00
H680   H     0.17697   0.02489   0.66324   0.00000  Uiso   1.00
H681   H     0.20026   0.31025   0.64464   0.00000  Uiso   1.00
H682   H     0.17118   0.03850   0.91582   0.00000  Uiso   1.00
H683   H     0.25414   0.05357   0.50344   0.00000  Uiso   1.00
H684   H     0.20787   0.32316   0.99631   0.00000  Uiso   1.00
H685   H     0.16330   0.01921   0.50737   0.00000  Uiso   1.00
H686   H     0.19050   0.01617   0.55070   0.00000  Uiso   1.00
H687   H     0.14808   0.20631   0.61371   0.00000  Uiso   1.00
H688   H     0.07474   0.19491   0.61368   0.00000  Uiso   1.00
H689   H     0.12611   0.33072   0.78820   0.00000  Uiso   1.00
H690   H     0.09038   0.14465   0.61697   0.00000  Uiso   1.00
H691   H     0.08574   0.15998   0.56429   0.00000  Uiso   1.00
H692   H     0.12442   0.25421   0.91745   0.00000  Uiso   1.00
H693   H     0.16367   0.23823   0.53247   0.00000  Uiso   1.00
H694   H     0.13429   0.27956   0.99110   0.00000  Uiso   1.00
H695   H     0.14984   0.11001   0.90125   0.00000  Uiso   1.00
H696   H     0.01415   0.20023   0.71810   0.00000  Uiso   1.00
H697   H     0.32259   0.11177   0.81846   0.00000  Uiso   1.00
H698   H     0.24369   0.33090   0.69966   0.00000  Uiso   1.00
N699   N     0.21512   0.00870   0.70264   0.00000  Uiso   1.00
N700   N     0.22399   0.05487   0.99946   0.00000  Uiso   1.00
N701   N     0.13957   0.18974   0.58642   0.00000  Uiso   1.00
O702   O     0.16667   0.16667   0.75000   0.00000  Uiso   1.00
O703   O     0.15451   0.12637   0.65459   0.00000  Uiso   1.00
O704   O     0.12940   0.20391   0.84968   0.00000  Uiso   1.00
O705   O     0.20824   0.17759   0.64606   0.00000  Uiso   1.00
O706   O     0.17451   0.15880   0.84968   0.00000  Uiso   1.00
O707   O     0.29612   0.08973   0.76824   0.00000  Uiso   1.00
O708   O     0.23261   0.05930   0.91141   0.00000  Uiso   1.00
O709   O     0.17930   0.08019   0.78214   0.00000  Uiso   1.00
O710   O     0.14632   0.26085   0.77014   0.00000  Uiso   1.00
O711   O     0.07412   0.13291   0.73413   0.00000  Uiso   1.00
O712   O     0.26693   0.19272   0.71361   0.00000  Uiso   1.00
O713   O     0.07071   0.18878   0.78213   0.00000  Uiso   1.00
O714   O     0.25491   0.15226   0.77014   0.00000  Uiso   1.00
O715   O     0.13760   0.06944   0.73413   0.00000  Uiso   1.00
O716   O     0.20345   0.25620   0.71361   0.00000  Uiso   1.00
Zn717  Zn    0.19338   0.13994   0.78734   0.00000  Uiso   1.00
Zn718  Zn    0.13379   0.12458   0.71876   0.00000  Uiso   1.00
Zn719  Zn    0.21056   0.19775   0.70657   0.00000  Uiso   1.00
Zn720  Zn    0.12893   0.20439   0.78734   0.00000  Uiso   1.00
C721   C     0.38646   0.15969   0.75915   0.00000  Uiso   1.00
C722   C     0.50245   0.16297   0.56053   0.00000  Uiso   1.00
C723   C     0.54461   0.10771   0.56014   0.00000  Uiso   1.00
C724   C     0.61397   0.17345   0.74013   0.00000  Uiso   1.00
C725   C     0.47601   0.19309   0.91919   0.00000  Uiso   1.00
C726   C     0.65933   0.17693   0.73846   0.00000  Uiso   1.00
C727   C     0.34139   0.15402   0.76296   0.00000  Uiso   1.00
C728   C     0.51410   0.32259   0.73542   0.00000  Uiso   1.00
C729   C     0.48567   0.01160   0.76297   0.00000  Uiso   1.00
C730   C     0.48920   0.05589   0.76037   0.00000  Uiso   1.00
C731   C     0.51010   0.27787   0.74005   0.00000  Uiso   1.00
C732   C     0.47258   0.24784   0.97874   0.00000  Uiso   1.00
C733   C     0.51862   0.14791   0.62968   0.00000  Uiso   1.00
C734   C     0.48123   0.18373   0.87087   0.00000  Uiso   1.00
C735   C     0.54154   0.09315   0.51716   0.00000  Uiso   1.00
C736   C     0.52404   0.14112   0.58206   0.00000  Uiso   1.00
C737   C     0.46657   0.23303   0.93707   0.00000  Uiso   1.00
C738   C     0.65119   0.11672   0.78625   0.00000  Uiso   1.00
C739   C     0.53902   0.00929   0.65978   0.00000  Uiso   1.00
C740   C     0.52807   0.06280   0.92515   0.00000  Uiso   1.00
C741   C     0.52812   0.01819   0.51437   0.00000  Uiso   1.00
C742   C     0.42869   0.17119   0.59575   0.00000  Uiso   1.00
C743   C     0.48771   0.22301   0.50321   0.00000  Uiso   1.00
C744   C     0.49264   0.18076   0.98871   0.00000  Uiso   1.00
C745   C     0.48668   0.16578   0.94608   0.00000  Uiso   1.00
C746   C     0.50581   0.15385   0.51430   0.00000  Uiso   1.00
C747   C     0.52156   0.11586   0.99340   0.00000  Uiso   1.00
C748   C     0.51432   0.10139   0.95087   0.00000  Uiso   1.00
C749   C     0.49288   0.12439   0.93071   0.00000  Uiso   1.00
H750   H     0.55968   0.09021   0.57813   0.00000  Uiso   1.00
H751   H     0.56635   0.02693   0.63716   0.00000  Uiso   1.00
H752   H     0.51030   0.02489   0.66324   0.00000  Uiso   1.00
H753   H     0.53359   0.31025   0.64464   0.00000  Uiso   1.00
H754   H     0.50451   0.03850   0.91582   0.00000  Uiso   1.00
H755   H     0.58747   0.05357   0.50344   0.00000  Uiso   1.00
H756   H     0.54121   0.32316   0.99631   0.00000  Uiso   1.00
H757   H     0.49664   0.01921   0.50737   0.00000  Uiso   1.00
H758   H     0.52383   0.01617   0.55070   0.00000  Uiso   1.00
H759   H     0.48141   0.20631   0.61371   0.00000  Uiso   1.00
H760   H     0.40807   0.19491   0.61368   0.00000  Uiso   1.00
H761   H     0.45944   0.33072   0.78820   0.00000  Uiso   1.00
H762   H     0.42371   0.14465   0.61697   0.00000  Uiso   1.00
H763   H     0.41908   0.15998   0.56429   0.00000  Uiso   1.00
H764   H     0.45775   0.25421   0.91745   0.00000  Uiso   1.00
H765   H     0.49700   0.23823   0.53247   0.00000  Uiso   1.00
H766   H     0.46762   0.27956   0.99110   0.00000  Uiso   1.00
H767   H     0.48317   0.11001   0.90125   0.00000  Uiso   1.00
H768   H     0.34748   0.20023   0.71810   0.00000  Uiso   1.00
H769   H     0.65593   0.11177   0.81846   0.00000  Uiso   1.00
H770   H     0.57702   0.33090   0.69966   0.00000  Uiso   1.00
N771   N     0.54846   0.00870   0.70264   0.00000  Uiso   1.00
N772   N     0.55733   0.05487   0.99946   0.00000  Uiso   1.00
N773   N     0.47291   0.18974   0.58642   0.00000  Uiso   1.00
O774   O     0.50000   0.16667   0.75000   0.00000  Uiso   1.00
O775   O     0.48784   0.12637   0.65459   0.00000  Uiso   1.00
O776   O     0.46274   0.20391   0.84968   0.00000  Uiso   1.00
O777   O     0.54157   0.17759   0.64606   0.00000  Uiso   1.00
O778   O     0.50785   0.15880   0.84968   0.00000  Uiso   1.00
O779   O     0.62945   0.08973   0.76824   0.00000  Uiso   1.00
O780   O     0.56595   0.05930   0.91141   0.00000  Uiso   1.00
O781   O     0.51264   0.08019   0.78214   0.00000  Uiso   1.00
O782   O     0.47965   0.26085   0.77014   0.00000  Uiso   1.00
O783   O     0.40745   0.13291   0.73413   0.00000  Uiso   1.00
O784   O     0.60026   0.19272   0.71361   0.00000  Uiso   1.00
O785   O     0.40405   0.18878   0.78213   0.00000  Uiso   1.00
O786   O     0.58824   0.15226   0.77014   0.00000  Uiso   1.00
O787   O     0.47093   0.06944   0.73413   0.00000  Uiso   1.00
O788   O     0.53678   0.25620   0.71361   0.00000  Uiso   1.00
Zn789  Zn    0.52672   0.13994   0.78734   0.00000  Uiso   1.00
Zn790  Zn    0.46713   0.12458   0.71876   0.00000  Uiso   1.00
Zn791  Zn    0.54389   0.19775   0.70657   0.00000  Uiso   1.00
Zn792  Zn    0.46226   0.20439   0.78734   0.00000  Uiso   1.00
C793   C     0.71979   0.15969   0.75915   0.00000  Uiso   1.00
C794   C     0.83578   0.16297   0.56053   0.00000  Uiso   1.00
C795   C     0.87795   0.10771   0.56014   0.00000  Uiso   1.00
C796   C     0.94731   0.17345   0.74013   0.00000  Uiso   1.00
C797   C     0.80934   0.19309   0.91919   0.00000  Uiso   1.00
C798   C     0.99266   0.17693   0.73846   0.00000  Uiso   1.00
C799   C     0.67472   0.15402   0.76296   0.00000  Uiso   1.00
C800   C     0.84744   0.32259   0.73542   0.00000  Uiso   1.00
C801   C     0.81900   0.01160   0.76297   0.00000  Uiso   1.00
C802   C     0.82253   0.05589   0.76037   0.00000  Uiso   1.00
C803   C     0.84343   0.27787   0.74005   0.00000  Uiso   1.00
C804   C     0.80591   0.24784   0.97874   0.00000  Uiso   1.00
C805   C     0.85195   0.14791   0.62968   0.00000  Uiso   1.00
C806   C     0.81457   0.18373   0.87087   0.00000  Uiso   1.00
C807   C     0.87487   0.09315   0.51716   0.00000  Uiso   1.00
C808   C     0.85738   0.14112   0.58206   0.00000  Uiso   1.00
C809   C     0.79990   0.23303   0.93707   0.00000  Uiso   1.00
C810   C     0.98452   0.11672   0.78625   0.00000  Uiso   1.00
C811   C     0.87235   0.00929   0.65978   0.00000  Uiso   1.00
C812   C     0.86141   0.06280   0.92515   0.00000  Uiso   1.00
C813   C     0.86146   0.01819   0.51437   0.00000  Uiso   1.00
C814   C     0.76203   0.17119   0.59575   0.00000  Uiso   1.00
C815   C     0.82104   0.22301   0.50321   0.00000  Uiso   1.00
C816   C     0.82598   0.18076   0.98871   0.00000  Uiso   1.00
C817   C     0.82001   0.16578   0.94608   0.00000  Uiso   1.00
C818   C     0.83914   0.15385   0.51430   0.00000  Uiso   1.00
C819   C     0.85489   0.11586   0.99340   0.00000  Uiso   1.00
C820   C     0.84765   0.10139   0.95087   0.00000  Uiso   1.00
C821   C     0.82622   0.12439   0.93071   0.00000  Uiso   1.00
H822   H     0.89302   0.09021   0.57813   0.00000  Uiso   1.00
H823   H     0.89968   0.02693   0.63716   0.00000  Uiso   1.00
H824   H     0.84364   0.02489   0.66324   0.00000  Uiso   1.00
H825   H     0.86692   0.31025   0.64464   0.00000  Uiso   1.00
H826   H     0.83785   0.03850   0.91582   0.00000  Uiso   1.00
H827   H     0.92081   0.05357   0.50344   0.00000  Uiso   1.00
H828   H     0.87454   0.32316   0.99631   0.00000  Uiso   1.00
H829   H     0.82997   0.01921   0.50737   0.00000  Uiso   1.00
H830   H     0.85717   0.01617   0.55070   0.00000  Uiso   1.00
H831   H     0.81475   0.20631   0.61371   0.00000  Uiso   1.00
H832   H     0.74141   0.19491   0.61368   0.00000  Uiso   1.00
H833   H     0.79277   0.33072   0.78820   0.00000  Uiso   1.00
H834   H     0.75704   0.14465   0.61697   0.00000  Uiso   1.00
H835   H     0.75241   0.15998   0.56429   0.00000  Uiso   1.00
H836   H     0.79108   0.25421   0.91745   0.00000  Uiso   1.00
H837   H     0.83034   0.23823   0.53247   0.00000  Uiso   1.00
H838   H     0.80095   0.27956   0.99110   0.00000  Uiso   1.00
H839   H     0.81650   0.11001   0.90125   0.00000  Uiso   1.00
H840   H     0.68082   0.20023   0.71810   0.00000  Uiso   1.00
H841   H     0.98926   0.11177   0.81846   0.00000  Uiso   1.00
H842   H     0.91036   0.33090   0.69966   0.00000  Uiso   1.00
N843   N     0.88179   0.00870   0.70264   0.00000  Uiso   1.00
N844   N     0.89066   0.05487   0.99946   0.00000  Uiso   1.00
N845   N     0.80624   0.18974   0.58642   0.00000  Uiso   1.00
O846   O     0.83333   0.16667   0.75000   0.00000  Uiso   1.00
O847   O     0.82118   0.12637   0.65459   0.00000  Uiso   1.00
O848   O     0.79607   0.20391   0.84968   0.00000  Uiso   1.00
O849   O     0.87491   0.17759   0.64606   0.00000  Uiso   1.00
O850   O     0.84118   0.15880   0.84968   0.00000  Uiso   1.00
O851   O     0.96278   0.08973   0.76824   0.00000  Uiso   1.00
O852   O     0.89928   0.05930   0.91141   0.00000  Uiso   1.00
O853   O     0.84597   0.08019   0.78214   0.00000  Uiso   1.00
O854   O     0.81298   0.26085   0.77014   0.00000  Uiso   1.00
O855   O     0.74078   0.13291   0.73413   0.00000  Uiso   1.00
O856   O     0.93360   0.19272   0.71361   0.00000  Uiso   1.00
O857   O     0.73738   0.18878   0.78213   0.00000  Uiso   1.00
O858   O     0.92158   0.15226   0.77014   0.00000  Uiso   1.00
O859   O     0.80426   0.06944   0.73413   0.00000  Uiso   1.00
O860   O     0.87012   0.25620   0.71361   0.00000  Uiso   1.00
Zn861  Zn    0.86005   0.13994   0.78734   0.00000  Uiso   1.00
Zn862  Zn    0.80046   0.12458   0.71876   0.00000  Uiso   1.00
Zn863  Zn    0.87723   0.19775   0.70657   0.00000  Uiso   1.00
Zn864  Zn    0.79560   0.20439   0.78734   0.00000  Uiso   1.00
C865   C     0.05312   0.49302   0.75915   0.00000  Uiso   1.00
C866   C     0.16912   0.49630   0.56053   0.00000  Uiso   1.00
C867   C     0.21128   0.44104   0.56014   0.00000  Uiso   1.00
C868   C     0.28064   0.50678   0.74013   0.00000  Uiso   1.00
C869   C     0.14268   0.52642   0.91919   0.00000  Uiso   1.00
C870   C     0.32599   0.51026   0.73846   0.00000  Uiso   1.00
C871   C     0.00806   0.48736   0.76296   0.00000  Uiso   1.00
C872   C     0.18077   0.65592   0.73542   0.00000  Uiso   1.00
C873   C     0.15234   0.34494   0.76297   0.00000  Uiso   1.00
C874   C     0.15586   0.38923   0.76037   0.00000  Uiso   1.00
C875   C     0.17676   0.61121   0.74005   0.00000  Uiso   1.00
C876   C     0.13924   0.58117   0.97874   0.00000  Uiso   1.00
C877   C     0.18528   0.48124   0.62968   0.00000  Uiso   1.00
C878   C     0.14790   0.51706   0.87087   0.00000  Uiso   1.00
C879   C     0.20821   0.42649   0.51716   0.00000  Uiso   1.00
C880   C     0.19071   0.47445   0.58206   0.00000  Uiso   1.00
C881   C     0.13324   0.56637   0.93707   0.00000  Uiso   1.00
C882   C     0.31785   0.45005   0.78625   0.00000  Uiso   1.00
C883   C     0.20568   0.34262   0.65978   0.00000  Uiso   1.00
C884   C     0.19474   0.39613   0.92515   0.00000  Uiso   1.00
C885   C     0.19479   0.35152   0.51437   0.00000  Uiso   1.00
C886   C     0.09536   0.50452   0.59575   0.00000  Uiso   1.00
C887   C     0.15437   0.55634   0.50321   0.00000  Uiso   1.00
C888   C     0.15931   0.51409   0.98871   0.00000  Uiso   1.00
C889   C     0.15334   0.49911   0.94608   0.00000  Uiso   1.00
C890   C     0.17248   0.48719   0.51430   0.00000  Uiso   1.00
C891   C     0.18822   0.44919   0.99340   0.00000  Uiso   1.00
C892   C     0.18098   0.43472   0.95087   0.00000  Uiso   1.00
C893   C     0.15955   0.45772   0.93071   0.00000  Uiso   1.00
H894   H     0.22635   0.42354   0.57813   0.00000  Uiso   1.00
H895   H     0.23302   0.36026   0.63716   0.00000  Uiso   1.00
H896   H     0.17697   0.35822   0.66324   0.00000  Uiso   1.00
H897   H     0.20026   0.64359   0.64464   0.00000  Uiso   1.00
H898   H     0.17118   0.37184   0.91582   0.00000  Uiso   1.00
H899   H     0.25414   0.38691   0.50344   0.00000  Uiso   1.00
H900   H     0.20787   0.65649   0.99631   0.00000  Uiso   1.00
H901   H     0.16330   0.35255   0.50737   0.00000  Uiso   1.00
H902   H     0.19050   0.34951   0.55070   0.00000  Uiso   1.00
H903   H     0.14808   0.53964   0.61371   0.00000  Uiso   1.00
H904   H     0.07474   0.52825   0.61368   0.00000  Uiso   1.00
H905   H     0.12611   0.66405   0.78820   0.00000  Uiso   1.00
H906   H     0.09038   0.47798   0.61697   0.00000  Uiso   1.00
H907   H     0.08574   0.49331   0.56429   0.00000  Uiso   1.00
H908   H     0.12442   0.58754   0.91745   0.00000  Uiso   1.00
H909   H     0.16367   0.57156   0.53247   0.00000  Uiso   1.00
H910   H     0.13429   0.61289   0.99110   0.00000  Uiso   1.00
H911   H     0.14984   0.44335   0.90125   0.00000  Uiso   1.00
H912   H     0.01415   0.53356   0.71810   0.00000  Uiso   1.00
H913   H     0.32259   0.44511   0.81846   0.00000  Uiso   1.00
H914   H     0.24369   0.66423   0.69966   0.00000  Uiso   1.00
N915   N     0.21512   0.34204   0.70264   0.00000  Uiso   1.00
N916   N     0.22399   0.38820   0.99946   0.00000  Uiso   1.00
N917   N     0.13957   0.52308   0.58642   0.00000  Uiso   1.00
O918   O     0.16667   0.50000   0.75000   0.00000  Uiso   1.00
O919   O     0.15451   0.45970   0.65459   0.00000  Uiso   1.00
O920   O     0.12940   0.53724   0.84968   0.00000  Uiso   1.00
O921   O     0.20824   0.51092   0.64606   0.00000  Uiso   1.00
O922   O     0.17451   0.49213   0.84968   0.00000  Uiso   1.00
O923   O     0.29612   0.42306   0.76824   0.00000  Uiso   1.00
O924   O     0.23261   0.39263   0.91141   0.00000  Uiso   1.00
O925   O     0.17930   0.41352   0.78214   0.00000  Uiso   1.00
O926   O     0.14632   0.59418   0.77014   0.00000  Uiso   1.00
O927   O     0.07412   0.46625   0.73413   0.00000  Uiso   1.00
O928   O     0.26693   0.52605   0.71361   0.00000  Uiso   1.00
O929   O     0.07071   0.52211   0.78213   0.00000  Uiso   1.00
O930   O     0.25491   0.48559   0.77014   0.00000  Uiso   1.00
O931   O     0.13760   0.40277   0.73413   0.00000  Uiso   1.00
O932   O     0.20345   0.58953   0.71361   0.00000  Uiso   1.00
Zn933  Zn    0.19338   0.47327   0.78734   0.00000  Uiso   1.00
Zn934  Zn    0.13379   0.45791   0.71876   0.00000  Uiso   1.00
Zn935  Zn    0.21056   0.53109   0.70657   0.00000  Uiso   1.00
Zn936  Zn    0.12893   0.53773   0.78734   0.00000  Uiso   1.00
C937   C     0.38646   0.49302   0.75915   0.00000  Uiso   1.00
C938   C     0.50245   0.49630   0.56053   0.00000  Uiso   1.00
C939   C     0.54461   0.44104   0.56014   0.00000  Uiso   1.00
C940   C     0.61397   0.50678   0.74013   0.00000  Uiso   1.00
C941   C     0.47601   0.52642   0.91919   0.00000  Uiso   1.00
C942   C     0.65933   0.51026   0.73846   0.00000  Uiso   1.00
C943   C     0.34139   0.48736   0.76296   0.00000  Uiso   1.00
C944   C     0.51410   0.65592   0.73542   0.00000  Uiso   1.00
C945   C     0.48567   0.34494   0.76297   0.00000  Uiso   1.00
C946   C     0.48920   0.38923   0.76037   0.00000  Uiso   1.00
C947   C     0.51010   0.61121   0.74005   0.00000  Uiso   1.00
C948   C     0.47258   0.58117   0.97874   0.00000  Uiso   1.00
C949   C     0.51862   0.48124   0.62968   0.00000  Uiso   1.00
C950   C     0.48123   0.51706   0.87087   0.00000  Uiso   1.00
C951   C     0.54154   0.42649   0.51716   0.00000  Uiso   1.00
C952   C     0.52404   0.47445   0.58206   0.00000  Uiso   1.00
C953   C     0.46657   0.56637   0.93707   0.00000  Uiso   1.00
C954   C     0.65119   0.45005   0.78625   0.00000  Uiso   1.00
C955   C     0.53902   0.34262   0.65978   0.00000  Uiso   1.00
C956   C     0.52807   0.39613   0.92515   0.00000  Uiso   1.00
C957   C     0.52812   0.35152   0.51437   0.00000  Uiso   1.00
C958   C     0.42869   0.50452   0.59575   0.00000  Uiso   1.00
C959   C     0.48771   0.55634   0.50321   0.00000  Uiso   1.00
C960   C     0.49264   0.51409   0.98871   0.00000  Uiso   1.00
C961   C     0.48668   0.49911   0.94608   0.00000  Uiso   1.00
C962   C     0.50581   0.48719   0.51430   0.00000  Uiso   1.00
C963   C     0.52156   0.44919   0.99340   0.00000  Uiso   1.00
C964   C     0.51432   0.43472   0.95087   0.00000  Uiso   1.00
C965   C     0.49288   0.45772   0.93071   0.00000  Uiso   1.00
H966   H     0.55968   0.42354   0.57813   0.00000  Uiso   1.00
H967   H     0.56635   0.36026   0.63716   0.00000  Uiso   1.00
H968   H     0.51030   0.35822   0.66324   0.00000  Uiso   1.00
H969   H     0.53359   0.64359   0.64464   0.00000  Uiso   1.00
H970   H     0.50451   0.37184   0.91582   0.00000  Uiso   1.00
H971   H     0.58747   0.38691   0.50344   0.00000  Uiso   1.00
H972   H     0.54121   0.65649   0.99631   0.00000  Uiso   1.00
H973   H     0.49664   0.35255   0.50737   0.00000  Uiso   1.00
H974   H     0.52383   0.34951   0.55070   0.00000  Uiso   1.00
H975   H     0.48141   0.53964   0.61371   0.00000  Uiso   1.00
H976   H     0.40807   0.52825   0.61368   0.00000  Uiso   1.00
H977   H     0.45944   0.66405   0.78820   0.00000  Uiso   1.00
H978   H     0.42371   0.47798   0.61697   0.00000  Uiso   1.00
H979   H     0.41908   0.49331   0.56429   0.00000  Uiso   1.00
H980   H     0.45775   0.58754   0.91745   0.00000  Uiso   1.00
H981   H     0.49700   0.57156   0.53247   0.00000  Uiso   1.00
H982   H     0.46762   0.61289   0.99110   0.00000  Uiso   1.00
H983   H     0.48317   0.44335   0.90125   0.00000  Uiso   1.00
H984   H     0.34748   0.53356   0.71810   0.00000  Uiso   1.00
H985   H     0.65593   0.44511   0.81846   0.00000  Uiso   1.00
H986   H     0.57702   0.66423   0.69966   0.00000  Uiso   1.00
N987   N     0.54846   0.34204   0.70264   0.00000  Uiso   1.00
N988   N     0.55733   0.38820   0.99946   0.00000  Uiso   1.00
N989   N     0.47291   0.52308   0.58642   0.00000  Uiso   1.00
O990   O     0.50000   0.50000   0.75000   0.00000  Uiso   1.00
O991   O     0.48784   0.45970   0.65459   0.00000  Uiso   1.00
O992   O     0.46274   0.53724   0.84968   0.00000  Uiso   1.00
O993   O     0.54157   0.51092   0.64606   0.00000  Uiso   1.00
O994   O     0.50785   0.49213   0.84968   0.00000  Uiso   1.00
O995   O     0.62945   0.42306   0.76824   0.00000  Uiso   1.00
O996   O     0.56595   0.39263   0.91141   0.00000  Uiso   1.00
O997   O     0.51264   0.41352   0.78214   0.00000  Uiso   1.00
O998   O     0.47965   0.59418   0.77014   0.00000  Uiso   1.00
O999   O     0.40745   0.46625   0.73413   0.00000  Uiso   1.00
O1000  O     0.60026   0.52605   0.71361   0.00000  Uiso   1.00
O1001  O     0.40405   0.52211   0.78213   0.00000  Uiso   1.00
O1002  O     0.58824   0.48559   0.77014   0.00000  Uiso   1.00
O1003  O     0.47093   0.40277   0.73413   0.00000  Uiso   1.00
O1004  O     0.53678   0.58953   0.71361   0.00000  Uiso   1.00
Zn1005 Zn    0.52672   0.47327   0.78734   0.00000  Uiso   1.00
Zn1006 Zn    0.46713   0.45791   0.71876   0.00000  Uiso   1.00
Zn1007 Zn    0.54389   0.53109   0.70657   0.00000  Uiso   1.00
Zn1008 Zn    0.46226   0.53773   0.78734   0.00000  Uiso   1.00
C1009  C     0.71979   0.49302   0.75915   0.00000  Uiso   1.00
C1010  C     0.83578   0.49630   0.56053   0.00000  Uiso   1.00
C1011  C     0.87795   0.44104   0.56014   0.00000  Uiso   1.00
C1012  C     0.94731   0.50678   0.74013   0.00000  Uiso   1.00
C1013  C     0.80934   0.52642   0.91919   0.00000  Uiso   1.00
C1014  C     0.99266   0.51026   0.73846   0.00000  Uiso   1.00
C1015  C     0.67472   0.48736   0.76296   0.00000  Uiso   1.00
C1016  C     0.84744   0.65592   0.73542   0.00000  Uiso   1.00
C1017  C     0.81900   0.34494   0.76297   0.00000  Uiso   1.00
C1018  C     0.82253   0.38923   0.76037   0.00000  Uiso   1.00
C1019  C     0.84343   0.61121   0.74005   0.00000  Uiso   1.00
C1020  C     0.80591   0.58117   0.97874   0.00000  Uiso   1.00
C1021  C     0.85195   0.48124   0.62968   0.00000  Uiso   1.00
C1022  C     0.81457   0.51706   0.87087   0.00000  Uiso   1.00
C1023  C     0.87487   0.42649   0.51716   0.00000  Uiso   1.00
C1024  C     0.85738   0.47445   0.58206   0.00000  Uiso   1.00
C1025  C     0.79990   0.56637   0.93707   0.00000  Uiso   1.00
C1026  C     0.98452   0.45005   0.78625   0.00000  Uiso   1.00
C1027  C     0.87235   0.34262   0.65978   0.00000  Uiso   1.00
C1028  C     0.86141   0.39613   0.92515   0.00000  Uiso   1.00
C1029  C     0.86146   0.35152   0.51437   0.00000  Uiso   1.00
C1030  C     0.76203   0.50452   0.59575   0.00000  Uiso   1.00
C1031  C     0.82104   0.55634   0.50321   0.00000  Uiso   1.00
C1032  C     0.82598   0.51409   0.98871   0.00000  Uiso   1.00
C1033  C     0.82001   0.49911   0.94608   0.00000  Uiso   1.00
C1034  C     0.83914   0.48719   0.51430   0.00000  Uiso   1.00
C1035  C     0.85489   0.44919   0.99340   0.00000  Uiso   1.00
C1036  C     0.84765   0.43472   0.95087   0.00000  Uiso   1.00
C1037  C     0.82622   0.45772   0.93071   0.00000  Uiso   1.00
H1038  H     0.89302   0.42354   0.57813   0.00000  Uiso   1.00
H1039  H     0.89968   0.36026   0.63716   0.00000  Uiso   1.00
H1040  H     0.84364   0.35822   0.66324   0.00000  Uiso   1.00
H1041  H     0.86692   0.64359   0.64464   0.00000  Uiso   1.00
H1042  H     0.83785   0.37184   0.91582   0.00000  Uiso   1.00
H1043  H     0.92081   0.38691   0.50344   0.00000  Uiso   1.00
H1044  H     0.87454   0.65649   0.99631   0.00000  Uiso   1.00
H1045  H     0.82997   0.35255   0.50737   0.00000  Uiso   1.00
H1046  H     0.85717   0.34951   0.55070   0.00000  Uiso   1.00
H1047  H     0.81475   0.53964   0.61371   0.00000  Uiso   1.00
H1048  H     0.74141   0.52825   0.61368   0.00000  Uiso   1.00
H1049  H     0.79277   0.66405   0.78820   0.00000  Uiso   1.00
H1050  H     0.75704   0.47798   0.61697   0.00000  Uiso   1.00
H1051  H     0.75241   0.49331   0.56429   0.00000  Uiso   1.00
H1052  H     0.79108   0.58754   0.91745   0.00000  Uiso   1.00
H1053  H     0.83034   0.57156   0.53247   0.00000  Uiso   1.00
H1054  H     0.80095   0.61289   0.99110   0.00000  Uiso   1.00
H1055  H     0.81650   0.44335   0.90125   0.00000  Uiso   1.00
H1056  H     0.68082   0.53356   0.71810   0.00000  Uiso   1.00
H1057  H     0.98926   0.44511   0.81846   0.00000  Uiso   1.00
H1058  H     0.91036   0.66423   0.69966   0.00000  Uiso   1.00
N1059  N     0.88179   0.34204   0.70264   0.00000  Uiso   1.00
N1060  N     0.89066   0.38820   0.99946   0.00000  Uiso   1.00
N1061  N     0.80624   0.52308   0.58642   0.00000  Uiso   1.00
O1062  O     0.83333   0.50000   0.75000   0.00000  Uiso   1.00
O1063  O     0.82118   0.45970   0.65459   0.00000  Uiso   1.00
O1064  O     0.79607   0.53724   0.84968   0.00000  Uiso   1.00
O1065  O     0.87491   0.51092   0.64606   0.00000  Uiso   1.00
O1066  O     0.84118   0.49213   0.84968   0.00000  Uiso   1.00
O1067  O     0.96278   0.42306   0.76824   0.00000  Uiso   1.00
O1068  O     0.89928   0.39263   0.91141   0.00000  Uiso   1.00
O1069  O     0.84597   0.41352   0.78214   0.00000  Uiso   1.00
O1070  O     0.81298   0.59418   0.77014   0.00000  Uiso   1.00
O1071  O     0.74078   0.46625   0.73413   0.00000  Uiso   1.00
O1072  O     0.93360   0.52605   0.71361   0.00000  Uiso   1.00
O1073  O     0.73738   0.52211   0.78213   0.00000  Uiso   1.00
O1074  O     0.92158   0.48559   0.77014   0.00000  Uiso   1.00
O1075  O     0.80426   0.40277   0.73413   0.00000  Uiso   1.00
O1076  O     0.87012   0.58953   0.71361   0.00000  Uiso   1.00
Zn1077 Zn    0.86005   0.47327   0.78734   0.00000  Uiso   1.00
Zn1078 Zn    0.80046   0.45791   0.71876   0.00000  Uiso   1.00
Zn1079 Zn    0.87723   0.53109   0.70657   0.00000  Uiso   1.00
Zn1080 Zn    0.79560   0.53773   0.78734   0.00000  Uiso   1.00
C1081  C     0.05312   0.82635   0.75915   0.00000  Uiso   1.00
C1082  C     0.16912   0.82964   0.56053   0.00000  Uiso   1.00
C1083  C     0.21128   0.77437   0.56014   0.00000  Uiso   1.00
C1084  C     0.28064   0.84011   0.74013   0.00000  Uiso   1.00
C1085  C     0.14268   0.85975   0.91919   0.00000  Uiso   1.00
C1086  C     0.32599   0.84360   0.73846   0.00000  Uiso   1.00
C1087  C     0.00806   0.82069   0.76296   0.00000  Uiso   1.00
C1088  C     0.18077   0.98926   0.73542   0.00000  Uiso   1.00
C1089  C     0.15234   0.67827   0.76297   0.00000  Uiso   1.00
C1090  C     0.15586   0.72256   0.76037   0.00000  Uiso   1.00
C1091  C     0.17676   0.94454   0.74005   0.00000  Uiso   1.00
C1092  C     0.13924   0.91451   0.97874   0.00000  Uiso   1.00
C1093  C     0.18528   0.81457   0.62968   0.00000  Uiso   1.00
C1094  C     0.14790   0.85040   0.87087   0.00000  Uiso   1.00
C1095  C     0.20821   0.75982   0.51716   0.00000  Uiso   1.00
C1096  C     0.19071   0.80778   0.58206   0.00000  Uiso   1.00
C1097  C     0.13324   0.89970   0.93707   0.00000  Uiso   1.00
C1098  C     0.31785   0.78338   0.78625   0.00000  Uiso   1.00
C1099  C     0.20568   0.67595   0.65978   0.00000  Uiso   1.00
C1100  C     0.19474   0.72947   0.92515   0.00000  Uiso   1.00
C1101  C     0.19479   0.68486   0.51437   0.00000  Uiso   1.00
C1102  C     0.09536   0.83785   0.59575   0.00000  Uiso   1.00
C1103  C     0.15437   0.88968   0.50321   0.00000  Uiso   1.00
C1104  C     0.15931   0.84743   0.98871   0.00000  Uiso   1.00
C1105  C     0.15334   0.83245   0.94608   0.00000  Uiso   1.00
C1106  C     0.17248   0.82052   0.51430   0.00000  Uiso   1.00
C1107  C     0.18822   0.78252   0.99340   0.00000  Uiso   1.00
C1108  C     0.18098   0.76806   0.95087   0.00000  Uiso   1.00
C1109  C     0.15955   0.79105   0.93071   0.00000  Uiso   1.00
H1110  H     0.22635   0.75687   0.57813   0.00000  Uiso   1.00
H1111  H     0.23302   0.69359   0.63716   0.00000  Uiso   1.00
H1112  H     0.17697   0.69156   0.66324   0.00000  Uiso   1.00
H1113  H     0.20026   0.97692   0.64464   0.00000  Uiso   1.00
H1114  H     0.17118   0.70517   0.91582   0.00000  Uiso   1.00
H1115  H     0.25414   0.72024   0.50344   0.00000  Uiso   1.00
H1116  H     0.20787   0.98983   0.99631   0.00000  Uiso   1.00
H1117  H     0.16330   0.68588   0.50737   0.00000  Uiso   1.00
H1118  H     0.19050   0.68284   0.55070   0.00000  Uiso   1.00
H1119  H     0.14808   0.87298   0.61371   0.00000  Uiso   1.00
H1120  H     0.07474   0.86158   0.61368   0.00000  Uiso   1.00
H1121  H     0.12611   0.99738   0.78820   0.00000  Uiso   1.00
H1122  H     0.09038   0.81132   0.61697   0.00000  Uiso   1.00
H1123  H     0.08574   0.82665   0.56429   0.00000  Uiso   1.00
H1124  H     0.12442   0.92087   0.91745   0.00000  Uiso   1.00
H1125  H     0.16367   0.90489   0.53247   0.00000  Uiso   1.00
H1126  H     0.13429   0.94623   0.99110   0.00000  Uiso   1.00
H1127  H     0.14984   0.77668   0.90125   0.00000  Uiso   1.00
H1128  H     0.01415   0.86690   0.71810   0.00000  Uiso   1.00
H1129  H     0.32259   0.77844   0.81846   0.00000  Uiso   1.00
H1130  H     0.24369   0.99756   0.69966   0.00000  Uiso   1.00
N1131  N     0.21512   0.67537   0.70264   0.00000  Uiso   1.00
N1132  N     0.22399   0.72153   0.99946   0.00000  Uiso   1.00
N1133  N     0.13957   0.85641   0.58642   0.00000  Uiso   1.00
O1134  O     0.16667   0.83333   0.75000   0.00000  Uiso   1.00
O1135  O     0.15451   0.79304   0.65459   0.00000  Uiso   1.00
O1136  O     0.12940   0.87058   0.84968   0.00000  Uiso   1.00
O1137  O     0.20824   0.84425   0.64606   0.00000  Uiso   1.00
O1138  O     0.17451   0.82546   0.84968   0.00000  Uiso   1.00
O1139  O     0.29612   0.75639   0.76824   0.00000  Uiso   1.00
O1140  O     0.23261   0.72597   0.91141   0.00000  Uiso   1.00
O1141  O     0.17930   0.74686   0.78214   0.00000  Uiso   1.00
O1142  O     0.14632   0.92751   0.77014   0.00000  Uiso   1.00
O1143  O     0.07412   0.79958   0.73413   0.00000  Uiso   1.00
O1144  O     0.26693   0.85939   0.71361   0.00000  Uiso   1.00
O1145  O     0.07071   0.85544   0.78213   0.00000  Uiso   1.00
O1146  O     0.25491   0.81892   0.77014   0.00000  Uiso   1.00
O1147  O     0.13760   0.73610   0.73413   0.00000  Uiso   1.00
O1148  O     0.20345   0.92286   0.71361   0.00000  Uiso   1.00
Zn1149 Zn    0.19338   0.80661   0.78734   0.00000  Uiso   1.00
Zn1150 Zn    0.13379   0.79124   0.71876   0.00000  Uiso   1.00
Zn1151 Zn    0.21056   0.86442   0.70657   0.00000  Uiso   1.00
Zn1152 Zn    0.12893   0.87106   0.78734   0.00000  Uiso   1.00
C1153  C     0.38646   0.82635   0.75915   0.00000  Uiso   1.00
C1154  C     0.50245   0.82964   0.56053   0.00000  Uiso   1.00
C1155  C     0.54461   0.77437   0.56014   0.00000  Uiso   1.00
C1156  C     0.61397   0.84011   0.74013   0.00000  Uiso   1.00
C1157  C     0.47601   0.85975   0.91919   0.00000  Uiso   1.00
C1158  C     0.65933   0.84360   0.73846   0.00000  Uiso   1.00
C1159  C     0.34139   0.82069   0.76296   0.00000  Uiso   1.00
C1160  C     0.51410   0.98926   0.73542   0.00000  Uiso   1.00
C1161  C     0.48567   0.67827   0.76297   0.00000  Uiso   1.00
C1162  C     0.48920   0.72256   0.76037   0.00000  Uiso   1.00
C1163  C     0.51010   0.94454   0.74005   0.00000  Uiso   1.00
C1164  C     0.47258   0.91451   0.97874   0.00000  Uiso   1.00
C1165  C     0.51862   0.81457   0.62968   0.00000  Uiso   1.00
C1166  C     0.48123   0.85040   0.87087   0.00000  Uiso   1.00
C1167  C     0.54154   0.75982   0.51716   0.00000  Uiso   1.00
C1168  C     0.52404   0.80778   0.58206   0.00000  Uiso   1.00
C1169  C     0.46657   0.89970   0.93707   0.00000  Uiso   1.00
C1170  C     0.65119   0.78338   0.78625   0.00000  Uiso   1.00
C1171  C     0.53902   0.67595   0.65978   0.00000  Uiso   1.00
C1172  C     0.52807   0.72947   0.92515   0.00000  Uiso   1.00
C1173  C     0.52812   0.68486   0.51437   0.00000  Uiso   1.00
C1174  C     0.42869   0.83785   0.59575   0.00000  Uiso   1.00
C1175  C     0.48771   0.88968   0.50321   0.00000  Uiso   1.00
C1176  C     0.49264   0.84743   0.98871   0.00000  Uiso   1.00
C1177  C     0.48668   0.83245   0.94608   0.00000  Uiso   1.00
C1178  C     0.50581   0.82052   0.51430   0.00000  Uiso   1.00
C1179  C     0.52156   0.78252   0.99340   0.00000  Uiso   1.00
C1180  C     0.51432   0.76806   0.95087   0.00000  Uiso   1.00
C1181  C     0.49288   0.79105   0.93071   0.00000  Uiso   1.00
H1182  H     0.55968   0.75687   0.57813   0.00000  Uiso   1.00
H1183  H     0.56635   0.69359   0.63716   0.00000  Uiso   1.00
H1184  H     0.51030   0.69156   0.66324   0.00000  Uiso   1.00
H1185  H     0.53359   0.97692   0.64464   0.00000  Uiso   1.00
H1186  H     0.50451   0.70517   0.91582   0.00000  Uiso   1.00
H1187  H     0.58747   0.72024   0.50344   0.00000  Uiso   1.00
H1188  H     0.54121   0.98983   0.99631   0.00000  Uiso   1.00
H1189  H     0.49664   0.68588   0.50737   0.00000  Uiso   1.00
H1190  H     0.52383   0.68284   0.55070   0.00000  Uiso   1.00
H1191  H     0.48141   0.87298   0.61371   0.00000  Uiso   1.00
H1192  H     0.40807   0.86158   0.61368   0.00000  Uiso   1.00
H1193  H     0.45944   0.99738   0.78820   0.00000  Uiso   1.00
H1194  H     0.42371   0.81132   0.61697   0.00000  Uiso   1.00
H1195  H     0.41908   0.82665   0.56429   0.00000  Uiso   1.00
H1196  H     0.45775   0.92087   0.91745   0.00000  Uiso   1.00
H1197  H     0.49700   0.90489   0.53247   0.00000  Uiso   1.00
H1198  H     0.46762   0.94623   0.99110   0.00000  Uiso   1.00
H1199  H     0.48317   0.77668   0.90125   0.00000  Uiso   1.00
H1200  H     0.34748   0.86690   0.71810   0.00000  Uiso   1.00
H1201  H     0.65593   0.77844   0.81846   0.00000  Uiso   1.00
H1202  H     0.57702   0.99756   0.69966   0.00000  Uiso   1.00
N1203  N     0.54846   0.67537   0.70264   0.00000  Uiso   1.00
N1204  N     0.55733   0.72153   0.99946   0.00000  Uiso   1.00
N1205  N     0.47291   0.85641   0.58642   0.00000  Uiso   1.00
O1206  O     0.50000   0.83333   0.75000   0.00000  Uiso   1.00
O1207  O     0.48784   0.79304   0.65459   0.00000  Uiso   1.00
O1208  O     0.46274   0.87058   0.84968   0.00000  Uiso   1.00
O1209  O     0.54157   0.84425   0.64606   0.00000  Uiso   1.00
O1210  O     0.50785   0.82546   0.84968   0.00000  Uiso   1.00
O1211  O     0.62945   0.75639   0.76824   0.00000  Uiso   1.00
O1212  O     0.56595   0.72597   0.91141   0.00000  Uiso   1.00
O1213  O     0.51264   0.74686   0.78214   0.00000  Uiso   1.00
O1214  O     0.47965   0.92751   0.77014   0.00000  Uiso   1.00
O1215  O     0.40745   0.79958   0.73413   0.00000  Uiso   1.00
O1216  O     0.60026   0.85939   0.71361   0.00000  Uiso   1.00
O1217  O     0.40405   0.85544   0.78213   0.00000  Uiso   1.00
O1218  O     0.58824   0.81892   0.77014   0.00000  Uiso   1.00
O1219  O     0.47093   0.73610   0.73413   0.00000  Uiso   1.00
O1220  O     0.53678   0.92286   0.71361   0.00000  Uiso   1.00
Zn1221 Zn    0.52672   0.80661   0.78734   0.00000  Uiso   1.00
Zn1222 Zn    0.46713   0.79124   0.71876   0.00000  Uiso   1.00
Zn1223 Zn    0.54389   0.86442   0.70657   0.00000  Uiso   1.00
Zn1224 Zn    0.46226   0.87106   0.78734   0.00000  Uiso   1.00
C1225  C     0.71979   0.82635   0.75915   0.00000  Uiso   1.00
C1226  C     0.83578   0.82964   0.56053   0.00000  Uiso   1.00
C1227  C     0.87795   0.77437   0.56014   0.00000  Uiso   1.00
C1228  C     0.94731   0.84011   0.74013   0.00000  Uiso   1.00
C1229  C     0.80934   0.85975   0.91919   0.00000  Uiso   1.00
C1230  C     0.99266   0.84360   0.73846   0.00000  Uiso   1.00
C1231  C     0.67472   0.82069   0.76296   0.00000  Uiso   1.00
C1232  C     0.84744   0.98926   0.73542   0.00000  Uiso   1.00
C1233  C     0.81900   0.67827   0.76297   0.00000  Uiso   1.00
C1234  C     0.82253   0.72256   0.76037   0.00000  Uiso   1.00
C1235  C     0.84343   0.94454   0.74005   0.00000  Uiso   1.00
C1236  C     0.80591   0.91451   0.97874   0.00000  Uiso   1.00
C1237  C     0.85195   0.81457   0.62968   0.00000  Uiso   1.00
C1238  C     0.81457   0.85040   0.87087   0.00000  Uiso   1.00
C1239  C     0.87487   0.75982   0.51716   0.00000  Uiso   1.00
C1240  C     0.85738   0.80778   0.58206   0.00000  Uiso   1.00
C1241  C     0.79990   0.89970   0.93707   0.00000  Uiso   1.00
C1242  C     0.98452   0.78338   0.78625   0.00000  Uiso   1.00
C1243  C     0.87235   0.67595   0.65978   0.00000  Uiso   1.00
C1244  C     0.86141   0.72947   0.92515   0.00000  Uiso   1.00
C1245  C     0.86146   0.68486   0.51437   0.00000  Uiso   1.00
C1246  C     0.76203   0.83785   0.59575   0.00000  Uiso   1.00
C1247  C     0.82104   0.88968   0.50321   0.00000  Uiso   1.00
C1248  C     0.82598   0.84743   0.98871   0.00000  Uiso   1.00
C1249  C     0.82001   0.83245   0.94608   0.00000  Uiso   1.00
C1250  C     0.83914   0.82052   0.51430   0.00000  Uiso   1.00
C1251  C     0.85489   0.78252   0.99340   0.00000  Uiso   1.00
C1252  C     0.84765   0.76806   0.95087   0.00000  Uiso   1.00
C1253  C     0.82622   0.79105   0.93071   0.00000  Uiso   1.00
H1254  H     0.89302   0.75687   0.57813   0.00000  Uiso   1.00
H1255  H     0.89968   0.69359   0.63716   0.00000  Uiso   1.00
H1256  H     0.84364   0.69156   0.66324   0.00000  Uiso   1.00
H1257  H     0.86692   0.97692   0.64464   0.00000  Uiso   1.00
H1258  H     0.83785   0.70517   0.91582   0.00000  Uiso   1.00
H1259  H     0.92081   0.72024   0.50344   0.00000  Uiso   1.00
H1260  H     0.87454   0.98983   0.99631   0.00000  Uiso   1.00
H1261  H     0.82997   0.68588   0.50737   0.00000  Uiso   1.00
H1262  H     0.85717   0.68284   0.55070   0.00000  Uiso   1.00
H1263  H     0.81475   0.87298   0.61371   0.00000  Uiso   1.00
H1264  H     0.74141   0.86158   0.61368   0.00000  Uiso   1.00
H1265  H     0.79277   0.99738   0.78820   0.00000  Uiso   1.00
H1266  H     0.75704   0.81132   0.61697   0.00000  Uiso   1.00
H1267  H     0.75241   0.82665   0.56429   0.00000  Uiso   1.00
H1268  H     0.79108   0.92087   0.91745   0.00000  Uiso   1.00
H1269  H     0.83034   0.90489   0.53247   0.00000  Uiso   1.00
H1270  H     0.80095   0.94623   0.99110   0.00000  Uiso   1.00
H1271  H     0.81650   0.77668   0.90125   0.00000  Uiso   1.00
H1272  H     0.68082   0.86690   0.71810   0.00000  Uiso   1.00
H1273  H     0.98926   0.77844   0.81846   0.00000  Uiso   1.00
H1274  H     0.91036   0.99756   0.69966   0.00000  Uiso   1.00
N1275  N     0.88179   0.67537   0.70264   0.00000  Uiso   1.00
N1276  N     0.89066   0.72153   0.99946   0.00000  Uiso   1.00
N1277  N     0.80624   0.85641   0.58642   0.00000  Uiso   1.00
O1278  O     0.83333   0.83333   0.75000   0.00000  Uiso   1.00
O1279  O     0.82118   0.79304   0.65459   0.00000  Uiso   1.00
O1280  O     0.79607   0.87058   0.84968   0.00000  Uiso   1.00
O1281  O     0.87491   0.84425   0.64606   0.00000  Uiso   1.00
O1282  O     0.84118   0.82546   0.84968   0.00000  Uiso   1.00
O1283  O     0.96278   0.75639   0.76824   0.00000  Uiso   1.00
O1284  O     0.89928   0.72597   0.91141   0.00000  Uiso   1.00
O1285  O     0.84597   0.74686   0.78214   0.00000  Uiso   1.00
O1286  O     0.81298   0.92751   0.77014   0.00000  Uiso   1.00
O1287  O     0.74078   0.79958   0.73413   0.00000  Uiso   1.00
O1288  O     0.93360   0.85939   0.71361   0.00000  Uiso   1.00
O1289  O     0.73738   0.85544   0.78213   0.00000  Uiso   1.00
O1290  O     0.92158   0.81892   0.77014   0.00000  Uiso   1.00
O1291  O     0.80426   0.73610   0.73413   0.00000  Uiso   1.00
O1292  O     0.87012   0.92286   0.71361   0.00000  Uiso   1.00
Zn1293 Zn    0.86005   0.80661   0.78734   0.00000  Uiso   1.00
Zn1294 Zn    0.80046   0.79124   0.71876   0.00000  Uiso   1.00
Zn1295 Zn    0.87723   0.86442   0.70657   0.00000  Uiso   1.00
Zn1296 Zn    0.79560   0.87106   0.78734   0.00000  Uiso   1.00
loop_
_geom_bond_atom_site_label_1
_geom_bond_atom_site_label_2
_geom_bond_distance
_geom_bond_site_symmetry_2
_ccdc_geom_bond_type
C1     O63     1.263   .     A
C1     C7      1.432   .     S
C1     O65     1.277   .     A
C2     C16     1.398   .     A
C2     C26     1.416   .     A
C2     N53     1.430   .     S
C3     H30     1.085   .     S
C3     C15     1.393   .     A
C3     C16     1.387   .     A
C4     O64     1.290   .     A
C4     O66     1.272   .     A
C4     C6      1.457   .     S
C5     C14     1.473   .     S
C5     C25     1.421   .     A
C5     C17     1.402   .     A
C6     C79     1.351   .     S
C6     H120    1.088   .     S
C7     C150    1.351   1_455 S
C7     C162    1.487   1_455 S
C8     C11     1.459   .     S
C8     C225    1.338   .     S
C8     N267    1.428   .     S
C9     C10     1.436   .     S
C9     C440    1.338   1_545 S
C9     H473    1.086   1_545 S
C10    O67     1.276   .     A
C10    O61     1.277   .     A
C11    O62     1.282   .     A
C11    O68     1.276   .     A
C12    C17     1.384   .     A
C12    H46     1.081   .     S
C12    C671    1.388   .     S
C13    C16     1.443   .     S
C13    O57     1.272   .     A
C13    O55     1.268   .     A
C14    O56     1.286   .     A
C14    O58     1.286   .     A
C15    C675    1.426   1_554 S
C15    N700    1.421   1_554 S
C17    H44     1.083   .     S
C18    O59     1.222   .     D
C18    H49     1.085   .     S
C18    C79     1.487   .     S
C19    H31     1.110   .     S
C19    H32     1.110   .     S
C19    N51     1.447   .     S
C19    H465    1.112   1_545 S
C20    O60     1.221   .     D
C20    H34     1.085   .     S
C20    C28     1.478   .     S
C21    H38     1.112   .     S
C21    H37     1.111   .     S
C21    H1116   1.110   1_544 S
C21    N700    1.447   1_554 S
C22    H43     1.111   .     S
C22    H42     1.111   .     S
C22    N53     1.447   .     S
C22    H40     1.110   .     S
C23    H45     1.078   .     S
C23    C660    1.388   1_554 S
C23    C672    1.417   1_554 S
C24    C25     1.413   .     A
C24    C671    1.417   .     S
C24    C674    1.425   .     S
C25    C29     1.404   .     A
C26    C672    1.425   1_554 S
C26    C675    1.435   1_554 S
C27    C28     1.421   .     A
C27    C674    1.435   .     S
C27    C663    1.426   .     S
C28    C29     1.390   .     A
C29    H47     1.081   .     S
H33    C235    1.112   .     S
H35    N700    1.032   1_554 S
H36    C885    1.110   .     S
H39    N53     1.031   .     S
H41    C225    1.086   .     S
H48    C150    1.088   1_455 S
H50    N267    1.031   .     S
N51    H482    1.031   1_545 S
N51    C440    1.428   1_545 S
N52    C663    1.421   .     S
N52    H683    1.032   .     S
N52    C669    1.447   .     S
O54    Zn69    1.961   .     S
O54    Zn72    1.948   .     S
O54    Zn71    1.942   .     S
O54    Zn70    1.939   .     S
O55    Zn70    1.943   .     S
O56    Zn72    1.947   .     S
O57    Zn71    1.942   .     S
O58    Zn69    1.940   .     S
O61    Zn69    1.924   .     S
O62    Zn72    1.928   .     S
O63    Zn70    1.940   .     S
O64    Zn71    1.943   .     S
O65    Zn72    1.936   .     S
O66    Zn69    1.934   .     S
O67    Zn70    1.935   .     S
O68    Zn71    1.931   .     S
C73    O135    1.263   .     A
C73    C79     1.432   .     S
C73    O137    1.277   .     A
C74    C88     1.398   .     A
C74    C98     1.416   .     A
C74    N125    1.430   .     S
C75    H102    1.085   .     S
C75    C87     1.393   .     A
C75    C88     1.387   .     A
C76    O136    1.290   .     A
C76    O138    1.272   .     A
C76    C78     1.457   .     S
C77    C86     1.473   .     S
C77    C97     1.421   .     A
C77    C89     1.402   .     A
C78    C151    1.351   .     S
C78    H192    1.088   .     S
C80    C83     1.459   .     S
C80    C297    1.338   .     S
C80    N339    1.428   .     S
C81    C82     1.436   .     S
C81    C512    1.338   1_545 S
C81    H545    1.086   1_545 S
C82    O139    1.276   .     A
C82    O133    1.277   .     A
C83    O134    1.282   .     A
C83    O140    1.276   .     A
C84    C89     1.384   .     A
C84    H118    1.081   .     S
C84    C743    1.388   .     S
C85    C88     1.443   .     S
C85    O129    1.272   .     A
C85    O127    1.268   .     A
C86    O128    1.286   .     A
C86    O130    1.286   .     A
C87    C747    1.426   1_554 S
C87    N772    1.421   1_554 S
C89    H116    1.083   .     S
C90    O131    1.222   .     D
C90    H121    1.085   .     S
C90    C151    1.487   .     S
C91    H103    1.110   .     S
C91    H104    1.110   .     S
C91    N123    1.447   .     S
C91    H537    1.112   1_545 S
C92    O132    1.221   .     D
C92    H106    1.085   .     S
C92    C100    1.478   .     S
C93    H110    1.112   .     S
C93    H109    1.111   .     S
C93    H1188   1.110   1_544 S
C93    N772    1.447   1_554 S
C94    H115    1.111   .     S
C94    H114    1.111   .     S
C94    N125    1.447   .     S
C94    H112    1.110   .     S
C95    H117    1.078   .     S
C95    C732    1.388   1_554 S
C95    C744    1.417   1_554 S
C96    C97     1.413   .     A
C96    C743    1.417   .     S
C96    C746    1.425   .     S
C97    C101    1.404   .     A
C98    C744    1.425   1_554 S
C98    C747    1.435   1_554 S
C99    C100    1.421   .     A
C99    C746    1.435   .     S
C99    C735    1.426   .     S
C100   C101    1.390   .     A
C101   H119    1.081   .     S
H105   C307    1.112   .     S
H107   N772    1.032   1_554 S
H108   C957    1.110   .     S
H111   N125    1.031   .     S
H113   C297    1.086   .     S
H122   N339    1.031   .     S
N123   H554    1.031   1_545 S
N123   C512    1.428   1_545 S
N124   C735    1.421   .     S
N124   H755    1.032   .     S
N124   C741    1.447   .     S
O126   Zn141   1.961   .     S
O126   Zn144   1.948   .     S
O126   Zn143   1.942   .     S
O126   Zn142   1.939   .     S
O127   Zn142   1.943   .     S
O128   Zn144   1.947   .     S
O129   Zn143   1.942   .     S
O130   Zn141   1.940   .     S
O133   Zn141   1.924   .     S
O134   Zn144   1.928   .     S
O135   Zn142   1.940   .     S
O136   Zn143   1.943   .     S
O137   Zn144   1.936   .     S
O138   Zn141   1.934   .     S
O139   Zn142   1.935   .     S
O140   Zn143   1.931   .     S
C145   O207    1.263   .     A
C145   C151    1.432   .     S
C145   O209    1.277   .     A
C146   C160    1.398   .     A
C146   C170    1.416   .     A
C146   N197    1.430   .     S
C147   H174    1.085   .     S
C147   C159    1.393   .     A
C147   C160    1.387   .     A
C148   O208    1.290   .     A
C148   O210    1.272   .     A
C148   C150    1.457   .     S
C149   C158    1.473   .     S
C149   C169    1.421   .     A
C149   C161    1.402   .     A
C150   C7      1.351   1_655 S
C150   H48     1.088   1_655 S
C152   C155    1.459   .     S
C152   C369    1.338   .     S
C152   N411    1.428   .     S
C153   C154    1.436   .     S
C153   C584    1.338   1_545 S
C153   H617    1.086   1_545 S
C154   O211    1.276   .     A
C154   O205    1.277   .     A
C155   O206    1.282   .     A
C155   O212    1.276   .     A
C156   C161    1.384   .     A
C156   H190    1.081   .     S
C156   C815    1.388   .     S
C157   C160    1.443   .     S
C157   O201    1.272   .     A
C157   O199    1.268   .     A
C158   O200    1.286   .     A
C158   O202    1.286   .     A
C159   C819    1.426   1_554 S
C159   N844    1.421   1_554 S
C161   H188    1.083   .     S
C162   O203    1.222   .     D
C162   H193    1.085   .     S
C162   C7      1.487   1_655 S
C163   H175    1.110   .     S
C163   H176    1.110   .     S
C163   N195    1.447   .     S
C163   H609    1.112   1_545 S
C164   O204    1.221   .     D
C164   H178    1.085   .     S
C164   C172    1.478   .     S
C165   H182    1.112   .     S
C165   H181    1.111   .     S
C165   H1260   1.110   1_544 S
C165   N844    1.447   1_554 S
C166   H187    1.111   .     S
C166   H186    1.111   .     S
C166   N197    1.447   .     S
C166   H184    1.110   .     S
C167   H189    1.078   .     S
C167   C804    1.388   1_554 S
C167   C816    1.417   1_554 S
C168   C169    1.413   .     A
C168   C815    1.417   .     S
C168   C818    1.425   .     S
C169   C173    1.404   .     A
C170   C816    1.425   1_554 S
C170   C819    1.435   1_554 S
C171   C172    1.421   .     A
C171   C818    1.435   .     S
C171   C807    1.426   .     S
C172   C173    1.390   .     A
C173   H191    1.081   .     S
H177   C379    1.112   .     S
H179   N844    1.032   1_554 S
H180   C1029   1.110   .     S
H183   N197    1.031   .     S
H185   C369    1.086   .     S
H194   N411    1.031   .     S
N195   H626    1.031   1_545 S
N195   C584    1.428   1_545 S
N196   C807    1.421   .     S
N196   H827    1.032   .     S
N196   C813    1.447   .     S
O198   Zn213   1.961   .     S
O198   Zn216   1.948   .     S
O198   Zn215   1.942   .     S
O198   Zn214   1.939   .     S
O199   Zn214   1.943   .     S
O200   Zn216   1.947   .     S
O201   Zn215   1.942   .     S
O202   Zn213   1.940   .     S
O205   Zn213   1.924   .     S
O206   Zn216   1.928   .     S
O207   Zn214   1.940   .     S
O208   Zn215   1.943   .     S
O209   Zn216   1.936   .     S
O210   Zn213   1.934   .     S
O211   Zn214   1.935   .     S
O212   Zn215   1.931   .     S
C217   O279    1.263   .     A
C217   C223    1.432   .     S
C217   O281    1.277   .     A
C218   C232    1.398   .     A
C218   C242    1.416   .     A
C218   N269    1.430   .     S
C219   H246    1.085   .     S
C219   C231    1.393   .     A
C219   C232    1.387   .     A
C220   O280    1.290   .     A
C220   O282    1.272   .     A
C220   C222    1.457   .     S
C221   C230    1.473   .     S
C221   C241    1.421   .     A
C221   C233    1.402   .     A
C222   C295    1.351   .     S
C222   H336    1.088   .     S
C223   C366    1.351   1_455 S
C223   C378    1.487   1_455 S
C224   C227    1.459   .     S
C224   C441    1.338   .     S
C224   N483    1.428   .     S
C225   C226    1.436   .     S
C226   O283    1.276   .     A
C226   O277    1.277   .     A
C227   O278    1.282   .     A
C227   O284    1.276   .     A
C228   C233    1.384   .     A
C228   H262    1.081   .     S
C228   C887    1.388   .     S
C229   C232    1.443   .     S
C229   O273    1.272   .     A
C229   O271    1.268   .     A
C230   O272    1.286   .     A
C230   O274    1.286   .     A
C231   C891    1.426   1_554 S
C231   N916    1.421   1_554 S
C233   H260    1.083   .     S
C234   O275    1.222   .     D
C234   H265    1.085   .     S
C234   C295    1.487   .     S
C235   H247    1.110   .     S
C235   H248    1.110   .     S
C235   N267    1.447   .     S
C236   O276    1.221   .     D
C236   H250    1.085   .     S
C236   C244    1.478   .     S
C237   H254    1.112   .     S
C237   H253    1.111   .     S
C237   H684    1.110   1_554 S
C237   N916    1.447   1_554 S
C238   H259    1.111   .     S
C238   H258    1.111   .     S
C238   N269    1.447   .     S
C238   H256    1.110   .     S
C239   H261    1.078   .     S
C239   C876    1.388   1_554 S
C239   C888    1.417   1_554 S
C240   C241    1.413   .     A
C240   C887    1.417   .     S
C240   C890    1.425   .     S
C241   C245    1.404   .     A
C242   C888    1.425   1_554 S
C242   C891    1.435   1_554 S
C243   C244    1.421   .     A
C243   C890    1.435   .     S
C243   C879    1.426   .     S
C244   C245    1.390   .     A
C245   H263    1.081   .     S
H249   C451    1.112   .     S
H251   N916    1.032   1_554 S
H252   C1101   1.110   .     S
H255   N269    1.031   .     S
H257   C441    1.086   .     S
H264   C366    1.088   1_455 S
H266   N483    1.031   .     S
N268   C879    1.421   .     S
N268   H899    1.032   .     S
N268   C885    1.447   .     S
O270   Zn285   1.961   .     S
O270   Zn288   1.948   .     S
O270   Zn287   1.942   .     S
O270   Zn286   1.939   .     S
O271   Zn286   1.943   .     S
O272   Zn288   1.947   .     S
O273   Zn287   1.942   .     S
O274   Zn285   1.940   .     S
O277   Zn285   1.924   .     S
O278   Zn288   1.928   .     S
O279   Zn286   1.940   .     S
O280   Zn287   1.943   .     S
O281   Zn288   1.936   .     S
O282   Zn285   1.934   .     S
O283   Zn286   1.935   .     S
O284   Zn287   1.931   .     S
C289   O351    1.263   .     A
C289   C295    1.432   .     S
C289   O353    1.277   .     A
C290   C304    1.398   .     A
C290   C314    1.416   .     A
C290   N341    1.430   .     S
C291   H318    1.085   .     S
C291   C303    1.393   .     A
C291   C304    1.387   .     A
C292   O352    1.290   .     A
C292   O354    1.272   .     A
C292   C294    1.457   .     S
C293   C302    1.473   .     S
C293   C313    1.421   .     A
C293   C305    1.402   .     A
C294   C367    1.351   .     S
C294   H408    1.088   .     S
C296   C299    1.459   .     S
C296   C513    1.338   .     S
C296   N555    1.428   .     S
C297   C298    1.436   .     S
C298   O355    1.276   .     A
C298   O349    1.277   .     A
C299   O350    1.282   .     A
C299   O356    1.276   .     A
C300   C305    1.384   .     A
C300   H334    1.081   .     S
C300   C959    1.388   .     S
C301   C304    1.443   .     S
C301   O345    1.272   .     A
C301   O343    1.268   .     A
C302   O344    1.286   .     A
C302   O346    1.286   .     A
C303   C963    1.426   1_554 S
C303   N988    1.421   1_554 S
C305   H332    1.083   .     S
C306   O347    1.222   .     D
C306   H337    1.085   .     S
C306   C367    1.487   .     S
C307   H319    1.110   .     S
C307   H320    1.110   .     S
C307   N339    1.447   .     S
C308   O348    1.221   .     D
C308   H322    1.085   .     S
C308   C316    1.478   .     S
C309   H326    1.112   .     S
C309   H325    1.111   .     S
C309   H756    1.110   1_554 S
C309   N988    1.447   1_554 S
C310   H331    1.111   .     S
C310   H330    1.111   .     S
C310   N341    1.447   .     S
C310   H328    1.110   .     S
C311   H333    1.078   .     S
C311   C948    1.388   1_554 S
C311   C960    1.417   1_554 S
C312   C313    1.413   .     A
C312   C959    1.417   .     S
C312   C962    1.425   .     S
C313   C317    1.404   .     A
C314   C960    1.425   1_554 S
C314   C963    1.435   1_554 S
C315   C316    1.421   .     A
C315   C962    1.435   .     S
C315   C951    1.426   .     S
C316   C317    1.390   .     A
C317   H335    1.081   .     S
H321   C523    1.112   .     S
H323   N988    1.032   1_554 S
H324   C1173   1.110   .     S
H327   N341    1.031   .     S
H329   C513    1.086   .     S
H338   N555    1.031   .     S
N340   C951    1.421   .     S
N340   H971    1.032   .     S
N340   C957    1.447   .     S
O342   Zn357   1.961   .     S
O342   Zn360   1.948   .     S
O342   Zn359   1.942   .     S
O342   Zn358   1.939   .     S
O343   Zn358   1.943   .     S
O344   Zn360   1.947   .     S
O345   Zn359   1.942   .     S
O346   Zn357   1.940   .     S
O349   Zn357   1.924   .     S
O350   Zn360   1.928   .     S
O351   Zn358   1.940   .     S
O352   Zn359   1.943   .     S
O353   Zn360   1.936   .     S
O354   Zn357   1.934   .     S
O355   Zn358   1.935   .     S
O356   Zn359   1.931   .     S
C361   O423    1.263   .     A
C361   C367    1.432   .     S
C361   O425    1.277   .     A
C362   C376    1.398   .     A
C362   C386    1.416   .     A
C362   N413    1.430   .     S
C363   H390    1.085   .     S
C363   C375    1.393   .     A
C363   C376    1.387   .     A
C364   O424    1.290   .     A
C364   O426    1.272   .     A
C364   C366    1.457   .     S
C365   C374    1.473   .     S
C365   C385    1.421   .     A
C365   C377    1.402   .     A
C366   C223    1.351   1_655 S
C366   H264    1.088   1_655 S
C368   C371    1.459   .     S
C368   C585    1.338   .     S
C368   N627    1.428   .     S
C369   C370    1.436   .     S
C370   O427    1.276   .     A
C370   O421    1.277   .     A
C371   O422    1.282   .     A
C371   O428    1.276   .     A
C372   C377    1.384   .     A
C372   H406    1.081   .     S
C372   C1031   1.388   .     S
C373   C376    1.443   .     S
C373   O417    1.272   .     A
C373   O415    1.268   .     A
C374   O416    1.286   .     A
C374   O418    1.286   .     A
C375   C1035   1.426   1_554 S
C375   N1060   1.421   1_554 S
C377   H404    1.083   .     S
C378   O419    1.222   .     D
C378   H409    1.085   .     S
C378   C223    1.487   1_655 S
C379   H391    1.110   .     S
C379   H392    1.110   .     S
C379   N411    1.447   .     S
C380   O420    1.221   .     D
C380   H394    1.085   .     S
C380   C388    1.478   .     S
C381   H398    1.112   .     S
C381   H397    1.111   .     S
C381   H828    1.110   1_554 S
C381   N1060   1.447   1_554 S
C382   H403    1.111   .     S
C382   H402    1.111   .     S
C382   N413    1.447   .     S
C382   H400    1.110   .     S
C383   H405    1.078   .     S
C383   C1020   1.388   1_554 S
C383   C1032   1.417   1_554 S
C384   C385    1.413   .     A
C384   C1031   1.417   .     S
C384   C1034   1.425   .     S
C385   C389    1.404   .     A
C386   C1032   1.425   1_554 S
C386   C1035   1.435   1_554 S
C387   C388    1.421   .     A
C387   C1034   1.435   .     S
C387   C1023   1.426   .     S
C388   C389    1.390   .     A
C389   H407    1.081   .     S
H393   C595    1.112   .     S
H395   N1060   1.032   1_554 S
H396   C1245   1.110   .     S
H399   N413    1.031   .     S
H401   C585    1.086   .     S
H410   N627    1.031   .     S
N412   C1023   1.421   .     S
N412   H1043   1.032   .     S
N412   C1029   1.447   .     S
O414   Zn429   1.961   .     S
O414   Zn432   1.948   .     S
O414   Zn431   1.942   .     S
O414   Zn430   1.939   .     S
O415   Zn430   1.943   .     S
O416   Zn432   1.947   .     S
O417   Zn431   1.942   .     S
O418   Zn429   1.940   .     S
O421   Zn429   1.924   .     S
O422   Zn432   1.928   .     S
O423   Zn430   1.940   .     S
O424   Zn431   1.943   .     S
O425   Zn432   1.936   .     S
O426   Zn429   1.934   .     S
O427   Zn430   1.935   .     S
O428   Zn431   1.931   .     S
C433   O495    1.263   .     A
C433   C439    1.432   .     S
C433   O497    1.277   .     A
C434   C448    1.398   .     A
C434   C458    1.416   .     A
C434   N485    1.430   .     S
C435   H462    1.085   .     S
C435   C447    1.393   .     A
C435   C448    1.387   .     A
C436   O496    1.290   .     A
C436   O498    1.272   .     A
C436   C438    1.457   .     S
C437   C446    1.473   .     S
C437   C457    1.421   .     A
C437   C449    1.402   .     A
C438   C511    1.351   .     S
C438   H552    1.088   .     S
C439   C582    1.351   1_455 S
C439   C594    1.487   1_455 S
C440   C443    1.459   .     S
C440   C9      1.338   1_565 S
C440   N51     1.428   1_565 S
C441   C442    1.436   .     S
C442   O499    1.276   .     A
C442   O493    1.277   .     A
C443   O494    1.282   .     A
C443   O500    1.276   .     A
C444   C449    1.384   .     A
C444   H478    1.081   .     S
C444   C1103   1.388   .     S
C445   C448    1.443   .     S
C445   O489    1.272   .     A
C445   O487    1.268   .     A
C446   O488    1.286   .     A
C446   O490    1.286   .     A
C447   C1107   1.426   1_554 S
C447   N1132   1.421   1_554 S
C449   H476    1.083   .     S
C450   O491    1.222   .     D
C450   H481    1.085   .     S
C450   C511    1.487   .     S
C451   H463    1.110   .     S
C451   H464    1.110   .     S
C451   N483    1.447   .     S
C452   O492    1.221   .     D
C452   H466    1.085   .     S
C452   C460    1.478   .     S
C453   H470    1.112   .     S
C453   H469    1.111   .     S
C453   H900    1.110   1_554 S
C453   N1132   1.447   1_554 S
C454   H475    1.111   .     S
C454   H474    1.111   .     S
C454   N485    1.447   .     S
C454   H472    1.110   .     S
C455   H477    1.078   .     S
C455   C1092   1.388   1_554 S
C455   C1104   1.417   1_554 S
C456   C457    1.413   .     A
C456   C1103   1.417   .     S
C456   C1106   1.425   .     S
C457   C461    1.404   .     A
C458   C1104   1.425   1_554 S
C458   C1107   1.435   1_554 S
C459   C460    1.421   .     A
C459   C1106   1.435   .     S
C459   C1095   1.426   .     S
C460   C461    1.390   .     A
C461   H479    1.081   .     S
H465   C19     1.112   1_565 S
H467   N1132   1.032   1_554 S
H468   C669    1.110   1_565 S
H471   N485    1.031   .     S
H473   C9      1.086   1_565 S
H480   C582    1.088   1_455 S
H482   N51     1.031   1_565 S
N484   C1095   1.421   .     S
N484   H1115   1.032   .     S
N484   C1101   1.447   .     S
O486   Zn501   1.961   .     S
O486   Zn504   1.948   .     S
O486   Zn503   1.942   .     S
O486   Zn502   1.939   .     S
O487   Zn502   1.943   .     S
O488   Zn504   1.947   .     S
O489   Zn503   1.942   .     S
O490   Zn501   1.940   .     S
O493   Zn501   1.924   .     S
O494   Zn504   1.928   .     S
O495   Zn502   1.940   .     S
O496   Zn503   1.943   .     S
O497   Zn504   1.936   .     S
O498   Zn501   1.934   .     S
O499   Zn502   1.935   .     S
O500   Zn503   1.931   .     S
C505   O567    1.263   .     A
C505   C511    1.432   .     S
C505   O569    1.277   .     A
C506   C520    1.398   .     A
C506   C530    1.416   .     A
C506   N557    1.430   .     S
C507   H534    1.085   .     S
C507   C519    1.393   .     A
C507   C520    1.387   .     A
C508   O568    1.290   .     A
C508   O570    1.272   .     A
C508   C510    1.457   .     S
C509   C518    1.473   .     S
C509   C529    1.421   .     A
C509   C521    1.402   .     A
C510   C583    1.351   .     S
C510   H624    1.088   .     S
C512   C515    1.459   .     S
C512   C81     1.338   1_565 S
C512   N123    1.428   1_565 S
C513   C514    1.436   .     S
C514   O571    1.276   .     A
C514   O565    1.277   .     A
C515   O566    1.282   .     A
C515   O572    1.276   .     A
C516   C521    1.384   .     A
C516   H550    1.081   .     S
C516   C1175   1.388   .     S
C517   C520    1.443   .     S
C517   O561    1.272   .     A
C517   O559    1.268   .     A
C518   O560    1.286   .     A
C518   O562    1.286   .     A
C519   C1179   1.426   1_554 S
C519   N1204   1.421   1_554 S
C521   H548    1.083   .     S
C522   O563    1.222   .     D
C522   H553    1.085   .     S
C522   C583    1.487   .     S
C523   H535    1.110   .     S
C523   H536    1.110   .     S
C523   N555    1.447   .     S
C524   O564    1.221   .     D
C524   H538    1.085   .     S
C524   C532    1.478   .     S
C525   H542    1.112   .     S
C525   H541    1.111   .     S
C525   H972    1.110   1_554 S
C525   N1204   1.447   1_554 S
C526   H547    1.111   .     S
C526   H546    1.111   .     S
C526   N557    1.447   .     S
C526   H544    1.110   .     S
C527   H549    1.078   .     S
C527   C1164   1.388   1_554 S
C527   C1176   1.417   1_554 S
C528   C529    1.413   .     A
C528   C1175   1.417   .     S
C528   C1178   1.425   .     S
C529   C533    1.404   .     A
C530   C1176   1.425   1_554 S
C530   C1179   1.435   1_554 S
C531   C532    1.421   .     A
C531   C1178   1.435   .     S
C531   C1167   1.426   .     S
C532   C533    1.390   .     A
C533   H551    1.081   .     S
H537   C91     1.112   1_565 S
H539   N1204   1.032   1_554 S
H540   C741    1.110   1_565 S
H543   N557    1.031   .     S
H545   C81     1.086   1_565 S
H554   N123    1.031   1_565 S
N556   C1167   1.421   .     S
N556   H1187   1.032   .     S
N556   C1173   1.447   .     S
O558   Zn573   1.961   .     S
O558   Zn576   1.948   .     S
O558   Zn575   1.942   .     S
O558   Zn574   1.939   .     S
O559   Zn574   1.943   .     S
O560   Zn576   1.947   .     S
O561   Zn575   1.942   .     S
O562   Zn573   1.940   .     S
O565   Zn573   1.924   .     S
O566   Zn576   1.928   .     S
O567   Zn574   1.940   .     S
O568   Zn575   1.943   .     S
O569   Zn576   1.936   .     S
O570   Zn573   1.934   .     S
O571   Zn574   1.935   .     S
O572   Zn575   1.931   .     S
C577   O639    1.263   .     A
C577   C583    1.432   .     S
C577   O641    1.277   .     A
C578   C592    1.398   .     A
C578   C602    1.416   .     A
C578   N629    1.430   .     S
C579   H606    1.085   .     S
C579   C591    1.393   .     A
C579   C592    1.387   .     A
C580   O640    1.290   .     A
C580   O642    1.272   .     A
C580   C582    1.457   .     S
C581   C590    1.473   .     S
C581   C601    1.421   .     A
C581   C593    1.402   .     A
C582   C439    1.351   1_655 S
C582   H480    1.088   1_655 S
C584   C587    1.459   .     S
C584   C153    1.338   1_565 S
C584   N195    1.428   1_565 S
C585   C586    1.436   .     S
C586   O643    1.276   .     A
C586   O637    1.277   .     A
C587   O638    1.282   .     A
C587   O644    1.276   .     A
C588   C593    1.384   .     A
C588   H622    1.081   .     S
C588   C1247   1.388   .     S
C589   C592    1.443   .     S
C589   O633    1.272   .     A
C589   O631    1.268   .     A
C590   O632    1.286   .     A
C590   O634    1.286   .     A
C591   C1251   1.426   1_554 S
C591   N1276   1.421   1_554 S
C593   H620    1.083   .     S
C594   O635    1.222   .     D
C594   H625    1.085   .     S
C594   C439    1.487   1_655 S
C595   H607    1.110   .     S
C595   H608    1.110   .     S
C595   N627    1.447   .     S
C596   O636    1.221   .     D
C596   H610    1.085   .     S
C596   C604    1.478   .     S
C597   H614    1.112   .     S
C597   H613    1.111   .     S
C597   H1044   1.110   1_554 S
C597   N1276   1.447   1_554 S
C598   H619    1.111   .     S
C598   H618    1.111   .     S
C598   N629    1.447   .     S
C598   H616    1.110   .     S
C599   H621    1.078   .     S
C599   C1236   1.388   1_554 S
C599   C1248   1.417   1_554 S
C600   C601    1.413   .     A
C600   C1247   1.417   .     S
C600   C1250   1.425   .     S
C601   C605    1.404   .     A
C602   C1248   1.425   1_554 S
C602   C1251   1.435   1_554 S
C603   C604    1.421   .     A
C603   C1250   1.435   .     S
C603   C1239   1.426   .     S
C604   C605    1.390   .     A
C605   H623    1.081   .     S
H609   C163    1.112   1_565 S
H611   N1276   1.032   1_554 S
H612   C813    1.110   1_565 S
H615   N629    1.031   .     S
H617   C153    1.086   1_565 S
H626   N195    1.031   1_565 S
N628   C1239   1.421   .     S
N628   H1259   1.032   .     S
N628   C1245   1.447   .     S
O630   Zn645   1.961   .     S
O630   Zn648   1.948   .     S
O630   Zn647   1.942   .     S
O630   Zn646   1.939   .     S
O631   Zn646   1.943   .     S
O632   Zn648   1.947   .     S
O633   Zn647   1.942   .     S
O634   Zn645   1.940   .     S
O637   Zn645   1.924   .     S
O638   Zn648   1.928   .     S
O639   Zn646   1.940   .     S
O640   Zn647   1.943   .     S
O641   Zn648   1.936   .     S
O642   Zn645   1.934   .     S
O643   Zn646   1.935   .     S
O644   Zn647   1.931   .     S
C649   O711    1.263   .     A
C649   C655    1.432   .     S
C649   O713    1.277   .     A
C650   C664    1.398   .     A
C650   C674    1.416   .     A
C650   N701    1.430   .     S
C651   H678    1.085   .     S
C651   C663    1.393   .     A
C651   C664    1.387   .     A
C652   O712    1.290   .     A
C652   O714    1.272   .     A
C652   C654    1.457   .     S
C653   C662    1.473   .     S
C653   C673    1.421   .     A
C653   C665    1.402   .     A
C654   C727    1.351   .     S
C654   H768    1.088   .     S
C655   C798    1.351   1_455 S
C655   C810    1.487   1_455 S
C656   C659    1.459   .     S
C656   C873    1.338   .     S
C656   N915    1.428   .     S
C657   C658    1.436   .     S
C657   C1088   1.338   1_545 S
C657   H1121   1.086   1_545 S
C658   O715    1.276   .     A
C658   O709    1.277   .     A
C659   O710    1.282   .     A
C659   O716    1.276   .     A
C660   C665    1.384   .     A
C660   H694    1.081   .     S
C660   C23     1.388   1_556 S
C661   C664    1.443   .     S
C661   O705    1.272   .     A
C661   O703    1.268   .     A
C662   O704    1.286   .     A
C662   O706    1.286   .     A
C665   H692    1.083   .     S
C666   O707    1.222   .     D
C666   H697    1.085   .     S
C666   C727    1.487   .     S
C667   H679    1.110   .     S
C667   H680    1.110   .     S
C667   N699    1.447   .     S
C667   H1113   1.112   1_545 S
C668   O708    1.221   .     D
C668   H682    1.085   .     S
C668   C676    1.478   .     S
C669   H686    1.112   .     S
C669   H685    1.111   .     S
C669   H468    1.110   1_545 S
C670   H691    1.111   .     S
C670   H690    1.111   .     S
C670   N701    1.447   .     S
C670   H688    1.110   .     S
C671   H693    1.078   .     S
C672   C673    1.413   .     A
C672   C23     1.417   1_556 S
C672   C26     1.425   1_556 S
C673   C677    1.404   .     A
C675   C676    1.421   .     A
C675   C26     1.435   1_556 S
C675   C15     1.426   1_556 S
C676   C677    1.390   .     A
C677   H695    1.081   .     S
H681   C883    1.112   .     S
H684   C237    1.110   1_556 S
H687   N701    1.031   .     S
H689   C873    1.086   .     S
H696   C798    1.088   1_455 S
H698   N915    1.031   .     S
N699   H1130   1.031   1_545 S
N699   C1088   1.428   1_545 S
N700   C15     1.421   1_556 S
N700   H35     1.032   1_556 S
N700   C21     1.447   1_556 S
O702   Zn717   1.961   .     S
O702   Zn720   1.948   .     S
O702   Zn719   1.942   .     S
O702   Zn718   1.939   .     S
O703   Zn718   1.943   .     S
O704   Zn720   1.947   .     S
O705   Zn719   1.942   .     S
O706   Zn717   1.940   .     S
O709   Zn717   1.924   .     S
O710   Zn720   1.928   .     S
O711   Zn718   1.940   .     S
O712   Zn719   1.943   .     S
O713   Zn720   1.936   .     S
O714   Zn717   1.934   .     S
O715   Zn718   1.935   .     S
O716   Zn719   1.931   .     S
C721   O783    1.263   .     A
C721   C727    1.432   .     S
C721   O785    1.277   .     A
C722   C736    1.398   .     A
C722   C746    1.416   .     A
C722   N773    1.430   .     S
C723   H750    1.085   .     S
C723   C735    1.393   .     A
C723   C736    1.387   .     A
C724   O784    1.290   .     A
C724   O786    1.272   .     A
C724   C726    1.457   .     S
C725   C734    1.473   .     S
C725   C745    1.421   .     A
C725   C737    1.402   .     A
C726   C799    1.351   .     S
C726   H840    1.088   .     S
C728   C731    1.459   .     S
C728   C945    1.338   .     S
C728   N987    1.428   .     S
C729   C730    1.436   .     S
C729   C1160   1.338   1_545 S
C729   H1193   1.086   1_545 S
C730   O787    1.276   .     A
C730   O781    1.277   .     A
C731   O782    1.282   .     A
C731   O788    1.276   .     A
C732   C737    1.384   .     A
C732   H766    1.081   .     S
C732   C95     1.388   1_556 S
C733   C736    1.443   .     S
C733   O777    1.272   .     A
C733   O775    1.268   .     A
C734   O776    1.286   .     A
C734   O778    1.286   .     A
C737   H764    1.083   .     S
C738   O779    1.222   .     D
C738   H769    1.085   .     S
C738   C799    1.487   .     S
C739   H751    1.110   .     S
C739   H752    1.110   .     S
C739   N771    1.447   .     S
C739   H1185   1.112   1_545 S
C740   O780    1.221   .     D
C740   H754    1.085   .     S
C740   C748    1.478   .     S
C741   H758    1.112   .     S
C741   H757    1.111   .     S
C741   H540    1.110   1_545 S
C742   H763    1.111   .     S
C742   H762    1.111   .     S
C742   N773    1.447   .     S
C742   H760    1.110   .     S
C743   H765    1.078   .     S
C744   C745    1.413   .     A
C744   C95     1.417   1_556 S
C744   C98     1.425   1_556 S
C745   C749    1.404   .     A
C747   C748    1.421   .     A
C747   C98     1.435   1_556 S
C747   C87     1.426   1_556 S
C748   C749    1.390   .     A
C749   H767    1.081   .     S
H753   C955    1.112   .     S
H756   C309    1.110   1_556 S
H759   N773    1.031   .     S
H761   C945    1.086   .     S
H770   N987    1.031   .     S
N771   H1202   1.031   1_545 S
N771   C1160   1.428   1_545 S
N772   C87     1.421   1_556 S
N772   H107    1.032   1_556 S
N772   C93     1.447   1_556 S
O774   Zn789   1.961   .     S
O774   Zn792   1.948   .     S
O774   Zn791   1.942   .     S
O774   Zn790   1.939   .     S
O775   Zn790   1.943   .     S
O776   Zn792   1.947   .     S
O777   Zn791   1.942   .     S
O778   Zn789   1.940   .     S
O781   Zn789   1.924   .     S
O782   Zn792   1.928   .     S
O783   Zn790   1.940   .     S
O784   Zn791   1.943   .     S
O785   Zn792   1.936   .     S
O786   Zn789   1.934   .     S
O787   Zn790   1.935   .     S
O788   Zn791   1.931   .     S
C793   O855    1.263   .     A
C793   C799    1.432   .     S
C793   O857    1.277   .     A
C794   C808    1.398   .     A
C794   C818    1.416   .     A
C794   N845    1.430   .     S
C795   H822    1.085   .     S
C795   C807    1.393   .     A
C795   C808    1.387   .     A
C796   O856    1.290   .     A
C796   O858    1.272   .     A
C796   C798    1.457   .     S
C797   C806    1.473   .     S
C797   C817    1.421   .     A
C797   C809    1.402   .     A
C798   C655    1.351   1_655 S
C798   H696    1.088   1_655 S
C800   C803    1.459   .     S
C800   C1017   1.338   .     S
C800   N1059   1.428   .     S
C801   C802    1.436   .     S
C801   C1232   1.338   1_545 S
C801   H1265   1.086   1_545 S
C802   O859    1.276   .     A
C802   O853    1.277   .     A
C803   O854    1.282   .     A
C803   O860    1.276   .     A
C804   C809    1.384   .     A
C804   H838    1.081   .     S
C804   C167    1.388   1_556 S
C805   C808    1.443   .     S
C805   O849    1.272   .     A
C805   O847    1.268   .     A
C806   O848    1.286   .     A
C806   O850    1.286   .     A
C809   H836    1.083   .     S
C810   O851    1.222   .     D
C810   H841    1.085   .     S
C810   C655    1.487   1_655 S
C811   H823    1.110   .     S
C811   H824    1.110   .     S
C811   N843    1.447   .     S
C811   H1257   1.112   1_545 S
C812   O852    1.221   .     D
C812   H826    1.085   .     S
C812   C820    1.478   .     S
C813   H830    1.112   .     S
C813   H829    1.111   .     S
C813   H612    1.110   1_545 S
C814   H835    1.111   .     S
C814   H834    1.111   .     S
C814   N845    1.447   .     S
C814   H832    1.110   .     S
C815   H837    1.078   .     S
C816   C817    1.413   .     A
C816   C167    1.417   1_556 S
C816   C170    1.425   1_556 S
C817   C821    1.404   .     A
C819   C820    1.421   .     A
C819   C170    1.435   1_556 S
C819   C159    1.426   1_556 S
C820   C821    1.390   .     A
C821   H839    1.081   .     S
H825   C1027   1.112   .     S
H828   C381    1.110   1_556 S
H831   N845    1.031   .     S
H833   C1017   1.086   .     S
H842   N1059   1.031   .     S
N843   H1274   1.031   1_545 S
N843   C1232   1.428   1_545 S
N844   C159    1.421   1_556 S
N844   H179    1.032   1_556 S
N844   C165    1.447   1_556 S
O846   Zn861   1.961   .     S
O846   Zn864   1.948   .     S
O846   Zn863   1.942   .     S
O846   Zn862   1.939   .     S
O847   Zn862   1.943   .     S
O848   Zn864   1.947   .     S
O849   Zn863   1.942   .     S
O850   Zn861   1.940   .     S
O853   Zn861   1.924   .     S
O854   Zn864   1.928   .     S
O855   Zn862   1.940   .     S
O856   Zn863   1.943   .     S
O857   Zn864   1.936   .     S
O858   Zn861   1.934   .     S
O859   Zn862   1.935   .     S
O860   Zn863   1.931   .     S
C865   O927    1.263   .     A
C865   C871    1.432   .     S
C865   O929    1.277   .     A
C866   C880    1.398   .     A
C866   C890    1.416   .     A
C866   N917    1.430   .     S
C867   H894    1.085   .     S
C867   C879    1.393   .     A
C867   C880    1.387   .     A
C868   O928    1.290   .     A
C868   O930    1.272   .     A
C868   C870    1.457   .     S
C869   C878    1.473   .     S
C869   C889    1.421   .     A
C869   C881    1.402   .     A
C870   C943    1.351   .     S
C870   H984    1.088   .     S
C871   C1014   1.351   1_455 S
C871   C1026   1.487   1_455 S
C872   C875    1.459   .     S
C872   C1089   1.338   .     S
C872   N1131   1.428   .     S
C873   C874    1.436   .     S
C874   O931    1.276   .     A
C874   O925    1.277   .     A
C875   O926    1.282   .     A
C875   O932    1.276   .     A
C876   C881    1.384   .     A
C876   H910    1.081   .     S
C876   C239    1.388   1_556 S
C877   C880    1.443   .     S
C877   O921    1.272   .     A
C877   O919    1.268   .     A
C878   O920    1.286   .     A
C878   O922    1.286   .     A
C881   H908    1.083   .     S
C882   O923    1.222   .     D
C882   H913    1.085   .     S
C882   C943    1.487   .     S
C883   H895    1.110   .     S
C883   H896    1.110   .     S
C883   N915    1.447   .     S
C884   O924    1.221   .     D
C884   H898    1.085   .     S
C884   C892    1.478   .     S
C885   H902    1.112   .     S
C885   H901    1.111   .     S
C886   H907    1.111   .     S
C886   H906    1.111   .     S
C886   N917    1.447   .     S
C886   H904    1.110   .     S
C887   H909    1.078   .     S
C888   C889    1.413   .     A
C888   C239    1.417   1_556 S
C888   C242    1.425   1_556 S
C889   C893    1.404   .     A
C891   C892    1.421   .     A
C891   C242    1.435   1_556 S
C891   C231    1.426   1_556 S
C892   C893    1.390   .     A
C893   H911    1.081   .     S
H897   C1099   1.112   .     S
H900   C453    1.110   1_556 S
H903   N917    1.031   .     S
H905   C1089   1.086   .     S
H912   C1014   1.088   1_455 S
H914   N1131   1.031   .     S
N916   C231    1.421   1_556 S
N916   H251    1.032   1_556 S
N916   C237    1.447   1_556 S
O918   Zn933   1.961   .     S
O918   Zn936   1.948   .     S
O918   Zn935   1.942   .     S
O918   Zn934   1.939   .     S
O919   Zn934   1.943   .     S
O920   Zn936   1.947   .     S
O921   Zn935   1.942   .     S
O922   Zn933   1.940   .     S
O925   Zn933   1.924   .     S
O926   Zn936   1.928   .     S
O927   Zn934   1.940   .     S
O928   Zn935   1.943   .     S
O929   Zn936   1.936   .     S
O930   Zn933   1.934   .     S
O931   Zn934   1.935   .     S
O932   Zn935   1.931   .     S
C937   O999    1.263   .     A
C937   C943    1.432   .     S
C937   O1001   1.277   .     A
C938   C952    1.398   .     A
C938   C962    1.416   .     A
C938   N989    1.430   .     S
C939   H966    1.085   .     S
C939   C951    1.393   .     A
C939   C952    1.387   .     A
C940   O1000   1.290   .     A
C940   O1002   1.272   .     A
C940   C942    1.457   .     S
C941   C950    1.473   .     S
C941   C961    1.421   .     A
C941   C953    1.402   .     A
C942   C1015   1.351   .     S
C942   H1056   1.088   .     S
C944   C947    1.459   .     S
C944   C1161   1.338   .     S
C944   N1203   1.428   .     S
C945   C946    1.436   .     S
C946   O1003   1.276   .     A
C946   O997    1.277   .     A
C947   O998    1.282   .     A
C947   O1004   1.276   .     A
C948   C953    1.384   .     A
C948   H982    1.081   .     S
C948   C311    1.388   1_556 S
C949   C952    1.443   .     S
C949   O993    1.272   .     A
C949   O991    1.268   .     A
C950   O992    1.286   .     A
C950   O994    1.286   .     A
C953   H980    1.083   .     S
C954   O995    1.222   .     D
C954   H985    1.085   .     S
C954   C1015   1.487   .     S
C955   H967    1.110   .     S
C955   H968    1.110   .     S
C955   N987    1.447   .     S
C956   O996    1.221   .     D
C956   H970    1.085   .     S
C956   C964    1.478   .     S
C957   H974    1.112   .     S
C957   H973    1.111   .     S
C958   H979    1.111   .     S
C958   H978    1.111   .     S
C958   N989    1.447   .     S
C958   H976    1.110   .     S
C959   H981    1.078   .     S
C960   C961    1.413   .     A
C960   C311    1.417   1_556 S
C960   C314    1.425   1_556 S
C961   C965    1.404   .     A
C963   C964    1.421   .     A
C963   C314    1.435   1_556 S
C963   C303    1.426   1_556 S
C964   C965    1.390   .     A
C965   H983    1.081   .     S
H969   C1171   1.112   .     S
H972   C525    1.110   1_556 S
H975   N989    1.031   .     S
H977   C1161   1.086   .     S
H986   N1203   1.031   .     S
N988   C303    1.421   1_556 S
N988   H323    1.032   1_556 S
N988   C309    1.447   1_556 S
O990   Zn1005  1.961   .     S
O990   Zn1008  1.948   .     S
O990   Zn1007  1.942   .     S
O990   Zn1006  1.939   .     S
O991   Zn1006  1.943   .     S
O992   Zn1008  1.947   .     S
O993   Zn1007  1.942   .     S
O994   Zn1005  1.940   .     S
O997   Zn1005  1.924   .     S
O998   Zn1008  1.928   .     S
O999   Zn1006  1.940   .     S
O1000  Zn1007  1.943   .     S
O1001  Zn1008  1.936   .     S
O1002  Zn1005  1.934   .     S
O1003  Zn1006  1.935   .     S
O1004  Zn1007  1.931   .     S
C1009  O1071   1.263   .     A
C1009  C1015   1.432   .     S
C1009  O1073   1.277   .     A
C1010  C1024   1.398   .     A
C1010  C1034   1.416   .     A
C1010  N1061   1.430   .     S
C1011  H1038   1.085   .     S
C1011  C1023   1.393   .     A
C1011  C1024   1.387   .     A
C1012  O1072   1.290   .     A
C1012  O1074   1.272   .     A
C1012  C1014   1.457   .     S
C1013  C1022   1.473   .     S
C1013  C1033   1.421   .     A
C1013  C1025   1.402   .     A
C1014  C871    1.351   1_655 S
C1014  H912    1.088   1_655 S
C1016  C1019   1.459   .     S
C1016  C1233   1.338   .     S
C1016  N1275   1.428   .     S
C1017  C1018   1.436   .     S
C1018  O1075   1.276   .     A
C1018  O1069   1.277   .     A
C1019  O1070   1.282   .     A
C1019  O1076   1.276   .     A
C1020  C1025   1.384   .     A
C1020  H1054   1.081   .     S
C1020  C383    1.388   1_556 S
C1021  C1024   1.443   .     S
C1021  O1065   1.272   .     A
C1021  O1063   1.268   .     A
C1022  O1064   1.286   .     A
C1022  O1066   1.286   .     A
C1025  H1052   1.083   .     S
C1026  O1067   1.222   .     D
C1026  H1057   1.085   .     S
C1026  C871    1.487   1_655 S
C1027  H1039   1.110   .     S
C1027  H1040   1.110   .     S
C1027  N1059   1.447   .     S
C1028  O1068   1.221   .     D
C1028  H1042   1.085   .     S
C1028  C1036   1.478   .     S
C1029  H1046   1.112   .     S
C1029  H1045   1.111   .     S
C1030  H1051   1.111   .     S
C1030  H1050   1.111   .     S
C1030  N1061   1.447   .     S
C1030  H1048   1.110   .     S
C1031  H1053   1.078   .     S
C1032  C1033   1.413   .     A
C1032  C383    1.417   1_556 S
C1032  C386    1.425   1_556 S
C1033  C1037   1.404   .     A
C1035  C1036   1.421   .     A
C1035  C386    1.435   1_556 S
C1035  C375    1.426   1_556 S
C1036  C1037   1.390   .     A
C1037  H1055   1.081   .     S
H1041  C1243   1.112   .     S
H1044  C597    1.110   1_556 S
H1047  N1061   1.031   .     S
H1049  C1233   1.086   .     S
H1058  N1275   1.031   .     S
N1060  C375    1.421   1_556 S
N1060  H395    1.032   1_556 S
N1060  C381    1.447   1_556 S
O1062  Zn1077  1.961   .     S
O1062  Zn1080  1.948   .     S
O1062  Zn1079  1.942   .     S
O1062  Zn1078  1.939   .     S
O1063  Zn1078  1.943   .     S
O1064  Zn1080  1.947   .     S
O1065  Zn1079  1.942   .     S
O1066  Zn1077  1.940   .     S
O1069  Zn1077  1.924   .     S
O1070  Zn1080  1.928   .     S
O1071  Zn1078  1.940   .     S
O1072  Zn1079  1.943   .     S
O1073  Zn1080  1.936   .     S
O1074  Zn1077  1.934   .     S
O1075  Zn1078  1.935   .     S
O1076  Zn1079  1.931   .     S
C1081  O1143   1.263   .     A
C1081  C1087   1.432   .     S
C1081  O1145   1.277   .     A
C1082  C1096   1.398   .     A
C1082  C1106   1.416   .     A
C1082  N1133   1.430   .     S
C1083  H1110   1.085   .     S
C1083  C1095   1.393   .     A
C1083  C1096   1.387   .     A
C1084  O1144   1.290   .     A
C1084  O1146   1.272   .     A
C1084  C1086   1.457   .     S
C1085  C1094   1.473   .     S
C1085  C1105   1.421   .     A
C1085  C1097   1.402   .     A
C1086  C1159   1.351   .     S
C1086  H1200   1.088   .     S
C1087  C1230   1.351   1_455 S
C1087  C1242   1.487   1_455 S
C1088  C1091   1.459   .     S
C1088  C657    1.338   1_565 S
C1088  N699    1.428   1_565 S
C1089  C1090   1.436   .     S
C1090  O1147   1.276   .     A
C1090  O1141   1.277   .     A
C1091  O1142   1.282   .     A
C1091  O1148   1.276   .     A
C1092  C1097   1.384   .     A
C1092  H1126   1.081   .     S
C1092  C455    1.388   1_556 S
C1093  C1096   1.443   .     S
C1093  O1137   1.272   .     A
C1093  O1135   1.268   .     A
C1094  O1136   1.286   .     A
C1094  O1138   1.286   .     A
C1097  H1124   1.083   .     S
C1098  O1139   1.222   .     D
C1098  H1129   1.085   .     S
C1098  C1159   1.487   .     S
C1099  H1111   1.110   .     S
C1099  H1112   1.110   .     S
C1099  N1131   1.447   .     S
C1100  O1140   1.221   .     D
C1100  H1114   1.085   .     S
C1100  C1108   1.478   .     S
C1101  H1118   1.112   .     S
C1101  H1117   1.111   .     S
C1102  H1123   1.111   .     S
C1102  H1122   1.111   .     S
C1102  N1133   1.447   .     S
C1102  H1120   1.110   .     S
C1103  H1125   1.078   .     S
C1104  C1105   1.413   .     A
C1104  C455    1.417   1_556 S
C1104  C458    1.425   1_556 S
C1105  C1109   1.404   .     A
C1107  C1108   1.421   .     A
C1107  C458    1.435   1_556 S
C1107  C447    1.426   1_556 S
C1108  C1109   1.390   .     A
C1109  H1127   1.081   .     S
H1113  C667    1.112   1_565 S
H1116  C21     1.110   1_566 S
H1119  N1133   1.031   .     S
H1121  C657    1.086   1_565 S
H1128  C1230   1.088   1_455 S
H1130  N699    1.031   1_565 S
N1132  C447    1.421   1_556 S
N1132  H467    1.032   1_556 S
N1132  C453    1.447   1_556 S
O1134  Zn1149  1.961   .     S
O1134  Zn1152  1.948   .     S
O1134  Zn1151  1.942   .     S
O1134  Zn1150  1.939   .     S
O1135  Zn1150  1.943   .     S
O1136  Zn1152  1.947   .     S
O1137  Zn1151  1.942   .     S
O1138  Zn1149  1.940   .     S
O1141  Zn1149  1.924   .     S
O1142  Zn1152  1.928   .     S
O1143  Zn1150  1.940   .     S
O1144  Zn1151  1.943   .     S
O1145  Zn1152  1.936   .     S
O1146  Zn1149  1.934   .     S
O1147  Zn1150  1.935   .     S
O1148  Zn1151  1.931   .     S
C1153  O1215   1.263   .     A
C1153  C1159   1.432   .     S
C1153  O1217   1.277   .     A
C1154  C1168   1.398   .     A
C1154  C1178   1.416   .     A
C1154  N1205   1.430   .     S
C1155  H1182   1.085   .     S
C1155  C1167   1.393   .     A
C1155  C1168   1.387   .     A
C1156  O1216   1.290   .     A
C1156  O1218   1.272   .     A
C1156  C1158   1.457   .     S
C1157  C1166   1.473   .     S
C1157  C1177   1.421   .     A
C1157  C1169   1.402   .     A
C1158  C1231   1.351   .     S
C1158  H1272   1.088   .     S
C1160  C1163   1.459   .     S
C1160  C729    1.338   1_565 S
C1160  N771    1.428   1_565 S
C1161  C1162   1.436   .     S
C1162  O1219   1.276   .     A
C1162  O1213   1.277   .     A
C1163  O1214   1.282   .     A
C1163  O1220   1.276   .     A
C1164  C1169   1.384   .     A
C1164  H1198   1.081   .     S
C1164  C527    1.388   1_556 S
C1165  C1168   1.443   .     S
C1165  O1209   1.272   .     A
C1165  O1207   1.268   .     A
C1166  O1208   1.286   .     A
C1166  O1210   1.286   .     A
C1169  H1196   1.083   .     S
C1170  O1211   1.222   .     D
C1170  H1201   1.085   .     S
C1170  C1231   1.487   .     S
C1171  H1183   1.110   .     S
C1171  H1184   1.110   .     S
C1171  N1203   1.447   .     S
C1172  O1212   1.221   .     D
C1172  H1186   1.085   .     S
C1172  C1180   1.478   .     S
C1173  H1190   1.112   .     S
C1173  H1189   1.111   .     S
C1174  H1195   1.111   .     S
C1174  H1194   1.111   .     S
C1174  N1205   1.447   .     S
C1174  H1192   1.110   .     S
C1175  H1197   1.078   .     S
C1176  C1177   1.413   .     A
C1176  C527    1.417   1_556 S
C1176  C530    1.425   1_556 S
C1177  C1181   1.404   .     A
C1179  C1180   1.421   .     A
C1179  C530    1.435   1_556 S
C1179  C519    1.426   1_556 S
C1180  C1181   1.390   .     A
C1181  H1199   1.081   .     S
H1185  C739    1.112   1_565 S
H1188  C93     1.110   1_566 S
H1191  N1205   1.031   .     S
H1193  C729    1.086   1_565 S
H1202  N771    1.031   1_565 S
N1204  C519    1.421   1_556 S
N1204  H539    1.032   1_556 S
N1204  C525    1.447   1_556 S
O1206  Zn1221  1.961   .     S
O1206  Zn1224  1.948   .     S
O1206  Zn1223  1.942   .     S
O1206  Zn1222  1.939   .     S
O1207  Zn1222  1.943   .     S
O1208  Zn1224  1.947   .     S
O1209  Zn1223  1.942   .     S
O1210  Zn1221  1.940   .     S
O1213  Zn1221  1.924   .     S
O1214  Zn1224  1.928   .     S
O1215  Zn1222  1.940   .     S
O1216  Zn1223  1.943   .     S
O1217  Zn1224  1.936   .     S
O1218  Zn1221  1.934   .     S
O1219  Zn1222  1.935   .     S
O1220  Zn1223  1.931   .     S
C1225  O1287   1.263   .     A
C1225  C1231   1.432   .     S
C1225  O1289   1.277   .     A
C1226  C1240   1.398   .     A
C1226  C1250   1.416   .     A
C1226  N1277   1.430   .     S
C1227  H1254   1.085   .     S
C1227  C1239   1.393   .     A
C1227  C1240   1.387   .     A
C1228  O1288   1.290   .     A
C1228  O1290   1.272   .     A
C1228  C1230   1.457   .     S
C1229  C1238   1.473   .     S
C1229  C1249   1.421   .     A
C1229  C1241   1.402   .     A
C1230  C1087   1.351   1_655 S
C1230  H1128   1.088   1_655 S
C1232  C1235   1.459   .     S
C1232  C801    1.338   1_565 S
C1232  N843    1.428   1_565 S
C1233  C1234   1.436   .     S
C1234  O1291   1.276   .     A
C1234  O1285   1.277   .     A
C1235  O1286   1.282   .     A
C1235  O1292   1.276   .     A
C1236  C1241   1.384   .     A
C1236  H1270   1.081   .     S
C1236  C599    1.388   1_556 S
C1237  C1240   1.443   .     S
C1237  O1281   1.272   .     A
C1237  O1279   1.268   .     A
C1238  O1280   1.286   .     A
C1238  O1282   1.286   .     A
C1241  H1268   1.083   .     S
C1242  O1283   1.222   .     D
C1242  H1273   1.085   .     S
C1242  C1087   1.487   1_655 S
C1243  H1255   1.110   .     S
C1243  H1256   1.110   .     S
C1243  N1275   1.447   .     S
C1244  O1284   1.221   .     D
C1244  H1258   1.085   .     S
C1244  C1252   1.478   .     S
C1245  H1262   1.112   .     S
C1245  H1261   1.111   .     S
C1246  H1267   1.111   .     S
C1246  H1266   1.111   .     S
C1246  N1277   1.447   .     S
C1246  H1264   1.110   .     S
C1247  H1269   1.078   .     S
C1248  C1249   1.413   .     A
C1248  C599    1.417   1_556 S
C1248  C602    1.425   1_556 S
C1249  C1253   1.404   .     A
C1251  C1252   1.421   .     A
C1251  C602    1.435   1_556 S
C1251  C591    1.426   1_556 S
C1252  C1253   1.390   .     A
C1253  H1271   1.081   .     S
H1257  C811    1.112   1_565 S
H1260  C165    1.110   1_566 S
H1263  N1277   1.031   .     S
H1265  C801    1.086   1_565 S
H1274  N843    1.031   1_565 S
N1276  C591    1.421   1_556 S
N1276  H611    1.032   1_556 S
N1276  C597    1.447   1_556 S
O1278  Zn1293  1.961   .     S
O1278  Zn1296  1.948   .     S
O1278  Zn1295  1.942   .     S
O1278  Zn1294  1.939   .     S
O1279  Zn1294  1.943   .     S
O1280  Zn1296  1.947   .     S
O1281  Zn1295  1.942   .     S
O1282  Zn1293  1.940   .     S
O1285  Zn1293  1.924   .     S
O1286  Zn1296  1.928   .     S
O1287  Zn1294  1.940   .     S
O1288  Zn1295  1.943   .     S
O1289  Zn1296  1.936   .     S
O1290  Zn1293  1.934   .     S
O1291  Zn1294  1.935   .     S
O1292  Zn1295  1.931   .     S
