data_str_m3_o2_o10_pcu_sym.38
_audit_creation_date              2020-01-03
_audit_creation_method            'Materials Studio'
_symmetry_space_group_name_H-M    'P1'
_symmetry_Int_Tables_number       1
_symmetry_cell_setting            triclinic
loop_
_symmetry_equiv_pos_as_xyz
  x,y,z
_cell_length_a                    25.8592
_cell_length_b                    29.9528
_cell_length_c                    28.5272
_cell_angle_alpha                 87.5028
_cell_angle_beta                  97.5915
_cell_angle_gamma                 91.0865
loop_
_atom_site_label
_atom_site_type_symbol
_atom_site_fract_x
_atom_site_fract_y
_atom_site_fract_z
_atom_site_U_iso_or_equiv
_atom_site_adp_type
_atom_site_occupancy
C1     C     0.16810   0.16365   0.25116   0.00000  Uiso   1.00
C2     C     0.12952   0.22811   0.44545   0.00000  Uiso   1.00
C3     C     0.17008   0.24831   0.02707   0.00000  Uiso   1.00
C4     C     0.17005   0.24894   0.47397   0.00000  Uiso   1.00
C5     C     0.06719   0.24980   0.23784   0.00000  Uiso   1.00
C6     C     0.26610   0.25193   0.26192   0.00000  Uiso   1.00
C7     C     0.01242   0.24727   0.23155   0.00000  Uiso   1.00
C8     C     0.32074   0.25750   0.26717   0.00000  Uiso   1.00
C9     C     0.16993   0.04370   0.29658   0.00000  Uiso   1.00
C10    C     0.11381   0.45078   0.22903   0.00000  Uiso   1.00
C11    C     0.18219   0.08989   0.29576   0.00000  Uiso   1.00
C12    C     0.16613   0.33583   0.24904   0.00000  Uiso   1.00
C13    C     0.11881   0.40468   0.22352   0.00000  Uiso   1.00
C14    C     0.16717   0.11500   0.25304   0.00000  Uiso   1.00
C15    C     0.16332   0.38339   0.24708   0.00000  Uiso   1.00
C16    C     0.14947   0.09360   0.21110   0.00000  Uiso   1.00
C17    C     0.20445   0.40710   0.27134   0.00000  Uiso   1.00
C18    C     0.14560   0.04776   0.21109   0.00000  Uiso   1.00
C19    C     0.20176   0.45283   0.27247   0.00000  Uiso   1.00
C20    C     0.15554   0.02287   0.25358   0.00000  Uiso   1.00
C21    C     0.15640   0.47465   0.25212   0.00000  Uiso   1.00
C22    C     0.12957   0.02588   0.36104   0.00000  Uiso   1.00
C23    C     0.14922   0.21218   0.05242   0.00000  Uiso   1.00
C24    C     0.03189   0.46561   0.24370   0.00000  Uiso   1.00
C25    C     0.24364   0.08623   0.36446   0.00000  Uiso   1.00
C26    C     0.06440   0.39613   0.15320   0.00000  Uiso   1.00
C27    C     0.20898   0.32561   0.12590   0.00000  Uiso   1.00
C28    C     0.18334   0.36659   0.11680   0.00000  Uiso   1.00
C29    C     0.20487   0.40522   0.13788   0.00000  Uiso   1.00
C30    C     0.25162   0.40295   0.16851   0.00000  Uiso   1.00
C31    C     0.27777   0.36242   0.17684   0.00000  Uiso   1.00
C32    C     0.25766   0.32439   0.15391   0.00000  Uiso   1.00
C33    C     0.08601   0.20165   0.37046   0.00000  Uiso   1.00
C34    C     0.20893   0.27100   0.45080   0.00000  Uiso   1.00
C35    C     0.03355   0.21221   0.37170   0.00000  Uiso   1.00
C36    C     0.32713   0.18460   0.35031   0.00000  Uiso   1.00
C37    C     0.00620   0.14757   0.32604   0.00000  Uiso   1.00
C38    C     0.05802   0.13482   0.32848   0.00000  Uiso   1.00
C39    C     0.09729   0.16071   0.35288   0.00000  Uiso   1.00
C40    C     0.14769   0.21378   0.10164   0.00000  Uiso   1.00
C41    C     0.20639   0.27125   0.40092   0.00000  Uiso   1.00
C42    C     0.18745   0.28552   0.10207   0.00000  Uiso   1.00
C43    C     0.12829   0.22827   0.39601   0.00000  Uiso   1.00
C44    C     0.18897   0.28505   0.05293   0.00000  Uiso   1.00
H45    H     0.32621   0.23515   0.19832   0.00000  Uiso   1.00
H46    H     0.23676   0.28818   0.38403   0.00000  Uiso   1.00
H47    H     0.20446   0.31394   0.03498   0.00000  Uiso   1.00
H48    H     0.09840   0.21128   0.46153   0.00000  Uiso   1.00
H49    H     0.09253   0.02007   0.33740   0.00000  Uiso   1.00
H50    H     0.13052   0.06028   0.37425   0.00000  Uiso   1.00
H51    H     0.13006   0.00222   0.39209   0.00000  Uiso   1.00
H52    H     0.04760   0.47660   0.27956   0.00000  Uiso   1.00
H53    H     0.01933   0.42995   0.24568   0.00000  Uiso   1.00
H54    H     0.33016   0.48579   0.23127   0.00000  Uiso   1.00
H55    H     0.22547   0.06696   0.39218   0.00000  Uiso   1.00
H56    H     0.00707   0.27028   0.29997   0.00000  Uiso   1.00
H57    H     0.27195   0.10920   0.38396   0.00000  Uiso   1.00
H58    H     0.26589   0.06414   0.34413   0.00000  Uiso   1.00
H59    H     0.05368   0.36767   0.13006   0.00000  Uiso   1.00
H60    H     0.09563   0.41577   0.13810   0.00000  Uiso   1.00
H61    H     0.02944   0.41724   0.15178   0.00000  Uiso   1.00
H62    H     0.14695   0.36855   0.09324   0.00000  Uiso   1.00
H63    H     0.18514   0.43682   0.13090   0.00000  Uiso   1.00
H64    H     0.26759   0.43264   0.18557   0.00000  Uiso   1.00
H65    H     0.31389   0.36049   0.20059   0.00000  Uiso   1.00
H66    H     0.28012   0.29419   0.15754   0.00000  Uiso   1.00
H67    H     0.13908   0.11228   0.17792   0.00000  Uiso   1.00
H68    H     0.02348   0.24161   0.38920   0.00000  Uiso   1.00
H69    H     0.28680   0.19208   0.35214   0.00000  Uiso   1.00
H70    H     0.30902   0.12786   0.30684   0.00000  Uiso   1.00
H71    H     0.06756   0.10445   0.31250   0.00000  Uiso   1.00
H72    H     0.13644   0.14876   0.35927   0.00000  Uiso   1.00
H73    H     0.23896   0.39017   0.28861   0.00000  Uiso   1.00
H74    H     0.13492   0.03163   0.17785   0.00000  Uiso   1.00
H75    H     0.23495   0.47127   0.28957   0.00000  Uiso   1.00
H76    H     0.13448   0.18250   0.03457   0.00000  Uiso   1.00
H77    H     0.24158   0.28755   0.47098   0.00000  Uiso   1.00
H78    H     0.13146   0.18567   0.12010   0.00000  Uiso   1.00
N79    N     0.16667   0.24999   0.12624   0.00000  Uiso   1.00
N80    N     0.16667   0.25001   0.37377   0.00000  Uiso   1.00
O81    O     0.16667   0.18453   0.28974   0.00000  Uiso   1.00
O82    O     0.06834   0.47281   0.21140   0.00000  Uiso   1.00
O83    O     0.20603   0.11204   0.33517   0.00000  Uiso   1.00
O84    O     0.07919   0.37894   0.19993   0.00000  Uiso   1.00
O85    O     0.16666   0.31546   0.21026   0.00000  Uiso   1.00
O86    O     0.16667   0.18453   0.21026   0.00000  Uiso   1.00
O87    O     0.16666   0.31547   0.28974   0.00000  Uiso   1.00
O88    O     0.09058   0.25000   0.28045   0.00000  Uiso   1.00
O89    O     0.24275   0.25000   0.21956   0.00000  Uiso   1.00
O90    O     0.09058   0.24999   0.20097   0.00000  Uiso   1.00
O91    O     0.24275   0.25000   0.29904   0.00000  Uiso   1.00
O92    O     0.17366   0.01803   0.33839   0.00000  Uiso   1.00
Zn93   Zn    0.16667   0.25000   0.30307   0.00000  Uiso   1.00
Zn94   Zn    0.16667   0.24999   0.19693   0.00000  Uiso   1.00
C95    C     0.50143   0.16365   0.25116   0.00000  Uiso   1.00
C96    C     0.46285   0.22811   0.44545   0.00000  Uiso   1.00
C97    C     0.50341   0.24831   0.02707   0.00000  Uiso   1.00
C98    C     0.50338   0.24894   0.47397   0.00000  Uiso   1.00
C99    C     0.40052   0.24980   0.23784   0.00000  Uiso   1.00
C100   C     0.59944   0.25193   0.26192   0.00000  Uiso   1.00
C101   C     0.34575   0.24727   0.23155   0.00000  Uiso   1.00
C102   C     0.65407   0.25750   0.26717   0.00000  Uiso   1.00
C103   C     0.50327   0.04370   0.29658   0.00000  Uiso   1.00
C104   C     0.44714   0.45078   0.22903   0.00000  Uiso   1.00
C105   C     0.51552   0.08989   0.29576   0.00000  Uiso   1.00
C106   C     0.49947   0.33583   0.24904   0.00000  Uiso   1.00
C107   C     0.45215   0.40468   0.22352   0.00000  Uiso   1.00
C108   C     0.50050   0.11500   0.25304   0.00000  Uiso   1.00
C109   C     0.49666   0.38339   0.24708   0.00000  Uiso   1.00
C110   C     0.48281   0.09360   0.21110   0.00000  Uiso   1.00
C111   C     0.53779   0.40710   0.27134   0.00000  Uiso   1.00
C112   C     0.47893   0.04776   0.21109   0.00000  Uiso   1.00
C113   C     0.53509   0.45283   0.27247   0.00000  Uiso   1.00
C114   C     0.48888   0.02287   0.25358   0.00000  Uiso   1.00
C115   C     0.48973   0.47465   0.25212   0.00000  Uiso   1.00
C116   C     0.46291   0.02588   0.36104   0.00000  Uiso   1.00
C117   C     0.48255   0.21218   0.05242   0.00000  Uiso   1.00
C118   C     0.36522   0.46561   0.24370   0.00000  Uiso   1.00
C119   C     0.57698   0.08623   0.36446   0.00000  Uiso   1.00
C120   C     0.39774   0.39613   0.15320   0.00000  Uiso   1.00
C121   C     0.54231   0.32561   0.12590   0.00000  Uiso   1.00
C122   C     0.51668   0.36659   0.11680   0.00000  Uiso   1.00
C123   C     0.53820   0.40522   0.13788   0.00000  Uiso   1.00
C124   C     0.58495   0.40295   0.16851   0.00000  Uiso   1.00
C125   C     0.61110   0.36242   0.17684   0.00000  Uiso   1.00
C126   C     0.59099   0.32439   0.15391   0.00000  Uiso   1.00
C127   C     0.41934   0.20165   0.37046   0.00000  Uiso   1.00
C128   C     0.54226   0.27100   0.45080   0.00000  Uiso   1.00
C129   C     0.36688   0.21221   0.37170   0.00000  Uiso   1.00
C130   C     0.66047   0.18460   0.35031   0.00000  Uiso   1.00
C131   C     0.33954   0.14757   0.32604   0.00000  Uiso   1.00
C132   C     0.39135   0.13482   0.32848   0.00000  Uiso   1.00
C133   C     0.43062   0.16071   0.35288   0.00000  Uiso   1.00
C134   C     0.48103   0.21378   0.10164   0.00000  Uiso   1.00
C135   C     0.53972   0.27125   0.40092   0.00000  Uiso   1.00
C136   C     0.52078   0.28552   0.10207   0.00000  Uiso   1.00
C137   C     0.46162   0.22827   0.39601   0.00000  Uiso   1.00
C138   C     0.52230   0.28505   0.05293   0.00000  Uiso   1.00
H139   H     0.65955   0.23515   0.19832   0.00000  Uiso   1.00
H140   H     0.57010   0.28818   0.38403   0.00000  Uiso   1.00
H141   H     0.53779   0.31394   0.03498   0.00000  Uiso   1.00
H142   H     0.43174   0.21128   0.46153   0.00000  Uiso   1.00
H143   H     0.42587   0.02007   0.33740   0.00000  Uiso   1.00
H144   H     0.46386   0.06028   0.37425   0.00000  Uiso   1.00
H145   H     0.46339   0.00222   0.39209   0.00000  Uiso   1.00
H146   H     0.38093   0.47660   0.27956   0.00000  Uiso   1.00
H147   H     0.35266   0.42995   0.24568   0.00000  Uiso   1.00
H148   H     0.66349   0.48579   0.23127   0.00000  Uiso   1.00
H149   H     0.55880   0.06696   0.39218   0.00000  Uiso   1.00
H150   H     0.34040   0.27028   0.29997   0.00000  Uiso   1.00
H151   H     0.60529   0.10920   0.38396   0.00000  Uiso   1.00
H152   H     0.59922   0.06414   0.34413   0.00000  Uiso   1.00
H153   H     0.38701   0.36767   0.13006   0.00000  Uiso   1.00
H154   H     0.42896   0.41577   0.13810   0.00000  Uiso   1.00
H155   H     0.36278   0.41724   0.15178   0.00000  Uiso   1.00
H156   H     0.48028   0.36855   0.09324   0.00000  Uiso   1.00
H157   H     0.51848   0.43682   0.13090   0.00000  Uiso   1.00
H158   H     0.60092   0.43264   0.18557   0.00000  Uiso   1.00
H159   H     0.64723   0.36049   0.20059   0.00000  Uiso   1.00
H160   H     0.61345   0.29419   0.15754   0.00000  Uiso   1.00
H161   H     0.47241   0.11228   0.17792   0.00000  Uiso   1.00
H162   H     0.35682   0.24161   0.38920   0.00000  Uiso   1.00
H163   H     0.62013   0.19208   0.35214   0.00000  Uiso   1.00
H164   H     0.64236   0.12786   0.30684   0.00000  Uiso   1.00
H165   H     0.40089   0.10445   0.31250   0.00000  Uiso   1.00
H166   H     0.46977   0.14876   0.35927   0.00000  Uiso   1.00
H167   H     0.57229   0.39017   0.28861   0.00000  Uiso   1.00
H168   H     0.46826   0.03163   0.17785   0.00000  Uiso   1.00
H169   H     0.56828   0.47127   0.28957   0.00000  Uiso   1.00
H170   H     0.46781   0.18250   0.03457   0.00000  Uiso   1.00
H171   H     0.57492   0.28755   0.47098   0.00000  Uiso   1.00
H172   H     0.46480   0.18567   0.12010   0.00000  Uiso   1.00
N173   N     0.50000   0.24999   0.12624   0.00000  Uiso   1.00
N174   N     0.50000   0.25001   0.37377   0.00000  Uiso   1.00
O175   O     0.50000   0.18453   0.28974   0.00000  Uiso   1.00
O176   O     0.40168   0.47281   0.21140   0.00000  Uiso   1.00
O177   O     0.53937   0.11204   0.33517   0.00000  Uiso   1.00
O178   O     0.41252   0.37894   0.19993   0.00000  Uiso   1.00
O179   O     0.50000   0.31546   0.21026   0.00000  Uiso   1.00
O180   O     0.50000   0.18453   0.21026   0.00000  Uiso   1.00
O181   O     0.50000   0.31547   0.28974   0.00000  Uiso   1.00
O182   O     0.42392   0.25000   0.28045   0.00000  Uiso   1.00
O183   O     0.57608   0.25000   0.21956   0.00000  Uiso   1.00
O184   O     0.42392   0.24999   0.20097   0.00000  Uiso   1.00
O185   O     0.57608   0.25000   0.29904   0.00000  Uiso   1.00
O186   O     0.50699   0.01803   0.33839   0.00000  Uiso   1.00
Zn187  Zn    0.50000   0.25000   0.30307   0.00000  Uiso   1.00
Zn188  Zn    0.50000   0.24999   0.19693   0.00000  Uiso   1.00
C189   C     0.83477   0.16365   0.25116   0.00000  Uiso   1.00
C190   C     0.79619   0.22811   0.44545   0.00000  Uiso   1.00
C191   C     0.83674   0.24831   0.02707   0.00000  Uiso   1.00
C192   C     0.83671   0.24894   0.47397   0.00000  Uiso   1.00
C193   C     0.73386   0.24980   0.23784   0.00000  Uiso   1.00
C194   C     0.93277   0.25193   0.26192   0.00000  Uiso   1.00
C195   C     0.67908   0.24727   0.23155   0.00000  Uiso   1.00
C196   C     0.98740   0.25750   0.26717   0.00000  Uiso   1.00
C197   C     0.83660   0.04370   0.29658   0.00000  Uiso   1.00
C198   C     0.78047   0.45078   0.22903   0.00000  Uiso   1.00
C199   C     0.84885   0.08989   0.29576   0.00000  Uiso   1.00
C200   C     0.83280   0.33583   0.24904   0.00000  Uiso   1.00
C201   C     0.78548   0.40468   0.22352   0.00000  Uiso   1.00
C202   C     0.83384   0.11500   0.25304   0.00000  Uiso   1.00
C203   C     0.82999   0.38339   0.24708   0.00000  Uiso   1.00
C204   C     0.81614   0.09360   0.21110   0.00000  Uiso   1.00
C205   C     0.87112   0.40710   0.27134   0.00000  Uiso   1.00
C206   C     0.81227   0.04776   0.21109   0.00000  Uiso   1.00
C207   C     0.86842   0.45283   0.27247   0.00000  Uiso   1.00
C208   C     0.82221   0.02287   0.25358   0.00000  Uiso   1.00
C209   C     0.82306   0.47465   0.25212   0.00000  Uiso   1.00
C210   C     0.79624   0.02588   0.36104   0.00000  Uiso   1.00
C211   C     0.81588   0.21218   0.05242   0.00000  Uiso   1.00
C212   C     0.69855   0.46561   0.24370   0.00000  Uiso   1.00
C213   C     0.91031   0.08623   0.36446   0.00000  Uiso   1.00
C214   C     0.73107   0.39613   0.15320   0.00000  Uiso   1.00
C215   C     0.87565   0.32561   0.12590   0.00000  Uiso   1.00
C216   C     0.85001   0.36659   0.11680   0.00000  Uiso   1.00
C217   C     0.87154   0.40522   0.13788   0.00000  Uiso   1.00
C218   C     0.91829   0.40295   0.16851   0.00000  Uiso   1.00
C219   C     0.94444   0.36242   0.17684   0.00000  Uiso   1.00
C220   C     0.92433   0.32439   0.15391   0.00000  Uiso   1.00
C221   C     0.75267   0.20165   0.37046   0.00000  Uiso   1.00
C222   C     0.87559   0.27100   0.45080   0.00000  Uiso   1.00
C223   C     0.70021   0.21221   0.37170   0.00000  Uiso   1.00
C224   C     0.99380   0.18460   0.35031   0.00000  Uiso   1.00
C225   C     0.67287   0.14757   0.32604   0.00000  Uiso   1.00
C226   C     0.72469   0.13482   0.32848   0.00000  Uiso   1.00
C227   C     0.76395   0.16071   0.35288   0.00000  Uiso   1.00
C228   C     0.81436   0.21378   0.10164   0.00000  Uiso   1.00
C229   C     0.87305   0.27125   0.40092   0.00000  Uiso   1.00
C230   C     0.85412   0.28552   0.10207   0.00000  Uiso   1.00
C231   C     0.79496   0.22827   0.39601   0.00000  Uiso   1.00
C232   C     0.85563   0.28505   0.05293   0.00000  Uiso   1.00
H233   H     0.99288   0.23515   0.19832   0.00000  Uiso   1.00
H234   H     0.90343   0.28818   0.38403   0.00000  Uiso   1.00
H235   H     0.87112   0.31394   0.03498   0.00000  Uiso   1.00
H236   H     0.76507   0.21128   0.46153   0.00000  Uiso   1.00
H237   H     0.75920   0.02007   0.33740   0.00000  Uiso   1.00
H238   H     0.79719   0.06028   0.37425   0.00000  Uiso   1.00
H239   H     0.79673   0.00222   0.39209   0.00000  Uiso   1.00
H240   H     0.71427   0.47660   0.27956   0.00000  Uiso   1.00
H241   H     0.68600   0.42995   0.24568   0.00000  Uiso   1.00
H242   H     0.99682   0.48579   0.23127   0.00000  Uiso   1.00
H243   H     0.89213   0.06696   0.39218   0.00000  Uiso   1.00
H244   H     0.67373   0.27028   0.29997   0.00000  Uiso   1.00
H245   H     0.93862   0.10920   0.38396   0.00000  Uiso   1.00
H246   H     0.93256   0.06414   0.34413   0.00000  Uiso   1.00
H247   H     0.72034   0.36767   0.13006   0.00000  Uiso   1.00
H248   H     0.76230   0.41577   0.13810   0.00000  Uiso   1.00
H249   H     0.69611   0.41724   0.15178   0.00000  Uiso   1.00
H250   H     0.81362   0.36855   0.09324   0.00000  Uiso   1.00
H251   H     0.85181   0.43682   0.13090   0.00000  Uiso   1.00
H252   H     0.93426   0.43264   0.18557   0.00000  Uiso   1.00
H253   H     0.98056   0.36049   0.20059   0.00000  Uiso   1.00
H254   H     0.94678   0.29419   0.15754   0.00000  Uiso   1.00
H255   H     0.80575   0.11228   0.17792   0.00000  Uiso   1.00
H256   H     0.69015   0.24161   0.38920   0.00000  Uiso   1.00
H257   H     0.95346   0.19208   0.35214   0.00000  Uiso   1.00
H258   H     0.97569   0.12786   0.30684   0.00000  Uiso   1.00
H259   H     0.73423   0.10445   0.31250   0.00000  Uiso   1.00
H260   H     0.80310   0.14876   0.35927   0.00000  Uiso   1.00
H261   H     0.90563   0.39017   0.28861   0.00000  Uiso   1.00
H262   H     0.80159   0.03163   0.17785   0.00000  Uiso   1.00
H263   H     0.90162   0.47127   0.28957   0.00000  Uiso   1.00
H264   H     0.80115   0.18250   0.03457   0.00000  Uiso   1.00
H265   H     0.90825   0.28755   0.47098   0.00000  Uiso   1.00
H266   H     0.79813   0.18567   0.12010   0.00000  Uiso   1.00
N267   N     0.83333   0.24999   0.12624   0.00000  Uiso   1.00
N268   N     0.83333   0.25001   0.37377   0.00000  Uiso   1.00
O269   O     0.83334   0.18453   0.28974   0.00000  Uiso   1.00
O270   O     0.73501   0.47281   0.21140   0.00000  Uiso   1.00
O271   O     0.87270   0.11204   0.33517   0.00000  Uiso   1.00
O272   O     0.74586   0.37894   0.19993   0.00000  Uiso   1.00
O273   O     0.83333   0.31546   0.21026   0.00000  Uiso   1.00
O274   O     0.83334   0.18453   0.21026   0.00000  Uiso   1.00
O275   O     0.83333   0.31547   0.28974   0.00000  Uiso   1.00
O276   O     0.75725   0.25000   0.28045   0.00000  Uiso   1.00
O277   O     0.90942   0.25000   0.21956   0.00000  Uiso   1.00
O278   O     0.75725   0.24999   0.20097   0.00000  Uiso   1.00
O279   O     0.90942   0.25000   0.29904   0.00000  Uiso   1.00
O280   O     0.84032   0.01803   0.33839   0.00000  Uiso   1.00
Zn281  Zn    0.83333   0.25000   0.30307   0.00000  Uiso   1.00
Zn282  Zn    0.83333   0.24999   0.19693   0.00000  Uiso   1.00
C283   C     0.16810   0.66365   0.25116   0.00000  Uiso   1.00
C284   C     0.12952   0.72811   0.44545   0.00000  Uiso   1.00
C285   C     0.17008   0.74831   0.02707   0.00000  Uiso   1.00
C286   C     0.17005   0.74894   0.47397   0.00000  Uiso   1.00
C287   C     0.06719   0.74980   0.23784   0.00000  Uiso   1.00
C288   C     0.26610   0.75193   0.26192   0.00000  Uiso   1.00
C289   C     0.01242   0.74727   0.23155   0.00000  Uiso   1.00
C290   C     0.32074   0.75750   0.26717   0.00000  Uiso   1.00
C291   C     0.16993   0.54370   0.29658   0.00000  Uiso   1.00
C292   C     0.11381   0.95078   0.22903   0.00000  Uiso   1.00
C293   C     0.18219   0.58989   0.29576   0.00000  Uiso   1.00
C294   C     0.16613   0.83583   0.24904   0.00000  Uiso   1.00
C295   C     0.11881   0.90468   0.22352   0.00000  Uiso   1.00
C296   C     0.16717   0.61500   0.25304   0.00000  Uiso   1.00
C297   C     0.16332   0.88339   0.24708   0.00000  Uiso   1.00
C298   C     0.14947   0.59360   0.21110   0.00000  Uiso   1.00
C299   C     0.20445   0.90710   0.27134   0.00000  Uiso   1.00
C300   C     0.14560   0.54776   0.21109   0.00000  Uiso   1.00
C301   C     0.20176   0.95283   0.27247   0.00000  Uiso   1.00
C302   C     0.15554   0.52287   0.25358   0.00000  Uiso   1.00
C303   C     0.15640   0.97465   0.25212   0.00000  Uiso   1.00
C304   C     0.12957   0.52588   0.36104   0.00000  Uiso   1.00
C305   C     0.14922   0.71218   0.05242   0.00000  Uiso   1.00
C306   C     0.03189   0.96561   0.24370   0.00000  Uiso   1.00
C307   C     0.24364   0.58623   0.36446   0.00000  Uiso   1.00
C308   C     0.06440   0.89613   0.15320   0.00000  Uiso   1.00
C309   C     0.20898   0.82561   0.12590   0.00000  Uiso   1.00
C310   C     0.18334   0.86659   0.11680   0.00000  Uiso   1.00
C311   C     0.20487   0.90522   0.13788   0.00000  Uiso   1.00
C312   C     0.25162   0.90295   0.16851   0.00000  Uiso   1.00
C313   C     0.27777   0.86242   0.17684   0.00000  Uiso   1.00
C314   C     0.25766   0.82439   0.15391   0.00000  Uiso   1.00
C315   C     0.08601   0.70165   0.37046   0.00000  Uiso   1.00
C316   C     0.20893   0.77100   0.45080   0.00000  Uiso   1.00
C317   C     0.03355   0.71221   0.37170   0.00000  Uiso   1.00
C318   C     0.32713   0.68460   0.35031   0.00000  Uiso   1.00
C319   C     0.00620   0.64757   0.32604   0.00000  Uiso   1.00
C320   C     0.05802   0.63482   0.32848   0.00000  Uiso   1.00
C321   C     0.09729   0.66071   0.35288   0.00000  Uiso   1.00
C322   C     0.14769   0.71378   0.10164   0.00000  Uiso   1.00
C323   C     0.20639   0.77125   0.40092   0.00000  Uiso   1.00
C324   C     0.18745   0.78552   0.10207   0.00000  Uiso   1.00
C325   C     0.12829   0.72827   0.39601   0.00000  Uiso   1.00
C326   C     0.18897   0.78505   0.05293   0.00000  Uiso   1.00
H327   H     0.32621   0.73515   0.19832   0.00000  Uiso   1.00
H328   H     0.23676   0.78818   0.38403   0.00000  Uiso   1.00
H329   H     0.20446   0.81394   0.03498   0.00000  Uiso   1.00
H330   H     0.09840   0.71128   0.46153   0.00000  Uiso   1.00
H331   H     0.09253   0.52007   0.33740   0.00000  Uiso   1.00
H332   H     0.13052   0.56028   0.37425   0.00000  Uiso   1.00
H333   H     0.13006   0.50222   0.39209   0.00000  Uiso   1.00
H334   H     0.04760   0.97660   0.27956   0.00000  Uiso   1.00
H335   H     0.01933   0.92995   0.24568   0.00000  Uiso   1.00
H336   H     0.33016   0.98579   0.23127   0.00000  Uiso   1.00
H337   H     0.22547   0.56696   0.39218   0.00000  Uiso   1.00
H338   H     0.00707   0.77028   0.29997   0.00000  Uiso   1.00
H339   H     0.27195   0.60920   0.38396   0.00000  Uiso   1.00
H340   H     0.26589   0.56414   0.34413   0.00000  Uiso   1.00
H341   H     0.05368   0.86767   0.13006   0.00000  Uiso   1.00
H342   H     0.09563   0.91577   0.13810   0.00000  Uiso   1.00
H343   H     0.02944   0.91724   0.15178   0.00000  Uiso   1.00
H344   H     0.14695   0.86855   0.09324   0.00000  Uiso   1.00
H345   H     0.18514   0.93682   0.13090   0.00000  Uiso   1.00
H346   H     0.26759   0.93264   0.18557   0.00000  Uiso   1.00
H347   H     0.31389   0.86049   0.20059   0.00000  Uiso   1.00
H348   H     0.28012   0.79419   0.15754   0.00000  Uiso   1.00
H349   H     0.13908   0.61228   0.17792   0.00000  Uiso   1.00
H350   H     0.02348   0.74161   0.38920   0.00000  Uiso   1.00
H351   H     0.28680   0.69208   0.35214   0.00000  Uiso   1.00
H352   H     0.30902   0.62786   0.30684   0.00000  Uiso   1.00
H353   H     0.06756   0.60445   0.31250   0.00000  Uiso   1.00
H354   H     0.13644   0.64876   0.35927   0.00000  Uiso   1.00
H355   H     0.23896   0.89017   0.28861   0.00000  Uiso   1.00
H356   H     0.13492   0.53163   0.17785   0.00000  Uiso   1.00
H357   H     0.23495   0.97127   0.28957   0.00000  Uiso   1.00
H358   H     0.13448   0.68250   0.03457   0.00000  Uiso   1.00
H359   H     0.24158   0.78755   0.47098   0.00000  Uiso   1.00
H360   H     0.13146   0.68567   0.12010   0.00000  Uiso   1.00
N361   N     0.16667   0.74999   0.12624   0.00000  Uiso   1.00
N362   N     0.16667   0.75001   0.37377   0.00000  Uiso   1.00
O363   O     0.16667   0.68453   0.28974   0.00000  Uiso   1.00
O364   O     0.06834   0.97281   0.21140   0.00000  Uiso   1.00
O365   O     0.20603   0.61204   0.33517   0.00000  Uiso   1.00
O366   O     0.07919   0.87894   0.19993   0.00000  Uiso   1.00
O367   O     0.16666   0.81546   0.21026   0.00000  Uiso   1.00
O368   O     0.16667   0.68453   0.21026   0.00000  Uiso   1.00
O369   O     0.16666   0.81547   0.28974   0.00000  Uiso   1.00
O370   O     0.09058   0.75000   0.28045   0.00000  Uiso   1.00
O371   O     0.24275   0.75000   0.21956   0.00000  Uiso   1.00
O372   O     0.09058   0.74999   0.20097   0.00000  Uiso   1.00
O373   O     0.24275   0.75000   0.29904   0.00000  Uiso   1.00
O374   O     0.17366   0.51803   0.33839   0.00000  Uiso   1.00
Zn375  Zn    0.16667   0.75000   0.30307   0.00000  Uiso   1.00
Zn376  Zn    0.16667   0.74999   0.19693   0.00000  Uiso   1.00
C377   C     0.50143   0.66365   0.25116   0.00000  Uiso   1.00
C378   C     0.46285   0.72811   0.44545   0.00000  Uiso   1.00
C379   C     0.50341   0.74831   0.02707   0.00000  Uiso   1.00
C380   C     0.50338   0.74894   0.47397   0.00000  Uiso   1.00
C381   C     0.40052   0.74980   0.23784   0.00000  Uiso   1.00
C382   C     0.59944   0.75193   0.26192   0.00000  Uiso   1.00
C383   C     0.34575   0.74727   0.23155   0.00000  Uiso   1.00
C384   C     0.65407   0.75750   0.26717   0.00000  Uiso   1.00
C385   C     0.50327   0.54370   0.29658   0.00000  Uiso   1.00
C386   C     0.44714   0.95078   0.22903   0.00000  Uiso   1.00
C387   C     0.51552   0.58989   0.29576   0.00000  Uiso   1.00
C388   C     0.49947   0.83583   0.24904   0.00000  Uiso   1.00
C389   C     0.45215   0.90468   0.22352   0.00000  Uiso   1.00
C390   C     0.50050   0.61500   0.25304   0.00000  Uiso   1.00
C391   C     0.49666   0.88339   0.24708   0.00000  Uiso   1.00
C392   C     0.48281   0.59360   0.21110   0.00000  Uiso   1.00
C393   C     0.53779   0.90710   0.27134   0.00000  Uiso   1.00
C394   C     0.47893   0.54776   0.21109   0.00000  Uiso   1.00
C395   C     0.53509   0.95283   0.27247   0.00000  Uiso   1.00
C396   C     0.48888   0.52287   0.25358   0.00000  Uiso   1.00
C397   C     0.48973   0.97465   0.25212   0.00000  Uiso   1.00
C398   C     0.46291   0.52588   0.36104   0.00000  Uiso   1.00
C399   C     0.48255   0.71218   0.05242   0.00000  Uiso   1.00
C400   C     0.36522   0.96561   0.24370   0.00000  Uiso   1.00
C401   C     0.57698   0.58623   0.36446   0.00000  Uiso   1.00
C402   C     0.39774   0.89613   0.15320   0.00000  Uiso   1.00
C403   C     0.54231   0.82561   0.12590   0.00000  Uiso   1.00
C404   C     0.51668   0.86659   0.11680   0.00000  Uiso   1.00
C405   C     0.53820   0.90522   0.13788   0.00000  Uiso   1.00
C406   C     0.58495   0.90295   0.16851   0.00000  Uiso   1.00
C407   C     0.61110   0.86242   0.17684   0.00000  Uiso   1.00
C408   C     0.59099   0.82439   0.15391   0.00000  Uiso   1.00
C409   C     0.41934   0.70165   0.37046   0.00000  Uiso   1.00
C410   C     0.54226   0.77100   0.45080   0.00000  Uiso   1.00
C411   C     0.36688   0.71221   0.37170   0.00000  Uiso   1.00
C412   C     0.66047   0.68460   0.35031   0.00000  Uiso   1.00
C413   C     0.33954   0.64757   0.32604   0.00000  Uiso   1.00
C414   C     0.39135   0.63482   0.32848   0.00000  Uiso   1.00
C415   C     0.43062   0.66071   0.35288   0.00000  Uiso   1.00
C416   C     0.48103   0.71378   0.10164   0.00000  Uiso   1.00
C417   C     0.53972   0.77125   0.40092   0.00000  Uiso   1.00
C418   C     0.52078   0.78552   0.10207   0.00000  Uiso   1.00
C419   C     0.46162   0.72827   0.39601   0.00000  Uiso   1.00
C420   C     0.52230   0.78505   0.05293   0.00000  Uiso   1.00
H421   H     0.65955   0.73515   0.19832   0.00000  Uiso   1.00
H422   H     0.57010   0.78818   0.38403   0.00000  Uiso   1.00
H423   H     0.53779   0.81394   0.03498   0.00000  Uiso   1.00
H424   H     0.43174   0.71128   0.46153   0.00000  Uiso   1.00
H425   H     0.42587   0.52007   0.33740   0.00000  Uiso   1.00
H426   H     0.46386   0.56028   0.37425   0.00000  Uiso   1.00
H427   H     0.46339   0.50222   0.39209   0.00000  Uiso   1.00
H428   H     0.38093   0.97660   0.27956   0.00000  Uiso   1.00
H429   H     0.35266   0.92995   0.24568   0.00000  Uiso   1.00
H430   H     0.66349   0.98579   0.23127   0.00000  Uiso   1.00
H431   H     0.55880   0.56696   0.39218   0.00000  Uiso   1.00
H432   H     0.34040   0.77028   0.29997   0.00000  Uiso   1.00
H433   H     0.60529   0.60920   0.38396   0.00000  Uiso   1.00
H434   H     0.59922   0.56414   0.34413   0.00000  Uiso   1.00
H435   H     0.38701   0.86767   0.13006   0.00000  Uiso   1.00
H436   H     0.42896   0.91577   0.13810   0.00000  Uiso   1.00
H437   H     0.36278   0.91724   0.15178   0.00000  Uiso   1.00
H438   H     0.48028   0.86855   0.09324   0.00000  Uiso   1.00
H439   H     0.51848   0.93682   0.13090   0.00000  Uiso   1.00
H440   H     0.60092   0.93264   0.18557   0.00000  Uiso   1.00
H441   H     0.64723   0.86049   0.20059   0.00000  Uiso   1.00
H442   H     0.61345   0.79419   0.15754   0.00000  Uiso   1.00
H443   H     0.47241   0.61228   0.17792   0.00000  Uiso   1.00
H444   H     0.35682   0.74161   0.38920   0.00000  Uiso   1.00
H445   H     0.62013   0.69208   0.35214   0.00000  Uiso   1.00
H446   H     0.64236   0.62786   0.30684   0.00000  Uiso   1.00
H447   H     0.40089   0.60445   0.31250   0.00000  Uiso   1.00
H448   H     0.46977   0.64876   0.35927   0.00000  Uiso   1.00
H449   H     0.57229   0.89017   0.28861   0.00000  Uiso   1.00
H450   H     0.46826   0.53163   0.17785   0.00000  Uiso   1.00
H451   H     0.56828   0.97127   0.28957   0.00000  Uiso   1.00
H452   H     0.46781   0.68250   0.03457   0.00000  Uiso   1.00
H453   H     0.57492   0.78755   0.47098   0.00000  Uiso   1.00
H454   H     0.46480   0.68567   0.12010   0.00000  Uiso   1.00
N455   N     0.50000   0.74999   0.12624   0.00000  Uiso   1.00
N456   N     0.50000   0.75001   0.37377   0.00000  Uiso   1.00
O457   O     0.50000   0.68453   0.28974   0.00000  Uiso   1.00
O458   O     0.40168   0.97281   0.21140   0.00000  Uiso   1.00
O459   O     0.53937   0.61204   0.33517   0.00000  Uiso   1.00
O460   O     0.41252   0.87894   0.19993   0.00000  Uiso   1.00
O461   O     0.50000   0.81546   0.21026   0.00000  Uiso   1.00
O462   O     0.50000   0.68453   0.21026   0.00000  Uiso   1.00
O463   O     0.50000   0.81547   0.28974   0.00000  Uiso   1.00
O464   O     0.42392   0.75000   0.28045   0.00000  Uiso   1.00
O465   O     0.57608   0.75000   0.21956   0.00000  Uiso   1.00
O466   O     0.42392   0.74999   0.20097   0.00000  Uiso   1.00
O467   O     0.57608   0.75000   0.29904   0.00000  Uiso   1.00
O468   O     0.50699   0.51803   0.33839   0.00000  Uiso   1.00
Zn469  Zn    0.50000   0.75000   0.30307   0.00000  Uiso   1.00
Zn470  Zn    0.50000   0.74999   0.19693   0.00000  Uiso   1.00
C471   C     0.83477   0.66365   0.25116   0.00000  Uiso   1.00
C472   C     0.79619   0.72811   0.44545   0.00000  Uiso   1.00
C473   C     0.83674   0.74831   0.02707   0.00000  Uiso   1.00
C474   C     0.83671   0.74894   0.47397   0.00000  Uiso   1.00
C475   C     0.73386   0.74980   0.23784   0.00000  Uiso   1.00
C476   C     0.93277   0.75193   0.26192   0.00000  Uiso   1.00
C477   C     0.67908   0.74727   0.23155   0.00000  Uiso   1.00
C478   C     0.98740   0.75750   0.26717   0.00000  Uiso   1.00
C479   C     0.83660   0.54370   0.29658   0.00000  Uiso   1.00
C480   C     0.78047   0.95078   0.22903   0.00000  Uiso   1.00
C481   C     0.84885   0.58989   0.29576   0.00000  Uiso   1.00
C482   C     0.83280   0.83583   0.24904   0.00000  Uiso   1.00
C483   C     0.78548   0.90468   0.22352   0.00000  Uiso   1.00
C484   C     0.83384   0.61500   0.25304   0.00000  Uiso   1.00
C485   C     0.82999   0.88339   0.24708   0.00000  Uiso   1.00
C486   C     0.81614   0.59360   0.21110   0.00000  Uiso   1.00
C487   C     0.87112   0.90710   0.27134   0.00000  Uiso   1.00
C488   C     0.81227   0.54776   0.21109   0.00000  Uiso   1.00
C489   C     0.86842   0.95283   0.27247   0.00000  Uiso   1.00
C490   C     0.82221   0.52287   0.25358   0.00000  Uiso   1.00
C491   C     0.82306   0.97465   0.25212   0.00000  Uiso   1.00
C492   C     0.79624   0.52588   0.36104   0.00000  Uiso   1.00
C493   C     0.81588   0.71218   0.05242   0.00000  Uiso   1.00
C494   C     0.69855   0.96561   0.24370   0.00000  Uiso   1.00
C495   C     0.91031   0.58623   0.36446   0.00000  Uiso   1.00
C496   C     0.73107   0.89613   0.15320   0.00000  Uiso   1.00
C497   C     0.87565   0.82561   0.12590   0.00000  Uiso   1.00
C498   C     0.85001   0.86659   0.11680   0.00000  Uiso   1.00
C499   C     0.87154   0.90522   0.13788   0.00000  Uiso   1.00
C500   C     0.91829   0.90295   0.16851   0.00000  Uiso   1.00
C501   C     0.94444   0.86242   0.17684   0.00000  Uiso   1.00
C502   C     0.92433   0.82439   0.15391   0.00000  Uiso   1.00
C503   C     0.75267   0.70165   0.37046   0.00000  Uiso   1.00
C504   C     0.87559   0.77100   0.45080   0.00000  Uiso   1.00
C505   C     0.70021   0.71221   0.37170   0.00000  Uiso   1.00
C506   C     0.99380   0.68460   0.35031   0.00000  Uiso   1.00
C507   C     0.67287   0.64757   0.32604   0.00000  Uiso   1.00
C508   C     0.72469   0.63482   0.32848   0.00000  Uiso   1.00
C509   C     0.76395   0.66071   0.35288   0.00000  Uiso   1.00
C510   C     0.81436   0.71378   0.10164   0.00000  Uiso   1.00
C511   C     0.87305   0.77125   0.40092   0.00000  Uiso   1.00
C512   C     0.85412   0.78552   0.10207   0.00000  Uiso   1.00
C513   C     0.79496   0.72827   0.39601   0.00000  Uiso   1.00
C514   C     0.85563   0.78505   0.05293   0.00000  Uiso   1.00
H515   H     0.99288   0.73515   0.19832   0.00000  Uiso   1.00
H516   H     0.90343   0.78818   0.38403   0.00000  Uiso   1.00
H517   H     0.87112   0.81394   0.03498   0.00000  Uiso   1.00
H518   H     0.76507   0.71128   0.46153   0.00000  Uiso   1.00
H519   H     0.75920   0.52007   0.33740   0.00000  Uiso   1.00
H520   H     0.79719   0.56028   0.37425   0.00000  Uiso   1.00
H521   H     0.79673   0.50222   0.39209   0.00000  Uiso   1.00
H522   H     0.71427   0.97660   0.27956   0.00000  Uiso   1.00
H523   H     0.68600   0.92995   0.24568   0.00000  Uiso   1.00
H524   H     0.99682   0.98579   0.23127   0.00000  Uiso   1.00
H525   H     0.89213   0.56696   0.39218   0.00000  Uiso   1.00
H526   H     0.67373   0.77028   0.29997   0.00000  Uiso   1.00
H527   H     0.93862   0.60920   0.38396   0.00000  Uiso   1.00
H528   H     0.93256   0.56414   0.34413   0.00000  Uiso   1.00
H529   H     0.72034   0.86767   0.13006   0.00000  Uiso   1.00
H530   H     0.76230   0.91577   0.13810   0.00000  Uiso   1.00
H531   H     0.69611   0.91724   0.15178   0.00000  Uiso   1.00
H532   H     0.81362   0.86855   0.09324   0.00000  Uiso   1.00
H533   H     0.85181   0.93682   0.13090   0.00000  Uiso   1.00
H534   H     0.93426   0.93264   0.18557   0.00000  Uiso   1.00
H535   H     0.98056   0.86049   0.20059   0.00000  Uiso   1.00
H536   H     0.94678   0.79419   0.15754   0.00000  Uiso   1.00
H537   H     0.80575   0.61228   0.17792   0.00000  Uiso   1.00
H538   H     0.69015   0.74161   0.38920   0.00000  Uiso   1.00
H539   H     0.95346   0.69208   0.35214   0.00000  Uiso   1.00
H540   H     0.97569   0.62786   0.30684   0.00000  Uiso   1.00
H541   H     0.73423   0.60445   0.31250   0.00000  Uiso   1.00
H542   H     0.80310   0.64876   0.35927   0.00000  Uiso   1.00
H543   H     0.90563   0.89017   0.28861   0.00000  Uiso   1.00
H544   H     0.80159   0.53163   0.17785   0.00000  Uiso   1.00
H545   H     0.90162   0.97127   0.28957   0.00000  Uiso   1.00
H546   H     0.80115   0.68250   0.03457   0.00000  Uiso   1.00
H547   H     0.90825   0.78755   0.47098   0.00000  Uiso   1.00
H548   H     0.79813   0.68567   0.12010   0.00000  Uiso   1.00
N549   N     0.83333   0.74999   0.12624   0.00000  Uiso   1.00
N550   N     0.83333   0.75001   0.37377   0.00000  Uiso   1.00
O551   O     0.83334   0.68453   0.28974   0.00000  Uiso   1.00
O552   O     0.73501   0.97281   0.21140   0.00000  Uiso   1.00
O553   O     0.87270   0.61204   0.33517   0.00000  Uiso   1.00
O554   O     0.74586   0.87894   0.19993   0.00000  Uiso   1.00
O555   O     0.83333   0.81546   0.21026   0.00000  Uiso   1.00
O556   O     0.83334   0.68453   0.21026   0.00000  Uiso   1.00
O557   O     0.83333   0.81547   0.28974   0.00000  Uiso   1.00
O558   O     0.75725   0.75000   0.28045   0.00000  Uiso   1.00
O559   O     0.90942   0.75000   0.21956   0.00000  Uiso   1.00
O560   O     0.75725   0.74999   0.20097   0.00000  Uiso   1.00
O561   O     0.90942   0.75000   0.29904   0.00000  Uiso   1.00
O562   O     0.84032   0.51803   0.33839   0.00000  Uiso   1.00
Zn563  Zn    0.83333   0.75000   0.30307   0.00000  Uiso   1.00
Zn564  Zn    0.83333   0.74999   0.19693   0.00000  Uiso   1.00
C565   C     0.16810   0.16365   0.75116   0.00000  Uiso   1.00
C566   C     0.12952   0.22811   0.94545   0.00000  Uiso   1.00
C567   C     0.17008   0.24831   0.52707   0.00000  Uiso   1.00
C568   C     0.17005   0.24894   0.97397   0.00000  Uiso   1.00
C569   C     0.06719   0.24980   0.73784   0.00000  Uiso   1.00
C570   C     0.26610   0.25193   0.76192   0.00000  Uiso   1.00
C571   C     0.01242   0.24727   0.73155   0.00000  Uiso   1.00
C572   C     0.32074   0.25750   0.76717   0.00000  Uiso   1.00
C573   C     0.16993   0.04370   0.79658   0.00000  Uiso   1.00
C574   C     0.11381   0.45078   0.72903   0.00000  Uiso   1.00
C575   C     0.18219   0.08989   0.79576   0.00000  Uiso   1.00
C576   C     0.16613   0.33583   0.74904   0.00000  Uiso   1.00
C577   C     0.11881   0.40468   0.72352   0.00000  Uiso   1.00
C578   C     0.16717   0.11500   0.75304   0.00000  Uiso   1.00
C579   C     0.16332   0.38339   0.74708   0.00000  Uiso   1.00
C580   C     0.14947   0.09360   0.71110   0.00000  Uiso   1.00
C581   C     0.20445   0.40710   0.77134   0.00000  Uiso   1.00
C582   C     0.14560   0.04776   0.71109   0.00000  Uiso   1.00
C583   C     0.20176   0.45283   0.77247   0.00000  Uiso   1.00
C584   C     0.15554   0.02287   0.75358   0.00000  Uiso   1.00
C585   C     0.15640   0.47465   0.75212   0.00000  Uiso   1.00
C586   C     0.12957   0.02588   0.86104   0.00000  Uiso   1.00
C587   C     0.14922   0.21218   0.55242   0.00000  Uiso   1.00
C588   C     0.03189   0.46561   0.74370   0.00000  Uiso   1.00
C589   C     0.24364   0.08623   0.86446   0.00000  Uiso   1.00
C590   C     0.06440   0.39613   0.65320   0.00000  Uiso   1.00
C591   C     0.20898   0.32561   0.62590   0.00000  Uiso   1.00
C592   C     0.18334   0.36659   0.61680   0.00000  Uiso   1.00
C593   C     0.20487   0.40522   0.63788   0.00000  Uiso   1.00
C594   C     0.25162   0.40295   0.66851   0.00000  Uiso   1.00
C595   C     0.27777   0.36242   0.67684   0.00000  Uiso   1.00
C596   C     0.25766   0.32439   0.65391   0.00000  Uiso   1.00
C597   C     0.08601   0.20165   0.87046   0.00000  Uiso   1.00
C598   C     0.20893   0.27100   0.95080   0.00000  Uiso   1.00
C599   C     0.03355   0.21221   0.87170   0.00000  Uiso   1.00
C600   C     0.32713   0.18460   0.85031   0.00000  Uiso   1.00
C601   C     0.00620   0.14757   0.82604   0.00000  Uiso   1.00
C602   C     0.05802   0.13482   0.82848   0.00000  Uiso   1.00
C603   C     0.09729   0.16071   0.85288   0.00000  Uiso   1.00
C604   C     0.14769   0.21378   0.60164   0.00000  Uiso   1.00
C605   C     0.20639   0.27125   0.90092   0.00000  Uiso   1.00
C606   C     0.18745   0.28552   0.60207   0.00000  Uiso   1.00
C607   C     0.12829   0.22827   0.89601   0.00000  Uiso   1.00
C608   C     0.18897   0.28505   0.55293   0.00000  Uiso   1.00
H609   H     0.32621   0.23515   0.69832   0.00000  Uiso   1.00
H610   H     0.23676   0.28818   0.88403   0.00000  Uiso   1.00
H611   H     0.20446   0.31394   0.53498   0.00000  Uiso   1.00
H612   H     0.09840   0.21128   0.96153   0.00000  Uiso   1.00
H613   H     0.09253   0.02007   0.83740   0.00000  Uiso   1.00
H614   H     0.13052   0.06028   0.87425   0.00000  Uiso   1.00
H615   H     0.13006   0.00222   0.89209   0.00000  Uiso   1.00
H616   H     0.04760   0.47660   0.77956   0.00000  Uiso   1.00
H617   H     0.01933   0.42995   0.74568   0.00000  Uiso   1.00
H618   H     0.33016   0.48579   0.73127   0.00000  Uiso   1.00
H619   H     0.22547   0.06696   0.89218   0.00000  Uiso   1.00
H620   H     0.00707   0.27028   0.79997   0.00000  Uiso   1.00
H621   H     0.27195   0.10920   0.88396   0.00000  Uiso   1.00
H622   H     0.26589   0.06414   0.84413   0.00000  Uiso   1.00
H623   H     0.05368   0.36767   0.63006   0.00000  Uiso   1.00
H624   H     0.09563   0.41577   0.63810   0.00000  Uiso   1.00
H625   H     0.02944   0.41724   0.65178   0.00000  Uiso   1.00
H626   H     0.14695   0.36855   0.59324   0.00000  Uiso   1.00
H627   H     0.18514   0.43682   0.63090   0.00000  Uiso   1.00
H628   H     0.26759   0.43264   0.68557   0.00000  Uiso   1.00
H629   H     0.31389   0.36049   0.70059   0.00000  Uiso   1.00
H630   H     0.28012   0.29419   0.65754   0.00000  Uiso   1.00
H631   H     0.13908   0.11228   0.67792   0.00000  Uiso   1.00
H632   H     0.02348   0.24161   0.88920   0.00000  Uiso   1.00
H633   H     0.28680   0.19208   0.85214   0.00000  Uiso   1.00
H634   H     0.30902   0.12786   0.80684   0.00000  Uiso   1.00
H635   H     0.06756   0.10445   0.81250   0.00000  Uiso   1.00
H636   H     0.13644   0.14876   0.85927   0.00000  Uiso   1.00
H637   H     0.23896   0.39017   0.78861   0.00000  Uiso   1.00
H638   H     0.13492   0.03163   0.67785   0.00000  Uiso   1.00
H639   H     0.23495   0.47127   0.78957   0.00000  Uiso   1.00
H640   H     0.13448   0.18250   0.53457   0.00000  Uiso   1.00
H641   H     0.24158   0.28755   0.97098   0.00000  Uiso   1.00
H642   H     0.13146   0.18567   0.62010   0.00000  Uiso   1.00
N643   N     0.16667   0.24999   0.62624   0.00000  Uiso   1.00
N644   N     0.16667   0.25001   0.87377   0.00000  Uiso   1.00
O645   O     0.16667   0.18453   0.78974   0.00000  Uiso   1.00
O646   O     0.06834   0.47281   0.71140   0.00000  Uiso   1.00
O647   O     0.20603   0.11204   0.83517   0.00000  Uiso   1.00
O648   O     0.07919   0.37894   0.69993   0.00000  Uiso   1.00
O649   O     0.16666   0.31546   0.71026   0.00000  Uiso   1.00
O650   O     0.16667   0.18453   0.71026   0.00000  Uiso   1.00
O651   O     0.16666   0.31547   0.78974   0.00000  Uiso   1.00
O652   O     0.09058   0.25000   0.78045   0.00000  Uiso   1.00
O653   O     0.24275   0.25000   0.71956   0.00000  Uiso   1.00
O654   O     0.09058   0.24999   0.70097   0.00000  Uiso   1.00
O655   O     0.24275   0.25000   0.79904   0.00000  Uiso   1.00
O656   O     0.17366   0.01803   0.83839   0.00000  Uiso   1.00
Zn657  Zn    0.16667   0.25000   0.80307   0.00000  Uiso   1.00
Zn658  Zn    0.16667   0.24999   0.69693   0.00000  Uiso   1.00
C659   C     0.50143   0.16365   0.75116   0.00000  Uiso   1.00
C660   C     0.46285   0.22811   0.94545   0.00000  Uiso   1.00
C661   C     0.50341   0.24831   0.52707   0.00000  Uiso   1.00
C662   C     0.50338   0.24894   0.97397   0.00000  Uiso   1.00
C663   C     0.40052   0.24980   0.73784   0.00000  Uiso   1.00
C664   C     0.59944   0.25193   0.76192   0.00000  Uiso   1.00
C665   C     0.34575   0.24727   0.73155   0.00000  Uiso   1.00
C666   C     0.65407   0.25750   0.76717   0.00000  Uiso   1.00
C667   C     0.50327   0.04370   0.79658   0.00000  Uiso   1.00
C668   C     0.44714   0.45078   0.72903   0.00000  Uiso   1.00
C669   C     0.51552   0.08989   0.79576   0.00000  Uiso   1.00
C670   C     0.49947   0.33583   0.74904   0.00000  Uiso   1.00
C671   C     0.45215   0.40468   0.72352   0.00000  Uiso   1.00
C672   C     0.50050   0.11500   0.75304   0.00000  Uiso   1.00
C673   C     0.49666   0.38339   0.74708   0.00000  Uiso   1.00
C674   C     0.48281   0.09360   0.71110   0.00000  Uiso   1.00
C675   C     0.53779   0.40710   0.77134   0.00000  Uiso   1.00
C676   C     0.47893   0.04776   0.71109   0.00000  Uiso   1.00
C677   C     0.53509   0.45283   0.77247   0.00000  Uiso   1.00
C678   C     0.48888   0.02287   0.75358   0.00000  Uiso   1.00
C679   C     0.48973   0.47465   0.75212   0.00000  Uiso   1.00
C680   C     0.46291   0.02588   0.86104   0.00000  Uiso   1.00
C681   C     0.48255   0.21218   0.55242   0.00000  Uiso   1.00
C682   C     0.36522   0.46561   0.74370   0.00000  Uiso   1.00
C683   C     0.57698   0.08623   0.86446   0.00000  Uiso   1.00
C684   C     0.39774   0.39613   0.65320   0.00000  Uiso   1.00
C685   C     0.54231   0.32561   0.62590   0.00000  Uiso   1.00
C686   C     0.51668   0.36659   0.61680   0.00000  Uiso   1.00
C687   C     0.53820   0.40522   0.63788   0.00000  Uiso   1.00
C688   C     0.58495   0.40295   0.66851   0.00000  Uiso   1.00
C689   C     0.61110   0.36242   0.67684   0.00000  Uiso   1.00
C690   C     0.59099   0.32439   0.65391   0.00000  Uiso   1.00
C691   C     0.41934   0.20165   0.87046   0.00000  Uiso   1.00
C692   C     0.54226   0.27100   0.95080   0.00000  Uiso   1.00
C693   C     0.36688   0.21221   0.87170   0.00000  Uiso   1.00
C694   C     0.66047   0.18460   0.85031   0.00000  Uiso   1.00
C695   C     0.33954   0.14757   0.82604   0.00000  Uiso   1.00
C696   C     0.39135   0.13482   0.82848   0.00000  Uiso   1.00
C697   C     0.43062   0.16071   0.85288   0.00000  Uiso   1.00
C698   C     0.48103   0.21378   0.60164   0.00000  Uiso   1.00
C699   C     0.53972   0.27125   0.90092   0.00000  Uiso   1.00
C700   C     0.52078   0.28552   0.60207   0.00000  Uiso   1.00
C701   C     0.46162   0.22827   0.89601   0.00000  Uiso   1.00
C702   C     0.52230   0.28505   0.55293   0.00000  Uiso   1.00
H703   H     0.65955   0.23515   0.69832   0.00000  Uiso   1.00
H704   H     0.57010   0.28818   0.88403   0.00000  Uiso   1.00
H705   H     0.53779   0.31394   0.53498   0.00000  Uiso   1.00
H706   H     0.43174   0.21128   0.96153   0.00000  Uiso   1.00
H707   H     0.42587   0.02007   0.83740   0.00000  Uiso   1.00
H708   H     0.46386   0.06028   0.87425   0.00000  Uiso   1.00
H709   H     0.46339   0.00222   0.89209   0.00000  Uiso   1.00
H710   H     0.38093   0.47660   0.77956   0.00000  Uiso   1.00
H711   H     0.35266   0.42995   0.74568   0.00000  Uiso   1.00
H712   H     0.66349   0.48579   0.73127   0.00000  Uiso   1.00
H713   H     0.55880   0.06696   0.89218   0.00000  Uiso   1.00
H714   H     0.34040   0.27028   0.79997   0.00000  Uiso   1.00
H715   H     0.60529   0.10920   0.88396   0.00000  Uiso   1.00
H716   H     0.59922   0.06414   0.84413   0.00000  Uiso   1.00
H717   H     0.38701   0.36767   0.63006   0.00000  Uiso   1.00
H718   H     0.42896   0.41577   0.63810   0.00000  Uiso   1.00
H719   H     0.36278   0.41724   0.65178   0.00000  Uiso   1.00
H720   H     0.48028   0.36855   0.59324   0.00000  Uiso   1.00
H721   H     0.51848   0.43682   0.63090   0.00000  Uiso   1.00
H722   H     0.60092   0.43264   0.68557   0.00000  Uiso   1.00
H723   H     0.64723   0.36049   0.70059   0.00000  Uiso   1.00
H724   H     0.61345   0.29419   0.65754   0.00000  Uiso   1.00
H725   H     0.47241   0.11228   0.67792   0.00000  Uiso   1.00
H726   H     0.35682   0.24161   0.88920   0.00000  Uiso   1.00
H727   H     0.62013   0.19208   0.85214   0.00000  Uiso   1.00
H728   H     0.64236   0.12786   0.80684   0.00000  Uiso   1.00
H729   H     0.40089   0.10445   0.81250   0.00000  Uiso   1.00
H730   H     0.46977   0.14876   0.85927   0.00000  Uiso   1.00
H731   H     0.57229   0.39017   0.78861   0.00000  Uiso   1.00
H732   H     0.46826   0.03163   0.67785   0.00000  Uiso   1.00
H733   H     0.56828   0.47127   0.78957   0.00000  Uiso   1.00
H734   H     0.46781   0.18250   0.53457   0.00000  Uiso   1.00
H735   H     0.57492   0.28755   0.97098   0.00000  Uiso   1.00
H736   H     0.46480   0.18567   0.62010   0.00000  Uiso   1.00
N737   N     0.50000   0.24999   0.62624   0.00000  Uiso   1.00
N738   N     0.50000   0.25001   0.87377   0.00000  Uiso   1.00
O739   O     0.50000   0.18453   0.78974   0.00000  Uiso   1.00
O740   O     0.40168   0.47281   0.71140   0.00000  Uiso   1.00
O741   O     0.53937   0.11204   0.83517   0.00000  Uiso   1.00
O742   O     0.41252   0.37894   0.69993   0.00000  Uiso   1.00
O743   O     0.50000   0.31546   0.71026   0.00000  Uiso   1.00
O744   O     0.50000   0.18453   0.71026   0.00000  Uiso   1.00
O745   O     0.50000   0.31547   0.78974   0.00000  Uiso   1.00
O746   O     0.42392   0.25000   0.78045   0.00000  Uiso   1.00
O747   O     0.57608   0.25000   0.71956   0.00000  Uiso   1.00
O748   O     0.42392   0.24999   0.70097   0.00000  Uiso   1.00
O749   O     0.57608   0.25000   0.79904   0.00000  Uiso   1.00
O750   O     0.50699   0.01803   0.83839   0.00000  Uiso   1.00
Zn751  Zn    0.50000   0.25000   0.80307   0.00000  Uiso   1.00
Zn752  Zn    0.50000   0.24999   0.69693   0.00000  Uiso   1.00
C753   C     0.83477   0.16365   0.75116   0.00000  Uiso   1.00
C754   C     0.79619   0.22811   0.94545   0.00000  Uiso   1.00
C755   C     0.83674   0.24831   0.52707   0.00000  Uiso   1.00
C756   C     0.83671   0.24894   0.97397   0.00000  Uiso   1.00
C757   C     0.73386   0.24980   0.73784   0.00000  Uiso   1.00
C758   C     0.93277   0.25193   0.76192   0.00000  Uiso   1.00
C759   C     0.67908   0.24727   0.73155   0.00000  Uiso   1.00
C760   C     0.98740   0.25750   0.76717   0.00000  Uiso   1.00
C761   C     0.83660   0.04370   0.79658   0.00000  Uiso   1.00
C762   C     0.78047   0.45078   0.72903   0.00000  Uiso   1.00
C763   C     0.84885   0.08989   0.79576   0.00000  Uiso   1.00
C764   C     0.83280   0.33583   0.74904   0.00000  Uiso   1.00
C765   C     0.78548   0.40468   0.72352   0.00000  Uiso   1.00
C766   C     0.83384   0.11500   0.75304   0.00000  Uiso   1.00
C767   C     0.82999   0.38339   0.74708   0.00000  Uiso   1.00
C768   C     0.81614   0.09360   0.71110   0.00000  Uiso   1.00
C769   C     0.87112   0.40710   0.77134   0.00000  Uiso   1.00
C770   C     0.81227   0.04776   0.71109   0.00000  Uiso   1.00
C771   C     0.86842   0.45283   0.77247   0.00000  Uiso   1.00
C772   C     0.82221   0.02287   0.75358   0.00000  Uiso   1.00
C773   C     0.82306   0.47465   0.75212   0.00000  Uiso   1.00
C774   C     0.79624   0.02588   0.86104   0.00000  Uiso   1.00
C775   C     0.81588   0.21218   0.55242   0.00000  Uiso   1.00
C776   C     0.69855   0.46561   0.74370   0.00000  Uiso   1.00
C777   C     0.91031   0.08623   0.86446   0.00000  Uiso   1.00
C778   C     0.73107   0.39613   0.65320   0.00000  Uiso   1.00
C779   C     0.87565   0.32561   0.62590   0.00000  Uiso   1.00
C780   C     0.85001   0.36659   0.61680   0.00000  Uiso   1.00
C781   C     0.87154   0.40522   0.63788   0.00000  Uiso   1.00
C782   C     0.91829   0.40295   0.66851   0.00000  Uiso   1.00
C783   C     0.94444   0.36242   0.67684   0.00000  Uiso   1.00
C784   C     0.92433   0.32439   0.65391   0.00000  Uiso   1.00
C785   C     0.75267   0.20165   0.87046   0.00000  Uiso   1.00
C786   C     0.87559   0.27100   0.95080   0.00000  Uiso   1.00
C787   C     0.70021   0.21221   0.87170   0.00000  Uiso   1.00
C788   C     0.99380   0.18460   0.85031   0.00000  Uiso   1.00
C789   C     0.67287   0.14757   0.82604   0.00000  Uiso   1.00
C790   C     0.72469   0.13482   0.82848   0.00000  Uiso   1.00
C791   C     0.76395   0.16071   0.85288   0.00000  Uiso   1.00
C792   C     0.81436   0.21378   0.60164   0.00000  Uiso   1.00
C793   C     0.87305   0.27125   0.90092   0.00000  Uiso   1.00
C794   C     0.85412   0.28552   0.60207   0.00000  Uiso   1.00
C795   C     0.79496   0.22827   0.89601   0.00000  Uiso   1.00
C796   C     0.85563   0.28505   0.55293   0.00000  Uiso   1.00
H797   H     0.99288   0.23515   0.69832   0.00000  Uiso   1.00
H798   H     0.90343   0.28818   0.88403   0.00000  Uiso   1.00
H799   H     0.87112   0.31394   0.53498   0.00000  Uiso   1.00
H800   H     0.76507   0.21128   0.96153   0.00000  Uiso   1.00
H801   H     0.75920   0.02007   0.83740   0.00000  Uiso   1.00
H802   H     0.79719   0.06028   0.87425   0.00000  Uiso   1.00
H803   H     0.79673   0.00222   0.89209   0.00000  Uiso   1.00
H804   H     0.71427   0.47660   0.77956   0.00000  Uiso   1.00
H805   H     0.68600   0.42995   0.74568   0.00000  Uiso   1.00
H806   H     0.99682   0.48579   0.73127   0.00000  Uiso   1.00
H807   H     0.89213   0.06696   0.89218   0.00000  Uiso   1.00
H808   H     0.67373   0.27028   0.79997   0.00000  Uiso   1.00
H809   H     0.93862   0.10920   0.88396   0.00000  Uiso   1.00
H810   H     0.93256   0.06414   0.84413   0.00000  Uiso   1.00
H811   H     0.72034   0.36767   0.63006   0.00000  Uiso   1.00
H812   H     0.76230   0.41577   0.63810   0.00000  Uiso   1.00
H813   H     0.69611   0.41724   0.65178   0.00000  Uiso   1.00
H814   H     0.81362   0.36855   0.59324   0.00000  Uiso   1.00
H815   H     0.85181   0.43682   0.63090   0.00000  Uiso   1.00
H816   H     0.93426   0.43264   0.68557   0.00000  Uiso   1.00
H817   H     0.98056   0.36049   0.70059   0.00000  Uiso   1.00
H818   H     0.94678   0.29419   0.65754   0.00000  Uiso   1.00
H819   H     0.80575   0.11228   0.67792   0.00000  Uiso   1.00
H820   H     0.69015   0.24161   0.88920   0.00000  Uiso   1.00
H821   H     0.95346   0.19208   0.85214   0.00000  Uiso   1.00
H822   H     0.97569   0.12786   0.80684   0.00000  Uiso   1.00
H823   H     0.73423   0.10445   0.81250   0.00000  Uiso   1.00
H824   H     0.80310   0.14876   0.85927   0.00000  Uiso   1.00
H825   H     0.90563   0.39017   0.78861   0.00000  Uiso   1.00
H826   H     0.80159   0.03163   0.67785   0.00000  Uiso   1.00
H827   H     0.90162   0.47127   0.78957   0.00000  Uiso   1.00
H828   H     0.80115   0.18250   0.53457   0.00000  Uiso   1.00
H829   H     0.90825   0.28755   0.97098   0.00000  Uiso   1.00
H830   H     0.79813   0.18567   0.62010   0.00000  Uiso   1.00
N831   N     0.83333   0.24999   0.62624   0.00000  Uiso   1.00
N832   N     0.83333   0.25001   0.87377   0.00000  Uiso   1.00
O833   O     0.83334   0.18453   0.78974   0.00000  Uiso   1.00
O834   O     0.73501   0.47281   0.71140   0.00000  Uiso   1.00
O835   O     0.87270   0.11204   0.83517   0.00000  Uiso   1.00
O836   O     0.74586   0.37894   0.69993   0.00000  Uiso   1.00
O837   O     0.83333   0.31546   0.71026   0.00000  Uiso   1.00
O838   O     0.83334   0.18453   0.71026   0.00000  Uiso   1.00
O839   O     0.83333   0.31547   0.78974   0.00000  Uiso   1.00
O840   O     0.75725   0.25000   0.78045   0.00000  Uiso   1.00
O841   O     0.90942   0.25000   0.71956   0.00000  Uiso   1.00
O842   O     0.75725   0.24999   0.70097   0.00000  Uiso   1.00
O843   O     0.90942   0.25000   0.79904   0.00000  Uiso   1.00
O844   O     0.84032   0.01803   0.83839   0.00000  Uiso   1.00
Zn845  Zn    0.83333   0.25000   0.80307   0.00000  Uiso   1.00
Zn846  Zn    0.83333   0.24999   0.69693   0.00000  Uiso   1.00
C847   C     0.16810   0.66365   0.75116   0.00000  Uiso   1.00
C848   C     0.12952   0.72811   0.94545   0.00000  Uiso   1.00
C849   C     0.17008   0.74831   0.52707   0.00000  Uiso   1.00
C850   C     0.17005   0.74894   0.97397   0.00000  Uiso   1.00
C851   C     0.06719   0.74980   0.73784   0.00000  Uiso   1.00
C852   C     0.26610   0.75193   0.76192   0.00000  Uiso   1.00
C853   C     0.01242   0.74727   0.73155   0.00000  Uiso   1.00
C854   C     0.32074   0.75750   0.76717   0.00000  Uiso   1.00
C855   C     0.16993   0.54370   0.79658   0.00000  Uiso   1.00
C856   C     0.11381   0.95078   0.72903   0.00000  Uiso   1.00
C857   C     0.18219   0.58989   0.79576   0.00000  Uiso   1.00
C858   C     0.16613   0.83583   0.74904   0.00000  Uiso   1.00
C859   C     0.11881   0.90468   0.72352   0.00000  Uiso   1.00
C860   C     0.16717   0.61500   0.75304   0.00000  Uiso   1.00
C861   C     0.16332   0.88339   0.74708   0.00000  Uiso   1.00
C862   C     0.14947   0.59360   0.71110   0.00000  Uiso   1.00
C863   C     0.20445   0.90710   0.77134   0.00000  Uiso   1.00
C864   C     0.14560   0.54776   0.71109   0.00000  Uiso   1.00
C865   C     0.20176   0.95283   0.77247   0.00000  Uiso   1.00
C866   C     0.15554   0.52287   0.75358   0.00000  Uiso   1.00
C867   C     0.15640   0.97465   0.75212   0.00000  Uiso   1.00
C868   C     0.12957   0.52588   0.86104   0.00000  Uiso   1.00
C869   C     0.14922   0.71218   0.55242   0.00000  Uiso   1.00
C870   C     0.03189   0.96561   0.74370   0.00000  Uiso   1.00
C871   C     0.24364   0.58623   0.86446   0.00000  Uiso   1.00
C872   C     0.06440   0.89613   0.65320   0.00000  Uiso   1.00
C873   C     0.20898   0.82561   0.62590   0.00000  Uiso   1.00
C874   C     0.18334   0.86659   0.61680   0.00000  Uiso   1.00
C875   C     0.20487   0.90522   0.63788   0.00000  Uiso   1.00
C876   C     0.25162   0.90295   0.66851   0.00000  Uiso   1.00
C877   C     0.27777   0.86242   0.67684   0.00000  Uiso   1.00
C878   C     0.25766   0.82439   0.65391   0.00000  Uiso   1.00
C879   C     0.08601   0.70165   0.87046   0.00000  Uiso   1.00
C880   C     0.20893   0.77100   0.95080   0.00000  Uiso   1.00
C881   C     0.03355   0.71221   0.87170   0.00000  Uiso   1.00
C882   C     0.32713   0.68460   0.85031   0.00000  Uiso   1.00
C883   C     0.00620   0.64757   0.82604   0.00000  Uiso   1.00
C884   C     0.05802   0.63482   0.82848   0.00000  Uiso   1.00
C885   C     0.09729   0.66071   0.85288   0.00000  Uiso   1.00
C886   C     0.14769   0.71378   0.60164   0.00000  Uiso   1.00
C887   C     0.20639   0.77125   0.90092   0.00000  Uiso   1.00
C888   C     0.18745   0.78552   0.60207   0.00000  Uiso   1.00
C889   C     0.12829   0.72827   0.89601   0.00000  Uiso   1.00
C890   C     0.18897   0.78505   0.55293   0.00000  Uiso   1.00
H891   H     0.32621   0.73515   0.69832   0.00000  Uiso   1.00
H892   H     0.23676   0.78818   0.88403   0.00000  Uiso   1.00
H893   H     0.20446   0.81394   0.53498   0.00000  Uiso   1.00
H894   H     0.09840   0.71128   0.96153   0.00000  Uiso   1.00
H895   H     0.09253   0.52007   0.83740   0.00000  Uiso   1.00
H896   H     0.13052   0.56028   0.87425   0.00000  Uiso   1.00
H897   H     0.13006   0.50222   0.89209   0.00000  Uiso   1.00
H898   H     0.04760   0.97660   0.77956   0.00000  Uiso   1.00
H899   H     0.01933   0.92995   0.74568   0.00000  Uiso   1.00
H900   H     0.33016   0.98579   0.73127   0.00000  Uiso   1.00
H901   H     0.22547   0.56696   0.89218   0.00000  Uiso   1.00
H902   H     0.00707   0.77028   0.79997   0.00000  Uiso   1.00
H903   H     0.27195   0.60920   0.88396   0.00000  Uiso   1.00
H904   H     0.26589   0.56414   0.84413   0.00000  Uiso   1.00
H905   H     0.05368   0.86767   0.63006   0.00000  Uiso   1.00
H906   H     0.09563   0.91577   0.63810   0.00000  Uiso   1.00
H907   H     0.02944   0.91724   0.65178   0.00000  Uiso   1.00
H908   H     0.14695   0.86855   0.59324   0.00000  Uiso   1.00
H909   H     0.18514   0.93682   0.63090   0.00000  Uiso   1.00
H910   H     0.26759   0.93264   0.68557   0.00000  Uiso   1.00
H911   H     0.31389   0.86049   0.70059   0.00000  Uiso   1.00
H912   H     0.28012   0.79419   0.65754   0.00000  Uiso   1.00
H913   H     0.13908   0.61228   0.67792   0.00000  Uiso   1.00
H914   H     0.02348   0.74161   0.88920   0.00000  Uiso   1.00
H915   H     0.28680   0.69208   0.85214   0.00000  Uiso   1.00
H916   H     0.30902   0.62786   0.80684   0.00000  Uiso   1.00
H917   H     0.06756   0.60445   0.81250   0.00000  Uiso   1.00
H918   H     0.13644   0.64876   0.85927   0.00000  Uiso   1.00
H919   H     0.23896   0.89017   0.78861   0.00000  Uiso   1.00
H920   H     0.13492   0.53163   0.67785   0.00000  Uiso   1.00
H921   H     0.23495   0.97127   0.78957   0.00000  Uiso   1.00
H922   H     0.13448   0.68250   0.53457   0.00000  Uiso   1.00
H923   H     0.24158   0.78755   0.97098   0.00000  Uiso   1.00
H924   H     0.13146   0.68567   0.62010   0.00000  Uiso   1.00
N925   N     0.16667   0.74999   0.62624   0.00000  Uiso   1.00
N926   N     0.16667   0.75001   0.87377   0.00000  Uiso   1.00
O927   O     0.16667   0.68453   0.78974   0.00000  Uiso   1.00
O928   O     0.06834   0.97281   0.71140   0.00000  Uiso   1.00
O929   O     0.20603   0.61204   0.83517   0.00000  Uiso   1.00
O930   O     0.07919   0.87894   0.69993   0.00000  Uiso   1.00
O931   O     0.16666   0.81546   0.71026   0.00000  Uiso   1.00
O932   O     0.16667   0.68453   0.71026   0.00000  Uiso   1.00
O933   O     0.16666   0.81547   0.78974   0.00000  Uiso   1.00
O934   O     0.09058   0.75000   0.78045   0.00000  Uiso   1.00
O935   O     0.24275   0.75000   0.71956   0.00000  Uiso   1.00
O936   O     0.09058   0.74999   0.70097   0.00000  Uiso   1.00
O937   O     0.24275   0.75000   0.79904   0.00000  Uiso   1.00
O938   O     0.17366   0.51803   0.83839   0.00000  Uiso   1.00
Zn939  Zn    0.16667   0.75000   0.80307   0.00000  Uiso   1.00
Zn940  Zn    0.16667   0.74999   0.69693   0.00000  Uiso   1.00
C941   C     0.50143   0.66365   0.75116   0.00000  Uiso   1.00
C942   C     0.46285   0.72811   0.94545   0.00000  Uiso   1.00
C943   C     0.50341   0.74831   0.52707   0.00000  Uiso   1.00
C944   C     0.50338   0.74894   0.97397   0.00000  Uiso   1.00
C945   C     0.40052   0.74980   0.73784   0.00000  Uiso   1.00
C946   C     0.59944   0.75193   0.76192   0.00000  Uiso   1.00
C947   C     0.34575   0.74727   0.73155   0.00000  Uiso   1.00
C948   C     0.65407   0.75750   0.76717   0.00000  Uiso   1.00
C949   C     0.50327   0.54370   0.79658   0.00000  Uiso   1.00
C950   C     0.44714   0.95078   0.72903   0.00000  Uiso   1.00
C951   C     0.51552   0.58989   0.79576   0.00000  Uiso   1.00
C952   C     0.49947   0.83583   0.74904   0.00000  Uiso   1.00
C953   C     0.45215   0.90468   0.72352   0.00000  Uiso   1.00
C954   C     0.50050   0.61500   0.75304   0.00000  Uiso   1.00
C955   C     0.49666   0.88339   0.74708   0.00000  Uiso   1.00
C956   C     0.48281   0.59360   0.71110   0.00000  Uiso   1.00
C957   C     0.53779   0.90710   0.77134   0.00000  Uiso   1.00
C958   C     0.47893   0.54776   0.71109   0.00000  Uiso   1.00
C959   C     0.53509   0.95283   0.77247   0.00000  Uiso   1.00
C960   C     0.48888   0.52287   0.75358   0.00000  Uiso   1.00
C961   C     0.48973   0.97465   0.75212   0.00000  Uiso   1.00
C962   C     0.46291   0.52588   0.86104   0.00000  Uiso   1.00
C963   C     0.48255   0.71218   0.55242   0.00000  Uiso   1.00
C964   C     0.36522   0.96561   0.74370   0.00000  Uiso   1.00
C965   C     0.57698   0.58623   0.86446   0.00000  Uiso   1.00
C966   C     0.39774   0.89613   0.65320   0.00000  Uiso   1.00
C967   C     0.54231   0.82561   0.62590   0.00000  Uiso   1.00
C968   C     0.51668   0.86659   0.61680   0.00000  Uiso   1.00
C969   C     0.53820   0.90522   0.63788   0.00000  Uiso   1.00
C970   C     0.58495   0.90295   0.66851   0.00000  Uiso   1.00
C971   C     0.61110   0.86242   0.67684   0.00000  Uiso   1.00
C972   C     0.59099   0.82439   0.65391   0.00000  Uiso   1.00
C973   C     0.41934   0.70165   0.87046   0.00000  Uiso   1.00
C974   C     0.54226   0.77100   0.95080   0.00000  Uiso   1.00
C975   C     0.36688   0.71221   0.87170   0.00000  Uiso   1.00
C976   C     0.66047   0.68460   0.85031   0.00000  Uiso   1.00
C977   C     0.33954   0.64757   0.82604   0.00000  Uiso   1.00
C978   C     0.39135   0.63482   0.82848   0.00000  Uiso   1.00
C979   C     0.43062   0.66071   0.85288   0.00000  Uiso   1.00
C980   C     0.48103   0.71378   0.60164   0.00000  Uiso   1.00
C981   C     0.53972   0.77125   0.90092   0.00000  Uiso   1.00
C982   C     0.52078   0.78552   0.60207   0.00000  Uiso   1.00
C983   C     0.46162   0.72827   0.89601   0.00000  Uiso   1.00
C984   C     0.52230   0.78505   0.55293   0.00000  Uiso   1.00
H985   H     0.65955   0.73515   0.69832   0.00000  Uiso   1.00
H986   H     0.57010   0.78818   0.88403   0.00000  Uiso   1.00
H987   H     0.53779   0.81394   0.53498   0.00000  Uiso   1.00
H988   H     0.43174   0.71128   0.96153   0.00000  Uiso   1.00
H989   H     0.42587   0.52007   0.83740   0.00000  Uiso   1.00
H990   H     0.46386   0.56028   0.87425   0.00000  Uiso   1.00
H991   H     0.46339   0.50222   0.89209   0.00000  Uiso   1.00
H992   H     0.38093   0.97660   0.77956   0.00000  Uiso   1.00
H993   H     0.35266   0.92995   0.74568   0.00000  Uiso   1.00
H994   H     0.66349   0.98579   0.73127   0.00000  Uiso   1.00
H995   H     0.55880   0.56696   0.89218   0.00000  Uiso   1.00
H996   H     0.34040   0.77028   0.79997   0.00000  Uiso   1.00
H997   H     0.60529   0.60920   0.88396   0.00000  Uiso   1.00
H998   H     0.59922   0.56414   0.84413   0.00000  Uiso   1.00
H999   H     0.38701   0.86767   0.63006   0.00000  Uiso   1.00
H1000  H     0.42896   0.91577   0.63810   0.00000  Uiso   1.00
H1001  H     0.36278   0.91724   0.65178   0.00000  Uiso   1.00
H1002  H     0.48028   0.86855   0.59324   0.00000  Uiso   1.00
H1003  H     0.51848   0.93682   0.63090   0.00000  Uiso   1.00
H1004  H     0.60092   0.93264   0.68557   0.00000  Uiso   1.00
H1005  H     0.64723   0.86049   0.70059   0.00000  Uiso   1.00
H1006  H     0.61345   0.79419   0.65754   0.00000  Uiso   1.00
H1007  H     0.47241   0.61228   0.67792   0.00000  Uiso   1.00
H1008  H     0.35682   0.74161   0.88920   0.00000  Uiso   1.00
H1009  H     0.62013   0.69208   0.85214   0.00000  Uiso   1.00
H1010  H     0.64236   0.62786   0.80684   0.00000  Uiso   1.00
H1011  H     0.40089   0.60445   0.81250   0.00000  Uiso   1.00
H1012  H     0.46977   0.64876   0.85927   0.00000  Uiso   1.00
H1013  H     0.57229   0.89017   0.78861   0.00000  Uiso   1.00
H1014  H     0.46826   0.53163   0.67785   0.00000  Uiso   1.00
H1015  H     0.56828   0.97127   0.78957   0.00000  Uiso   1.00
H1016  H     0.46781   0.68250   0.53457   0.00000  Uiso   1.00
H1017  H     0.57492   0.78755   0.97098   0.00000  Uiso   1.00
H1018  H     0.46480   0.68567   0.62010   0.00000  Uiso   1.00
N1019  N     0.50000   0.74999   0.62624   0.00000  Uiso   1.00
N1020  N     0.50000   0.75001   0.87377   0.00000  Uiso   1.00
O1021  O     0.50000   0.68453   0.78974   0.00000  Uiso   1.00
O1022  O     0.40168   0.97281   0.71140   0.00000  Uiso   1.00
O1023  O     0.53937   0.61204   0.83517   0.00000  Uiso   1.00
O1024  O     0.41252   0.87894   0.69993   0.00000  Uiso   1.00
O1025  O     0.50000   0.81546   0.71026   0.00000  Uiso   1.00
O1026  O     0.50000   0.68453   0.71026   0.00000  Uiso   1.00
O1027  O     0.50000   0.81547   0.78974   0.00000  Uiso   1.00
O1028  O     0.42392   0.75000   0.78045   0.00000  Uiso   1.00
O1029  O     0.57608   0.75000   0.71956   0.00000  Uiso   1.00
O1030  O     0.42392   0.74999   0.70097   0.00000  Uiso   1.00
O1031  O     0.57608   0.75000   0.79904   0.00000  Uiso   1.00
O1032  O     0.50699   0.51803   0.83839   0.00000  Uiso   1.00
Zn1033 Zn    0.50000   0.75000   0.80307   0.00000  Uiso   1.00
Zn1034 Zn    0.50000   0.74999   0.69693   0.00000  Uiso   1.00
C1035  C     0.83477   0.66365   0.75116   0.00000  Uiso   1.00
C1036  C     0.79619   0.72811   0.94545   0.00000  Uiso   1.00
C1037  C     0.83674   0.74831   0.52707   0.00000  Uiso   1.00
C1038  C     0.83671   0.74894   0.97397   0.00000  Uiso   1.00
C1039  C     0.73386   0.74980   0.73784   0.00000  Uiso   1.00
C1040  C     0.93277   0.75193   0.76192   0.00000  Uiso   1.00
C1041  C     0.67908   0.74727   0.73155   0.00000  Uiso   1.00
C1042  C     0.98740   0.75750   0.76717   0.00000  Uiso   1.00
C1043  C     0.83660   0.54370   0.79658   0.00000  Uiso   1.00
C1044  C     0.78047   0.95078   0.72903   0.00000  Uiso   1.00
C1045  C     0.84885   0.58989   0.79576   0.00000  Uiso   1.00
C1046  C     0.83280   0.83583   0.74904   0.00000  Uiso   1.00
C1047  C     0.78548   0.90468   0.72352   0.00000  Uiso   1.00
C1048  C     0.83384   0.61500   0.75304   0.00000  Uiso   1.00
C1049  C     0.82999   0.88339   0.74708   0.00000  Uiso   1.00
C1050  C     0.81614   0.59360   0.71110   0.00000  Uiso   1.00
C1051  C     0.87112   0.90710   0.77134   0.00000  Uiso   1.00
C1052  C     0.81227   0.54776   0.71109   0.00000  Uiso   1.00
C1053  C     0.86842   0.95283   0.77247   0.00000  Uiso   1.00
C1054  C     0.82221   0.52287   0.75358   0.00000  Uiso   1.00
C1055  C     0.82306   0.97465   0.75212   0.00000  Uiso   1.00
C1056  C     0.79624   0.52588   0.86104   0.00000  Uiso   1.00
C1057  C     0.81588   0.71218   0.55242   0.00000  Uiso   1.00
C1058  C     0.69855   0.96561   0.74370   0.00000  Uiso   1.00
C1059  C     0.91031   0.58623   0.86446   0.00000  Uiso   1.00
C1060  C     0.73107   0.89613   0.65320   0.00000  Uiso   1.00
C1061  C     0.87565   0.82561   0.62590   0.00000  Uiso   1.00
C1062  C     0.85001   0.86659   0.61680   0.00000  Uiso   1.00
C1063  C     0.87154   0.90522   0.63788   0.00000  Uiso   1.00
C1064  C     0.91829   0.90295   0.66851   0.00000  Uiso   1.00
C1065  C     0.94444   0.86242   0.67684   0.00000  Uiso   1.00
C1066  C     0.92433   0.82439   0.65391   0.00000  Uiso   1.00
C1067  C     0.75267   0.70165   0.87046   0.00000  Uiso   1.00
C1068  C     0.87559   0.77100   0.95080   0.00000  Uiso   1.00
C1069  C     0.70021   0.71221   0.87170   0.00000  Uiso   1.00
C1070  C     0.99380   0.68460   0.85031   0.00000  Uiso   1.00
C1071  C     0.67287   0.64757   0.82604   0.00000  Uiso   1.00
C1072  C     0.72469   0.63482   0.82848   0.00000  Uiso   1.00
C1073  C     0.76395   0.66071   0.85288   0.00000  Uiso   1.00
C1074  C     0.81436   0.71378   0.60164   0.00000  Uiso   1.00
C1075  C     0.87305   0.77125   0.90092   0.00000  Uiso   1.00
C1076  C     0.85412   0.78552   0.60207   0.00000  Uiso   1.00
C1077  C     0.79496   0.72827   0.89601   0.00000  Uiso   1.00
C1078  C     0.85563   0.78505   0.55293   0.00000  Uiso   1.00
H1079  H     0.99288   0.73515   0.69832   0.00000  Uiso   1.00
H1080  H     0.90343   0.78818   0.88403   0.00000  Uiso   1.00
H1081  H     0.87112   0.81394   0.53498   0.00000  Uiso   1.00
H1082  H     0.76507   0.71128   0.96153   0.00000  Uiso   1.00
H1083  H     0.75920   0.52007   0.83740   0.00000  Uiso   1.00
H1084  H     0.79719   0.56028   0.87425   0.00000  Uiso   1.00
H1085  H     0.79673   0.50222   0.89209   0.00000  Uiso   1.00
H1086  H     0.71427   0.97660   0.77956   0.00000  Uiso   1.00
H1087  H     0.68600   0.92995   0.74568   0.00000  Uiso   1.00
H1088  H     0.99682   0.98579   0.73127   0.00000  Uiso   1.00
H1089  H     0.89213   0.56696   0.89218   0.00000  Uiso   1.00
H1090  H     0.67373   0.77028   0.79997   0.00000  Uiso   1.00
H1091  H     0.93862   0.60920   0.88396   0.00000  Uiso   1.00
H1092  H     0.93256   0.56414   0.84413   0.00000  Uiso   1.00
H1093  H     0.72034   0.86767   0.63006   0.00000  Uiso   1.00
H1094  H     0.76230   0.91577   0.63810   0.00000  Uiso   1.00
H1095  H     0.69611   0.91724   0.65178   0.00000  Uiso   1.00
H1096  H     0.81362   0.86855   0.59324   0.00000  Uiso   1.00
H1097  H     0.85181   0.93682   0.63090   0.00000  Uiso   1.00
H1098  H     0.93426   0.93264   0.68557   0.00000  Uiso   1.00
H1099  H     0.98056   0.86049   0.70059   0.00000  Uiso   1.00
H1100  H     0.94678   0.79419   0.65754   0.00000  Uiso   1.00
H1101  H     0.80575   0.61228   0.67792   0.00000  Uiso   1.00
H1102  H     0.69015   0.74161   0.88920   0.00000  Uiso   1.00
H1103  H     0.95346   0.69208   0.85214   0.00000  Uiso   1.00
H1104  H     0.97569   0.62786   0.80684   0.00000  Uiso   1.00
H1105  H     0.73423   0.60445   0.81250   0.00000  Uiso   1.00
H1106  H     0.80310   0.64876   0.85927   0.00000  Uiso   1.00
H1107  H     0.90563   0.89017   0.78861   0.00000  Uiso   1.00
H1108  H     0.80159   0.53163   0.67785   0.00000  Uiso   1.00
H1109  H     0.90162   0.97127   0.78957   0.00000  Uiso   1.00
H1110  H     0.80115   0.68250   0.53457   0.00000  Uiso   1.00
H1111  H     0.90825   0.78755   0.97098   0.00000  Uiso   1.00
H1112  H     0.79813   0.68567   0.62010   0.00000  Uiso   1.00
N1113  N     0.83333   0.74999   0.62624   0.00000  Uiso   1.00
N1114  N     0.83333   0.75001   0.87377   0.00000  Uiso   1.00
O1115  O     0.83334   0.68453   0.78974   0.00000  Uiso   1.00
O1116  O     0.73501   0.97281   0.71140   0.00000  Uiso   1.00
O1117  O     0.87270   0.61204   0.83517   0.00000  Uiso   1.00
O1118  O     0.74586   0.87894   0.69993   0.00000  Uiso   1.00
O1119  O     0.83333   0.81546   0.71026   0.00000  Uiso   1.00
O1120  O     0.83334   0.68453   0.71026   0.00000  Uiso   1.00
O1121  O     0.83333   0.81547   0.78974   0.00000  Uiso   1.00
O1122  O     0.75725   0.75000   0.78045   0.00000  Uiso   1.00
O1123  O     0.90942   0.75000   0.71956   0.00000  Uiso   1.00
O1124  O     0.75725   0.74999   0.70097   0.00000  Uiso   1.00
O1125  O     0.90942   0.75000   0.79904   0.00000  Uiso   1.00
O1126  O     0.84032   0.51803   0.83839   0.00000  Uiso   1.00
Zn1127 Zn    0.83333   0.75000   0.80307   0.00000  Uiso   1.00
Zn1128 Zn    0.83333   0.74999   0.69693   0.00000  Uiso   1.00
loop_
_geom_bond_atom_site_label_1
_geom_bond_atom_site_label_2
_geom_bond_distance
_geom_bond_site_symmetry_2
_ccdc_geom_bond_type
C1     O86     1.296   .     A
C1     C14     1.456   .     S
C1     O81     1.294   .     A
C2     H48     1.084   .     S
C2     C4      1.394   .     A
C2     C43     1.406   .     A
C3     C23     1.414   .     A
C3     C44     1.396   .     A
C3     C568    1.514   1_554 S
C4     C34     1.413   .     A
C4     C567    1.514   .     S
C5     O88     1.284   .     A
C5     O90     1.281   .     A
C5     C7      1.405   .     S
C6     C8      1.408   .     S
C6     O89     1.281   .     A
C6     O91     1.285   .     A
C7     C196    1.324   1_455 S
C7     H233    1.087   1_455 S
C8     C101    1.324   .     S
C8     H150    1.086   .     S
C9     O92     1.384   .     S
C9     C20     1.403   .     A
C9     C11     1.413   .     A
C10    C21     1.406   .     A
C10    O82     1.384   .     S
C10    C13     1.407   .     A
C11    C14     1.417   .     A
C11    O83     1.397   .     S
C12    O85     1.288   .     A
C12    C15     1.426   .     S
C12    O87     1.286   .     A
C13    O84     1.389   .     S
C13    C15     1.403   .     A
C14    C16     1.401   .     A
C15    C17     1.391   .     A
C16    H67     1.083   .     S
C16    C18     1.375   .     A
C17    C19     1.375   .     A
C17    H73     1.084   .     S
C18    C20     1.392   .     A
C18    H74     1.084   .     S
C19    C21     1.399   .     A
C19    H75     1.084   .     S
C20    C303    1.447   1_545 S
C21    C302    1.447   .     S
C22    H50     1.111   .     S
C22    H49     1.112   .     S
C22    O92     1.411   .     S
C22    H51     1.109   .     S
C23    H76     1.082   .     S
C23    C40     1.413   .     A
C24    H52     1.111   .     S
C24    O82     1.410   .     S
C24    H53     1.112   .     S
C24    H242    1.109   1_455 S
C25    H57     1.107   .     S
C25    H58     1.114   .     S
C25    H55     1.108   .     S
C25    O83     1.414   .     S
C26    H61     1.108   .     S
C26    H59     1.109   .     S
C26    O84     1.415   .     S
C26    H60     1.112   .     S
C27    C32     1.399   .     A
C27    C42     1.470   .     S
C27    C28     1.404   .     A
C28    C29     1.399   .     A
C28    H62     1.083   .     S
C29    H63     1.082   .     S
C29    C30     1.396   .     A
C30    H64     1.081   .     S
C30    C31     1.397   .     A
C31    H65     1.080   .     S
C31    C32     1.396   .     A
C32    H66     1.078   .     S
C33    C39     1.395   .     A
C33    C43     1.473   .     S
C33    C35     1.404   .     A
C34    H77     1.082   .     S
C34    C41     1.415   .     A
C35    H68     1.083   .     S
C35    C224    1.399   1_455 S
C36    H69     1.079   .     S
C36    C129    1.399   .     S
C36    C131    1.397   .     S
C37    C38     1.392   .     A
C37    C224    1.397   1_455 S
C37    H258    1.081   1_455 S
C38    C39     1.396   .     A
C38    H71     1.082   .     S
C39    H72     1.070   .     S
C40    N79     1.365   .     A
C40    H78     1.081   .     S
C41    N80     1.367   .     A
C41    H46     1.082   .     S
C42    N79     1.382   .     A
C42    C44     1.408   .     A
C43    N80     1.385   .     A
C44    H47     1.084   .     S
H45    C101    1.087   .     S
H54    C118    1.109   .     S
H56    C196    1.086   1_455 S
H70    C131    1.081   .     S
N79    Zn94    2.017   .     S
N80    Zn93    2.017   .     S
O81    Zn93    2.014   .     S
O85    Zn94    2.014   .     S
O86    Zn94    1.981   .     S
O87    Zn93    1.981   .     S
O88    Zn93    1.988   .     S
O89    Zn94    1.988   .     S
O90    Zn94    1.986   .     S
O91    Zn93    1.986   .     S
C95    O180    1.296   .     A
C95    C108    1.456   .     S
C95    O175    1.294   .     A
C96    H142    1.084   .     S
C96    C98     1.394   .     A
C96    C137    1.406   .     A
C97    C117    1.414   .     A
C97    C138    1.396   .     A
C97    C662    1.514   1_554 S
C98    C128    1.413   .     A
C98    C661    1.514   .     S
C99    O182    1.284   .     A
C99    O184    1.281   .     A
C99    C101    1.405   .     S
C100   C102    1.408   .     S
C100   O183    1.281   .     A
C100   O185    1.285   .     A
C102   C195    1.324   .     S
C102   H244    1.086   .     S
C103   O186    1.384   .     S
C103   C114    1.403   .     A
C103   C105    1.413   .     A
C104   C115    1.406   .     A
C104   O176    1.384   .     S
C104   C107    1.407   .     A
C105   C108    1.417   .     A
C105   O177    1.397   .     S
C106   O179    1.288   .     A
C106   C109    1.426   .     S
C106   O181    1.286   .     A
C107   O178    1.389   .     S
C107   C109    1.403   .     A
C108   C110    1.401   .     A
C109   C111    1.391   .     A
C110   H161    1.083   .     S
C110   C112    1.375   .     A
C111   C113    1.375   .     A
C111   H167    1.084   .     S
C112   C114    1.392   .     A
C112   H168    1.084   .     S
C113   C115    1.399   .     A
C113   H169    1.084   .     S
C114   C397    1.447   1_545 S
C115   C396    1.447   .     S
C116   H144    1.111   .     S
C116   H143    1.112   .     S
C116   O186    1.411   .     S
C116   H145    1.109   .     S
C117   H170    1.082   .     S
C117   C134    1.413   .     A
C118   H146    1.111   .     S
C118   O176    1.410   .     S
C118   H147    1.112   .     S
C119   H151    1.107   .     S
C119   H152    1.114   .     S
C119   H149    1.108   .     S
C119   O177    1.414   .     S
C120   H155    1.108   .     S
C120   H153    1.109   .     S
C120   O178    1.415   .     S
C120   H154    1.112   .     S
C121   C126    1.399   .     A
C121   C136    1.470   .     S
C121   C122    1.404   .     A
C122   C123    1.399   .     A
C122   H156    1.083   .     S
C123   H157    1.082   .     S
C123   C124    1.396   .     A
C124   H158    1.081   .     S
C124   C125    1.397   .     A
C125   H159    1.080   .     S
C125   C126    1.396   .     A
C126   H160    1.078   .     S
C127   C133    1.395   .     A
C127   C137    1.473   .     S
C127   C129    1.404   .     A
C128   H171    1.082   .     S
C128   C135    1.415   .     A
C129   H162    1.083   .     S
C130   H163    1.079   .     S
C130   C223    1.399   .     S
C130   C225    1.397   .     S
C131   C132    1.392   .     A
C132   C133    1.396   .     A
C132   H165    1.082   .     S
C133   H166    1.070   .     S
C134   N173    1.365   .     A
C134   H172    1.081   .     S
C135   N174    1.367   .     A
C135   H140    1.082   .     S
C136   N173    1.382   .     A
C136   C138    1.408   .     A
C137   N174    1.385   .     A
C138   H141    1.084   .     S
H139   C195    1.087   .     S
H148   C212    1.109   .     S
H164   C225    1.081   .     S
N173   Zn188   2.017   .     S
N174   Zn187   2.017   .     S
O175   Zn187   2.014   .     S
O179   Zn188   2.014   .     S
O180   Zn188   1.981   .     S
O181   Zn187   1.981   .     S
O182   Zn187   1.988   .     S
O183   Zn188   1.988   .     S
O184   Zn188   1.986   .     S
O185   Zn187   1.986   .     S
C189   O274    1.296   .     A
C189   C202    1.456   .     S
C189   O269    1.294   .     A
C190   H236    1.084   .     S
C190   C192    1.394   .     A
C190   C231    1.406   .     A
C191   C211    1.414   .     A
C191   C232    1.396   .     A
C191   C756    1.514   1_554 S
C192   C222    1.413   .     A
C192   C755    1.514   .     S
C193   O276    1.284   .     A
C193   O278    1.281   .     A
C193   C195    1.405   .     S
C194   C196    1.408   .     S
C194   O277    1.281   .     A
C194   O279    1.285   .     A
C196   C7      1.324   1_655 S
C196   H56     1.086   1_655 S
C197   O280    1.384   .     S
C197   C208    1.403   .     A
C197   C199    1.413   .     A
C198   C209    1.406   .     A
C198   O270    1.384   .     S
C198   C201    1.407   .     A
C199   C202    1.417   .     A
C199   O271    1.397   .     S
C200   O273    1.288   .     A
C200   C203    1.426   .     S
C200   O275    1.286   .     A
C201   O272    1.389   .     S
C201   C203    1.403   .     A
C202   C204    1.401   .     A
C203   C205    1.391   .     A
C204   H255    1.083   .     S
C204   C206    1.375   .     A
C205   C207    1.375   .     A
C205   H261    1.084   .     S
C206   C208    1.392   .     A
C206   H262    1.084   .     S
C207   C209    1.399   .     A
C207   H263    1.084   .     S
C208   C491    1.447   1_545 S
C209   C490    1.447   .     S
C210   H238    1.111   .     S
C210   H237    1.112   .     S
C210   O280    1.411   .     S
C210   H239    1.109   .     S
C211   H264    1.082   .     S
C211   C228    1.413   .     A
C212   H240    1.111   .     S
C212   O270    1.410   .     S
C212   H241    1.112   .     S
C213   H245    1.107   .     S
C213   H246    1.114   .     S
C213   H243    1.108   .     S
C213   O271    1.414   .     S
C214   H249    1.108   .     S
C214   H247    1.109   .     S
C214   O272    1.415   .     S
C214   H248    1.112   .     S
C215   C220    1.399   .     A
C215   C230    1.470   .     S
C215   C216    1.404   .     A
C216   C217    1.399   .     A
C216   H250    1.083   .     S
C217   H251    1.082   .     S
C217   C218    1.396   .     A
C218   H252    1.081   .     S
C218   C219    1.397   .     A
C219   H253    1.080   .     S
C219   C220    1.396   .     A
C220   H254    1.078   .     S
C221   C227    1.395   .     A
C221   C231    1.473   .     S
C221   C223    1.404   .     A
C222   H265    1.082   .     S
C222   C229    1.415   .     A
C223   H256    1.083   .     S
C224   H257    1.079   .     S
C224   C35     1.399   1_655 S
C224   C37     1.397   1_655 S
C225   C226    1.392   .     A
C226   C227    1.396   .     A
C226   H259    1.082   .     S
C227   H260    1.070   .     S
C228   N267    1.365   .     A
C228   H266    1.081   .     S
C229   N268    1.367   .     A
C229   H234    1.082   .     S
C230   N267    1.382   .     A
C230   C232    1.408   .     A
C231   N268    1.385   .     A
C232   H235    1.084   .     S
H233   C7      1.087   1_655 S
H242   C24     1.109   1_655 S
H258   C37     1.081   1_655 S
N267   Zn282   2.017   .     S
N268   Zn281   2.017   .     S
O269   Zn281   2.014   .     S
O273   Zn282   2.014   .     S
O274   Zn282   1.981   .     S
O275   Zn281   1.981   .     S
O276   Zn281   1.988   .     S
O277   Zn282   1.988   .     S
O278   Zn282   1.986   .     S
O279   Zn281   1.986   .     S
C283   O368    1.296   .     A
C283   C296    1.456   .     S
C283   O363    1.294   .     A
C284   H330    1.084   .     S
C284   C286    1.394   .     A
C284   C325    1.406   .     A
C285   C305    1.414   .     A
C285   C326    1.396   .     A
C285   C850    1.514   1_554 S
C286   C316    1.413   .     A
C286   C849    1.514   .     S
C287   O370    1.284   .     A
C287   O372    1.281   .     A
C287   C289    1.405   .     S
C288   C290    1.408   .     S
C288   O371    1.281   .     A
C288   O373    1.285   .     A
C289   C478    1.324   1_455 S
C289   H515    1.087   1_455 S
C290   C383    1.324   .     S
C290   H432    1.086   .     S
C291   O374    1.384   .     S
C291   C302    1.403   .     A
C291   C293    1.413   .     A
C292   C303    1.406   .     A
C292   O364    1.384   .     S
C292   C295    1.407   .     A
C293   C296    1.417   .     A
C293   O365    1.397   .     S
C294   O367    1.288   .     A
C294   C297    1.426   .     S
C294   O369    1.286   .     A
C295   O366    1.389   .     S
C295   C297    1.403   .     A
C296   C298    1.401   .     A
C297   C299    1.391   .     A
C298   H349    1.083   .     S
C298   C300    1.375   .     A
C299   C301    1.375   .     A
C299   H355    1.084   .     S
C300   C302    1.392   .     A
C300   H356    1.084   .     S
C301   C303    1.399   .     A
C301   H357    1.084   .     S
C303   C20     1.447   1_565 S
C304   H332    1.111   .     S
C304   H331    1.112   .     S
C304   O374    1.411   .     S
C304   H333    1.109   .     S
C305   H358    1.082   .     S
C305   C322    1.413   .     A
C306   H334    1.111   .     S
C306   O364    1.410   .     S
C306   H335    1.112   .     S
C306   H524    1.109   1_455 S
C307   H339    1.107   .     S
C307   H340    1.114   .     S
C307   H337    1.108   .     S
C307   O365    1.414   .     S
C308   H343    1.108   .     S
C308   H341    1.109   .     S
C308   O366    1.415   .     S
C308   H342    1.112   .     S
C309   C314    1.399   .     A
C309   C324    1.470   .     S
C309   C310    1.404   .     A
C310   C311    1.399   .     A
C310   H344    1.083   .     S
C311   H345    1.082   .     S
C311   C312    1.396   .     A
C312   H346    1.081   .     S
C312   C313    1.397   .     A
C313   H347    1.080   .     S
C313   C314    1.396   .     A
C314   H348    1.078   .     S
C315   C321    1.395   .     A
C315   C325    1.473   .     S
C315   C317    1.404   .     A
C316   H359    1.082   .     S
C316   C323    1.415   .     A
C317   H350    1.083   .     S
C317   C506    1.399   1_455 S
C318   H351    1.079   .     S
C318   C411    1.399   .     S
C318   C413    1.397   .     S
C319   C320    1.392   .     A
C319   C506    1.397   1_455 S
C319   H540    1.081   1_455 S
C320   C321    1.396   .     A
C320   H353    1.082   .     S
C321   H354    1.070   .     S
C322   N361    1.365   .     A
C322   H360    1.081   .     S
C323   N362    1.367   .     A
C323   H328    1.082   .     S
C324   N361    1.382   .     A
C324   C326    1.408   .     A
C325   N362    1.385   .     A
C326   H329    1.084   .     S
H327   C383    1.087   .     S
H336   C400    1.109   .     S
H338   C478    1.086   1_455 S
H352   C413    1.081   .     S
N361   Zn376   2.017   .     S
N362   Zn375   2.017   .     S
O363   Zn375   2.014   .     S
O367   Zn376   2.014   .     S
O368   Zn376   1.981   .     S
O369   Zn375   1.981   .     S
O370   Zn375   1.988   .     S
O371   Zn376   1.988   .     S
O372   Zn376   1.986   .     S
O373   Zn375   1.986   .     S
C377   O462    1.296   .     A
C377   C390    1.456   .     S
C377   O457    1.294   .     A
C378   H424    1.084   .     S
C378   C380    1.394   .     A
C378   C419    1.406   .     A
C379   C399    1.414   .     A
C379   C420    1.396   .     A
C379   C944    1.514   1_554 S
C380   C410    1.413   .     A
C380   C943    1.514   .     S
C381   O464    1.284   .     A
C381   O466    1.281   .     A
C381   C383    1.405   .     S
C382   C384    1.408   .     S
C382   O465    1.281   .     A
C382   O467    1.285   .     A
C384   C477    1.324   .     S
C384   H526    1.086   .     S
C385   O468    1.384   .     S
C385   C396    1.403   .     A
C385   C387    1.413   .     A
C386   C397    1.406   .     A
C386   O458    1.384   .     S
C386   C389    1.407   .     A
C387   C390    1.417   .     A
C387   O459    1.397   .     S
C388   O461    1.288   .     A
C388   C391    1.426   .     S
C388   O463    1.286   .     A
C389   O460    1.389   .     S
C389   C391    1.403   .     A
C390   C392    1.401   .     A
C391   C393    1.391   .     A
C392   H443    1.083   .     S
C392   C394    1.375   .     A
C393   C395    1.375   .     A
C393   H449    1.084   .     S
C394   C396    1.392   .     A
C394   H450    1.084   .     S
C395   C397    1.399   .     A
C395   H451    1.084   .     S
C397   C114    1.447   1_565 S
C398   H426    1.111   .     S
C398   H425    1.112   .     S
C398   O468    1.411   .     S
C398   H427    1.109   .     S
C399   H452    1.082   .     S
C399   C416    1.413   .     A
C400   H428    1.111   .     S
C400   O458    1.410   .     S
C400   H429    1.112   .     S
C401   H433    1.107   .     S
C401   H434    1.114   .     S
C401   H431    1.108   .     S
C401   O459    1.414   .     S
C402   H437    1.108   .     S
C402   H435    1.109   .     S
C402   O460    1.415   .     S
C402   H436    1.112   .     S
C403   C408    1.399   .     A
C403   C418    1.470   .     S
C403   C404    1.404   .     A
C404   C405    1.399   .     A
C404   H438    1.083   .     S
C405   H439    1.082   .     S
C405   C406    1.396   .     A
C406   H440    1.081   .     S
C406   C407    1.397   .     A
C407   H441    1.080   .     S
C407   C408    1.396   .     A
C408   H442    1.078   .     S
C409   C415    1.395   .     A
C409   C419    1.473   .     S
C409   C411    1.404   .     A
C410   H453    1.082   .     S
C410   C417    1.415   .     A
C411   H444    1.083   .     S
C412   H445    1.079   .     S
C412   C505    1.399   .     S
C412   C507    1.397   .     S
C413   C414    1.392   .     A
C414   C415    1.396   .     A
C414   H447    1.082   .     S
C415   H448    1.070   .     S
C416   N455    1.365   .     A
C416   H454    1.081   .     S
C417   N456    1.367   .     A
C417   H422    1.082   .     S
C418   N455    1.382   .     A
C418   C420    1.408   .     A
C419   N456    1.385   .     A
C420   H423    1.084   .     S
H421   C477    1.087   .     S
H430   C494    1.109   .     S
H446   C507    1.081   .     S
N455   Zn470   2.017   .     S
N456   Zn469   2.017   .     S
O457   Zn469   2.014   .     S
O461   Zn470   2.014   .     S
O462   Zn470   1.981   .     S
O463   Zn469   1.981   .     S
O464   Zn469   1.988   .     S
O465   Zn470   1.988   .     S
O466   Zn470   1.986   .     S
O467   Zn469   1.986   .     S
C471   O556    1.296   .     A
C471   C484    1.456   .     S
C471   O551    1.294   .     A
C472   H518    1.084   .     S
C472   C474    1.394   .     A
C472   C513    1.406   .     A
C473   C493    1.414   .     A
C473   C514    1.396   .     A
C473   C1038   1.514   1_554 S
C474   C504    1.413   .     A
C474   C1037   1.514   .     S
C475   O558    1.284   .     A
C475   O560    1.281   .     A
C475   C477    1.405   .     S
C476   C478    1.408   .     S
C476   O559    1.281   .     A
C476   O561    1.285   .     A
C478   C289    1.324   1_655 S
C478   H338    1.086   1_655 S
C479   O562    1.384   .     S
C479   C490    1.403   .     A
C479   C481    1.413   .     A
C480   C491    1.406   .     A
C480   O552    1.384   .     S
C480   C483    1.407   .     A
C481   C484    1.417   .     A
C481   O553    1.397   .     S
C482   O555    1.288   .     A
C482   C485    1.426   .     S
C482   O557    1.286   .     A
C483   O554    1.389   .     S
C483   C485    1.403   .     A
C484   C486    1.401   .     A
C485   C487    1.391   .     A
C486   H537    1.083   .     S
C486   C488    1.375   .     A
C487   C489    1.375   .     A
C487   H543    1.084   .     S
C488   C490    1.392   .     A
C488   H544    1.084   .     S
C489   C491    1.399   .     A
C489   H545    1.084   .     S
C491   C208    1.447   1_565 S
C492   H520    1.111   .     S
C492   H519    1.112   .     S
C492   O562    1.411   .     S
C492   H521    1.109   .     S
C493   H546    1.082   .     S
C493   C510    1.413   .     A
C494   H522    1.111   .     S
C494   O552    1.410   .     S
C494   H523    1.112   .     S
C495   H527    1.107   .     S
C495   H528    1.114   .     S
C495   H525    1.108   .     S
C495   O553    1.414   .     S
C496   H531    1.108   .     S
C496   H529    1.109   .     S
C496   O554    1.415   .     S
C496   H530    1.112   .     S
C497   C502    1.399   .     A
C497   C512    1.470   .     S
C497   C498    1.404   .     A
C498   C499    1.399   .     A
C498   H532    1.083   .     S
C499   H533    1.082   .     S
C499   C500    1.396   .     A
C500   H534    1.081   .     S
C500   C501    1.397   .     A
C501   H535    1.080   .     S
C501   C502    1.396   .     A
C502   H536    1.078   .     S
C503   C509    1.395   .     A
C503   C513    1.473   .     S
C503   C505    1.404   .     A
C504   H547    1.082   .     S
C504   C511    1.415   .     A
C505   H538    1.083   .     S
C506   H539    1.079   .     S
C506   C317    1.399   1_655 S
C506   C319    1.397   1_655 S
C507   C508    1.392   .     A
C508   C509    1.396   .     A
C508   H541    1.082   .     S
C509   H542    1.070   .     S
C510   N549    1.365   .     A
C510   H548    1.081   .     S
C511   N550    1.367   .     A
C511   H516    1.082   .     S
C512   N549    1.382   .     A
C512   C514    1.408   .     A
C513   N550    1.385   .     A
C514   H517    1.084   .     S
H515   C289    1.087   1_655 S
H524   C306    1.109   1_655 S
H540   C319    1.081   1_655 S
N549   Zn564   2.017   .     S
N550   Zn563   2.017   .     S
O551   Zn563   2.014   .     S
O555   Zn564   2.014   .     S
O556   Zn564   1.981   .     S
O557   Zn563   1.981   .     S
O558   Zn563   1.988   .     S
O559   Zn564   1.988   .     S
O560   Zn564   1.986   .     S
O561   Zn563   1.986   .     S
C565   O650    1.296   .     A
C565   C578    1.456   .     S
C565   O645    1.294   .     A
C566   H612    1.084   .     S
C566   C568    1.394   .     A
C566   C607    1.406   .     A
C567   C587    1.414   .     A
C567   C608    1.396   .     A
C568   C598    1.413   .     A
C568   C3      1.514   1_556 S
C569   O652    1.284   .     A
C569   O654    1.281   .     A
C569   C571    1.405   .     S
C570   C572    1.408   .     S
C570   O653    1.281   .     A
C570   O655    1.285   .     A
C571   C760    1.324   1_455 S
C571   H797    1.087   1_455 S
C572   C665    1.324   .     S
C572   H714    1.086   .     S
C573   O656    1.384   .     S
C573   C584    1.403   .     A
C573   C575    1.413   .     A
C574   C585    1.406   .     A
C574   O646    1.384   .     S
C574   C577    1.407   .     A
C575   C578    1.417   .     A
C575   O647    1.397   .     S
C576   O649    1.288   .     A
C576   C579    1.426   .     S
C576   O651    1.286   .     A
C577   O648    1.389   .     S
C577   C579    1.403   .     A
C578   C580    1.401   .     A
C579   C581    1.391   .     A
C580   H631    1.083   .     S
C580   C582    1.375   .     A
C581   C583    1.375   .     A
C581   H637    1.084   .     S
C582   C584    1.392   .     A
C582   H638    1.084   .     S
C583   C585    1.399   .     A
C583   H639    1.084   .     S
C584   C867    1.447   1_545 S
C585   C866    1.447   .     S
C586   H614    1.111   .     S
C586   H613    1.112   .     S
C586   O656    1.411   .     S
C586   H615    1.109   .     S
C587   H640    1.082   .     S
C587   C604    1.413   .     A
C588   H616    1.111   .     S
C588   O646    1.410   .     S
C588   H617    1.112   .     S
C588   H806    1.109   1_455 S
C589   H621    1.107   .     S
C589   H622    1.114   .     S
C589   H619    1.108   .     S
C589   O647    1.414   .     S
C590   H625    1.108   .     S
C590   H623    1.109   .     S
C590   O648    1.415   .     S
C590   H624    1.112   .     S
C591   C596    1.399   .     A
C591   C606    1.470   .     S
C591   C592    1.404   .     A
C592   C593    1.399   .     A
C592   H626    1.083   .     S
C593   H627    1.082   .     S
C593   C594    1.396   .     A
C594   H628    1.081   .     S
C594   C595    1.397   .     A
C595   H629    1.080   .     S
C595   C596    1.396   .     A
C596   H630    1.078   .     S
C597   C603    1.395   .     A
C597   C607    1.473   .     S
C597   C599    1.404   .     A
C598   H641    1.082   .     S
C598   C605    1.415   .     A
C599   H632    1.083   .     S
C599   C788    1.399   1_455 S
C600   H633    1.079   .     S
C600   C693    1.399   .     S
C600   C695    1.397   .     S
C601   C602    1.392   .     A
C601   C788    1.397   1_455 S
C601   H822    1.081   1_455 S
C602   C603    1.396   .     A
C602   H635    1.082   .     S
C603   H636    1.070   .     S
C604   N643    1.365   .     A
C604   H642    1.081   .     S
C605   N644    1.367   .     A
C605   H610    1.082   .     S
C606   N643    1.382   .     A
C606   C608    1.408   .     A
C607   N644    1.385   .     A
C608   H611    1.084   .     S
H609   C665    1.087   .     S
H618   C682    1.109   .     S
H620   C760    1.086   1_455 S
H634   C695    1.081   .     S
N643   Zn658   2.017   .     S
N644   Zn657   2.017   .     S
O645   Zn657   2.014   .     S
O649   Zn658   2.014   .     S
O650   Zn658   1.981   .     S
O651   Zn657   1.981   .     S
O652   Zn657   1.988   .     S
O653   Zn658   1.988   .     S
O654   Zn658   1.986   .     S
O655   Zn657   1.986   .     S
C659   O744    1.296   .     A
C659   C672    1.456   .     S
C659   O739    1.294   .     A
C660   H706    1.084   .     S
C660   C662    1.394   .     A
C660   C701    1.406   .     A
C661   C681    1.414   .     A
C661   C702    1.396   .     A
C662   C692    1.413   .     A
C662   C97     1.514   1_556 S
C663   O746    1.284   .     A
C663   O748    1.281   .     A
C663   C665    1.405   .     S
C664   C666    1.408   .     S
C664   O747    1.281   .     A
C664   O749    1.285   .     A
C666   C759    1.324   .     S
C666   H808    1.086   .     S
C667   O750    1.384   .     S
C667   C678    1.403   .     A
C667   C669    1.413   .     A
C668   C679    1.406   .     A
C668   O740    1.384   .     S
C668   C671    1.407   .     A
C669   C672    1.417   .     A
C669   O741    1.397   .     S
C670   O743    1.288   .     A
C670   C673    1.426   .     S
C670   O745    1.286   .     A
C671   O742    1.389   .     S
C671   C673    1.403   .     A
C672   C674    1.401   .     A
C673   C675    1.391   .     A
C674   H725    1.083   .     S
C674   C676    1.375   .     A
C675   C677    1.375   .     A
C675   H731    1.084   .     S
C676   C678    1.392   .     A
C676   H732    1.084   .     S
C677   C679    1.399   .     A
C677   H733    1.084   .     S
C678   C961    1.447   1_545 S
C679   C960    1.447   .     S
C680   H708    1.111   .     S
C680   H707    1.112   .     S
C680   O750    1.411   .     S
C680   H709    1.109   .     S
C681   H734    1.082   .     S
C681   C698    1.413   .     A
C682   H710    1.111   .     S
C682   O740    1.410   .     S
C682   H711    1.112   .     S
C683   H715    1.107   .     S
C683   H716    1.114   .     S
C683   H713    1.108   .     S
C683   O741    1.414   .     S
C684   H719    1.108   .     S
C684   H717    1.109   .     S
C684   O742    1.415   .     S
C684   H718    1.112   .     S
C685   C690    1.399   .     A
C685   C700    1.470   .     S
C685   C686    1.404   .     A
C686   C687    1.399   .     A
C686   H720    1.083   .     S
C687   H721    1.082   .     S
C687   C688    1.396   .     A
C688   H722    1.081   .     S
C688   C689    1.397   .     A
C689   H723    1.080   .     S
C689   C690    1.396   .     A
C690   H724    1.078   .     S
C691   C697    1.395   .     A
C691   C701    1.473   .     S
C691   C693    1.404   .     A
C692   H735    1.082   .     S
C692   C699    1.415   .     A
C693   H726    1.083   .     S
C694   H727    1.079   .     S
C694   C787    1.399   .     S
C694   C789    1.397   .     S
C695   C696    1.392   .     A
C696   C697    1.396   .     A
C696   H729    1.082   .     S
C697   H730    1.070   .     S
C698   N737    1.365   .     A
C698   H736    1.081   .     S
C699   N738    1.367   .     A
C699   H704    1.082   .     S
C700   N737    1.382   .     A
C700   C702    1.408   .     A
C701   N738    1.385   .     A
C702   H705    1.084   .     S
H703   C759    1.087   .     S
H712   C776    1.109   .     S
H728   C789    1.081   .     S
N737   Zn752   2.017   .     S
N738   Zn751   2.017   .     S
O739   Zn751   2.014   .     S
O743   Zn752   2.014   .     S
O744   Zn752   1.981   .     S
O745   Zn751   1.981   .     S
O746   Zn751   1.988   .     S
O747   Zn752   1.988   .     S
O748   Zn752   1.986   .     S
O749   Zn751   1.986   .     S
C753   O838    1.296   .     A
C753   C766    1.456   .     S
C753   O833    1.294   .     A
C754   H800    1.084   .     S
C754   C756    1.394   .     A
C754   C795    1.406   .     A
C755   C775    1.414   .     A
C755   C796    1.396   .     A
C756   C786    1.413   .     A
C756   C191    1.514   1_556 S
C757   O840    1.284   .     A
C757   O842    1.281   .     A
C757   C759    1.405   .     S
C758   C760    1.408   .     S
C758   O841    1.281   .     A
C758   O843    1.285   .     A
C760   C571    1.324   1_655 S
C760   H620    1.086   1_655 S
C761   O844    1.384   .     S
C761   C772    1.403   .     A
C761   C763    1.413   .     A
C762   C773    1.406   .     A
C762   O834    1.384   .     S
C762   C765    1.407   .     A
C763   C766    1.417   .     A
C763   O835    1.397   .     S
C764   O837    1.288   .     A
C764   C767    1.426   .     S
C764   O839    1.286   .     A
C765   O836    1.389   .     S
C765   C767    1.403   .     A
C766   C768    1.401   .     A
C767   C769    1.391   .     A
C768   H819    1.083   .     S
C768   C770    1.375   .     A
C769   C771    1.375   .     A
C769   H825    1.084   .     S
C770   C772    1.392   .     A
C770   H826    1.084   .     S
C771   C773    1.399   .     A
C771   H827    1.084   .     S
C772   C1055   1.447   1_545 S
C773   C1054   1.447   .     S
C774   H802    1.111   .     S
C774   H801    1.112   .     S
C774   O844    1.411   .     S
C774   H803    1.109   .     S
C775   H828    1.082   .     S
C775   C792    1.413   .     A
C776   H804    1.111   .     S
C776   O834    1.410   .     S
C776   H805    1.112   .     S
C777   H809    1.107   .     S
C777   H810    1.114   .     S
C777   H807    1.108   .     S
C777   O835    1.414   .     S
C778   H813    1.108   .     S
C778   H811    1.109   .     S
C778   O836    1.415   .     S
C778   H812    1.112   .     S
C779   C784    1.399   .     A
C779   C794    1.470   .     S
C779   C780    1.404   .     A
C780   C781    1.399   .     A
C780   H814    1.083   .     S
C781   H815    1.082   .     S
C781   C782    1.396   .     A
C782   H816    1.081   .     S
C782   C783    1.397   .     A
C783   H817    1.080   .     S
C783   C784    1.396   .     A
C784   H818    1.078   .     S
C785   C791    1.395   .     A
C785   C795    1.473   .     S
C785   C787    1.404   .     A
C786   H829    1.082   .     S
C786   C793    1.415   .     A
C787   H820    1.083   .     S
C788   H821    1.079   .     S
C788   C599    1.399   1_655 S
C788   C601    1.397   1_655 S
C789   C790    1.392   .     A
C790   C791    1.396   .     A
C790   H823    1.082   .     S
C791   H824    1.070   .     S
C792   N831    1.365   .     A
C792   H830    1.081   .     S
C793   N832    1.367   .     A
C793   H798    1.082   .     S
C794   N831    1.382   .     A
C794   C796    1.408   .     A
C795   N832    1.385   .     A
C796   H799    1.084   .     S
H797   C571    1.087   1_655 S
H806   C588    1.109   1_655 S
H822   C601    1.081   1_655 S
N831   Zn846   2.017   .     S
N832   Zn845   2.017   .     S
O833   Zn845   2.014   .     S
O837   Zn846   2.014   .     S
O838   Zn846   1.981   .     S
O839   Zn845   1.981   .     S
O840   Zn845   1.988   .     S
O841   Zn846   1.988   .     S
O842   Zn846   1.986   .     S
O843   Zn845   1.986   .     S
C847   O932    1.296   .     A
C847   C860    1.456   .     S
C847   O927    1.294   .     A
C848   H894    1.084   .     S
C848   C850    1.394   .     A
C848   C889    1.406   .     A
C849   C869    1.414   .     A
C849   C890    1.396   .     A
C850   C880    1.413   .     A
C850   C285    1.514   1_556 S
C851   O934    1.284   .     A
C851   O936    1.281   .     A
C851   C853    1.405   .     S
C852   C854    1.408   .     S
C852   O935    1.281   .     A
C852   O937    1.285   .     A
C853   C1042   1.324   1_455 S
C853   H1079   1.087   1_455 S
C854   C947    1.324   .     S
C854   H996    1.086   .     S
C855   O938    1.384   .     S
C855   C866    1.403   .     A
C855   C857    1.413   .     A
C856   C867    1.406   .     A
C856   O928    1.384   .     S
C856   C859    1.407   .     A
C857   C860    1.417   .     A
C857   O929    1.397   .     S
C858   O931    1.288   .     A
C858   C861    1.426   .     S
C858   O933    1.286   .     A
C859   O930    1.389   .     S
C859   C861    1.403   .     A
C860   C862    1.401   .     A
C861   C863    1.391   .     A
C862   H913    1.083   .     S
C862   C864    1.375   .     A
C863   C865    1.375   .     A
C863   H919    1.084   .     S
C864   C866    1.392   .     A
C864   H920    1.084   .     S
C865   C867    1.399   .     A
C865   H921    1.084   .     S
C867   C584    1.447   1_565 S
C868   H896    1.111   .     S
C868   H895    1.112   .     S
C868   O938    1.411   .     S
C868   H897    1.109   .     S
C869   H922    1.082   .     S
C869   C886    1.413   .     A
C870   H898    1.111   .     S
C870   O928    1.410   .     S
C870   H899    1.112   .     S
C870   H1088   1.109   1_455 S
C871   H903    1.107   .     S
C871   H904    1.114   .     S
C871   H901    1.108   .     S
C871   O929    1.414   .     S
C872   H907    1.108   .     S
C872   H905    1.109   .     S
C872   O930    1.415   .     S
C872   H906    1.112   .     S
C873   C878    1.399   .     A
C873   C888    1.470   .     S
C873   C874    1.404   .     A
C874   C875    1.399   .     A
C874   H908    1.083   .     S
C875   H909    1.082   .     S
C875   C876    1.396   .     A
C876   H910    1.081   .     S
C876   C877    1.397   .     A
C877   H911    1.080   .     S
C877   C878    1.396   .     A
C878   H912    1.078   .     S
C879   C885    1.395   .     A
C879   C889    1.473   .     S
C879   C881    1.404   .     A
C880   H923    1.082   .     S
C880   C887    1.415   .     A
C881   H914    1.083   .     S
C881   C1070   1.399   1_455 S
C882   H915    1.079   .     S
C882   C975    1.399   .     S
C882   C977    1.397   .     S
C883   C884    1.392   .     A
C883   C1070   1.397   1_455 S
C883   H1104   1.081   1_455 S
C884   C885    1.396   .     A
C884   H917    1.082   .     S
C885   H918    1.070   .     S
C886   N925    1.365   .     A
C886   H924    1.081   .     S
C887   N926    1.367   .     A
C887   H892    1.082   .     S
C888   N925    1.382   .     A
C888   C890    1.408   .     A
C889   N926    1.385   .     A
C890   H893    1.084   .     S
H891   C947    1.087   .     S
H900   C964    1.109   .     S
H902   C1042   1.086   1_455 S
H916   C977    1.081   .     S
N925   Zn940   2.017   .     S
N926   Zn939   2.017   .     S
O927   Zn939   2.014   .     S
O931   Zn940   2.014   .     S
O932   Zn940   1.981   .     S
O933   Zn939   1.981   .     S
O934   Zn939   1.988   .     S
O935   Zn940   1.988   .     S
O936   Zn940   1.986   .     S
O937   Zn939   1.986   .     S
C941   O1026   1.296   .     A
C941   C954    1.456   .     S
C941   O1021   1.294   .     A
C942   H988    1.084   .     S
C942   C944    1.394   .     A
C942   C983    1.406   .     A
C943   C963    1.414   .     A
C943   C984    1.396   .     A
C944   C974    1.413   .     A
C944   C379    1.514   1_556 S
C945   O1028   1.284   .     A
C945   O1030   1.281   .     A
C945   C947    1.405   .     S
C946   C948    1.408   .     S
C946   O1029   1.281   .     A
C946   O1031   1.285   .     A
C948   C1041   1.324   .     S
C948   H1090   1.086   .     S
C949   O1032   1.384   .     S
C949   C960    1.403   .     A
C949   C951    1.413   .     A
C950   C961    1.406   .     A
C950   O1022   1.384   .     S
C950   C953    1.407   .     A
C951   C954    1.417   .     A
C951   O1023   1.397   .     S
C952   O1025   1.288   .     A
C952   C955    1.426   .     S
C952   O1027   1.286   .     A
C953   O1024   1.389   .     S
C953   C955    1.403   .     A
C954   C956    1.401   .     A
C955   C957    1.391   .     A
C956   H1007   1.083   .     S
C956   C958    1.375   .     A
C957   C959    1.375   .     A
C957   H1013   1.084   .     S
C958   C960    1.392   .     A
C958   H1014   1.084   .     S
C959   C961    1.399   .     A
C959   H1015   1.084   .     S
C961   C678    1.447   1_565 S
C962   H990    1.111   .     S
C962   H989    1.112   .     S
C962   O1032   1.411   .     S
C962   H991    1.109   .     S
C963   H1016   1.082   .     S
C963   C980    1.413   .     A
C964   H992    1.111   .     S
C964   O1022   1.410   .     S
C964   H993    1.112   .     S
C965   H997    1.107   .     S
C965   H998    1.114   .     S
C965   H995    1.108   .     S
C965   O1023   1.414   .     S
C966   H1001   1.108   .     S
C966   H999    1.109   .     S
C966   O1024   1.415   .     S
C966   H1000   1.112   .     S
C967   C972    1.399   .     A
C967   C982    1.470   .     S
C967   C968    1.404   .     A
C968   C969    1.399   .     A
C968   H1002   1.083   .     S
C969   H1003   1.082   .     S
C969   C970    1.396   .     A
C970   H1004   1.081   .     S
C970   C971    1.397   .     A
C971   H1005   1.080   .     S
C971   C972    1.396   .     A
C972   H1006   1.078   .     S
C973   C979    1.395   .     A
C973   C983    1.473   .     S
C973   C975    1.404   .     A
C974   H1017   1.082   .     S
C974   C981    1.415   .     A
C975   H1008   1.083   .     S
C976   H1009   1.079   .     S
C976   C1069   1.399   .     S
C976   C1071   1.397   .     S
C977   C978    1.392   .     A
C978   C979    1.396   .     A
C978   H1011   1.082   .     S
C979   H1012   1.070   .     S
C980   N1019   1.365   .     A
C980   H1018   1.081   .     S
C981   N1020   1.367   .     A
C981   H986    1.082   .     S
C982   N1019   1.382   .     A
C982   C984    1.408   .     A
C983   N1020   1.385   .     A
C984   H987    1.084   .     S
H985   C1041   1.087   .     S
H994   C1058   1.109   .     S
H1010  C1071   1.081   .     S
N1019  Zn1034  2.017   .     S
N1020  Zn1033  2.017   .     S
O1021  Zn1033  2.014   .     S
O1025  Zn1034  2.014   .     S
O1026  Zn1034  1.981   .     S
O1027  Zn1033  1.981   .     S
O1028  Zn1033  1.988   .     S
O1029  Zn1034  1.988   .     S
O1030  Zn1034  1.986   .     S
O1031  Zn1033  1.986   .     S
C1035  O1120   1.296   .     A
C1035  C1048   1.456   .     S
C1035  O1115   1.294   .     A
C1036  H1082   1.084   .     S
C1036  C1038   1.394   .     A
C1036  C1077   1.406   .     A
C1037  C1057   1.414   .     A
C1037  C1078   1.396   .     A
C1038  C1068   1.413   .     A
C1038  C473    1.514   1_556 S
C1039  O1122   1.284   .     A
C1039  O1124   1.281   .     A
C1039  C1041   1.405   .     S
C1040  C1042   1.408   .     S
C1040  O1123   1.281   .     A
C1040  O1125   1.285   .     A
C1042  C853    1.324   1_655 S
C1042  H902    1.086   1_655 S
C1043  O1126   1.384   .     S
C1043  C1054   1.403   .     A
C1043  C1045   1.413   .     A
C1044  C1055   1.406   .     A
C1044  O1116   1.384   .     S
C1044  C1047   1.407   .     A
C1045  C1048   1.417   .     A
C1045  O1117   1.397   .     S
C1046  O1119   1.288   .     A
C1046  C1049   1.426   .     S
C1046  O1121   1.286   .     A
C1047  O1118   1.389   .     S
C1047  C1049   1.403   .     A
C1048  C1050   1.401   .     A
C1049  C1051   1.391   .     A
C1050  H1101   1.083   .     S
C1050  C1052   1.375   .     A
C1051  C1053   1.375   .     A
C1051  H1107   1.084   .     S
C1052  C1054   1.392   .     A
C1052  H1108   1.084   .     S
C1053  C1055   1.399   .     A
C1053  H1109   1.084   .     S
C1055  C772    1.447   1_565 S
C1056  H1084   1.111   .     S
C1056  H1083   1.112   .     S
C1056  O1126   1.411   .     S
C1056  H1085   1.109   .     S
C1057  H1110   1.082   .     S
C1057  C1074   1.413   .     A
C1058  H1086   1.111   .     S
C1058  O1116   1.410   .     S
C1058  H1087   1.112   .     S
C1059  H1091   1.107   .     S
C1059  H1092   1.114   .     S
C1059  H1089   1.108   .     S
C1059  O1117   1.414   .     S
C1060  H1095   1.108   .     S
C1060  H1093   1.109   .     S
C1060  O1118   1.415   .     S
C1060  H1094   1.112   .     S
C1061  C1066   1.399   .     A
C1061  C1076   1.470   .     S
C1061  C1062   1.404   .     A
C1062  C1063   1.399   .     A
C1062  H1096   1.083   .     S
C1063  H1097   1.082   .     S
C1063  C1064   1.396   .     A
C1064  H1098   1.081   .     S
C1064  C1065   1.397   .     A
C1065  H1099   1.080   .     S
C1065  C1066   1.396   .     A
C1066  H1100   1.078   .     S
C1067  C1073   1.395   .     A
C1067  C1077   1.473   .     S
C1067  C1069   1.404   .     A
C1068  H1111   1.082   .     S
C1068  C1075   1.415   .     A
C1069  H1102   1.083   .     S
C1070  H1103   1.079   .     S
C1070  C881    1.399   1_655 S
C1070  C883    1.397   1_655 S
C1071  C1072   1.392   .     A
C1072  C1073   1.396   .     A
C1072  H1105   1.082   .     S
C1073  H1106   1.070   .     S
C1074  N1113   1.365   .     A
C1074  H1112   1.081   .     S
C1075  N1114   1.367   .     A
C1075  H1080   1.082   .     S
C1076  N1113   1.382   .     A
C1076  C1078   1.408   .     A
C1077  N1114   1.385   .     A
C1078  H1081   1.084   .     S
H1079  C853    1.087   1_655 S
H1088  C870    1.109   1_655 S
H1104  C883    1.081   1_655 S
N1113  Zn1128  2.017   .     S
N1114  Zn1127  2.017   .     S
O1115  Zn1127  2.014   .     S
O1119  Zn1128  2.014   .     S
O1120  Zn1128  1.981   .     S
O1121  Zn1127  1.981   .     S
O1122  Zn1127  1.988   .     S
O1123  Zn1128  1.988   .     S
O1124  Zn1128  1.986   .     S
O1125  Zn1127  1.986   .     S
