data_str_m3_o2_o10_pcu_sym.224
_audit_creation_date              2020-01-03
_audit_creation_method            'Materials Studio'
_symmetry_space_group_name_H-M    'P1'
_symmetry_Int_Tables_number       1
_symmetry_cell_setting            triclinic
loop_
_symmetry_equiv_pos_as_xyz
  x,y,z
_cell_length_a                    26.0080
_cell_length_b                    29.6114
_cell_length_c                    28.4656
_cell_angle_alpha                 90.9205
_cell_angle_beta                  99.0497
_cell_angle_gamma                 90.9901
loop_
_atom_site_label
_atom_site_type_symbol
_atom_site_fract_x
_atom_site_fract_y
_atom_site_fract_z
_atom_site_U_iso_or_equiv
_atom_site_adp_type
_atom_site_occupancy
O1     O     0.16667   0.18453   0.28974   0.00000  Uiso   1.00
O2     O     0.16666   0.31546   0.21026   0.00000  Uiso   1.00
O3     O     0.16667   0.18453   0.21026   0.00000  Uiso   1.00
O4     O     0.16666   0.31547   0.28974   0.00000  Uiso   1.00
C5     C     0.16494   0.16360   0.24947   0.00000  Uiso   1.00
C6     C     0.16554   0.33630   0.25008   0.00000  Uiso   1.00
O7     O     0.09058   0.25000   0.28045   0.00000  Uiso   1.00
O8     O     0.24275   0.25000   0.21956   0.00000  Uiso   1.00
O9     O     0.09058   0.24999   0.20097   0.00000  Uiso   1.00
O10    O     0.24275   0.25000   0.29904   0.00000  Uiso   1.00
C11    C     0.06719   0.25041   0.23766   0.00000  Uiso   1.00
C12    C     0.26620   0.24983   0.26244   0.00000  Uiso   1.00
Zn13   Zn    0.16667   0.25000   0.30307   0.00000  Uiso   1.00
Zn14   Zn    0.16667   0.24999   0.19693   0.00000  Uiso   1.00
C15    C     0.01265   0.24470   0.23186   0.00000  Uiso   1.00
C16    C     0.32083   0.25599   0.26853   0.00000  Uiso   1.00
C17    C     0.11681   0.05016   0.28072   0.00000  Uiso   1.00
C18    C     0.10921   0.44661   0.20979   0.00000  Uiso   1.00
C19    C     0.12896   0.09615   0.28244   0.00000  Uiso   1.00
C20    C     0.12113   0.40094   0.21092   0.00000  Uiso   1.00
H21    H     0.11751   0.11706   0.31046   0.00000  Uiso   1.00
H22    H     0.10240   0.37831   0.18282   0.00000  Uiso   1.00
C23    C     0.15459   0.11548   0.24765   0.00000  Uiso   1.00
C24    C     0.15588   0.38397   0.24887   0.00000  Uiso   1.00
C25    C     0.16675   0.08932   0.20985   0.00000  Uiso   1.00
C26    C     0.17881   0.41209   0.28624   0.00000  Uiso   1.00
H27    H     0.18591   0.10410   0.18245   0.00000  Uiso   1.00
H28    H     0.20630   0.39918   0.31513   0.00000  Uiso   1.00
C29    C     0.15594   0.04343   0.20825   0.00000  Uiso   1.00
C30    C     0.16803   0.45756   0.28529   0.00000  Uiso   1.00
H31    H     0.16839   0.02286   0.18042   0.00000  Uiso   1.00
H32    H     0.18792   0.47961   0.31339   0.00000  Uiso   1.00
C33    C     0.13218   0.02367   0.24396   0.00000  Uiso   1.00
C34    C     0.13389   0.47500   0.24715   0.00000  Uiso   1.00
C35    C     0.12948   0.22697   0.04580   0.00000  Uiso   1.00
C36    C     0.18788   0.28593   0.45167   0.00000  Uiso   1.00
H37    H     0.09842   0.20956   0.02227   0.00000  Uiso   1.00
H38    H     0.20334   0.31527   0.47274   0.00000  Uiso   1.00
C39    C     0.12849   0.22732   0.09510   0.00000  Uiso   1.00
C40    C     0.18723   0.28609   0.40214   0.00000  Uiso   1.00
N41    N     0.16667   0.24999   0.12624   0.00000  Uiso   1.00
N42    N     0.16667   0.25001   0.37377   0.00000  Uiso   1.00
C43    C     0.20521   0.27290   0.10859   0.00000  Uiso   1.00
C44    C     0.14730   0.21341   0.39426   0.00000  Uiso   1.00
H45    H     0.23453   0.29156   0.13276   0.00000  Uiso   1.00
H46    H     0.13123   0.18493   0.37220   0.00000  Uiso   1.00
C47    C     0.20753   0.27253   0.05935   0.00000  Uiso   1.00
C48    C     0.14840   0.21190   0.44392   0.00000  Uiso   1.00
H49    H     0.23946   0.29027   0.04705   0.00000  Uiso   1.00
H50    H     0.13367   0.18180   0.45875   0.00000  Uiso   1.00
C51    C     0.16925   0.24905   0.02690   0.00000  Uiso   1.00
C52    C     0.16898   0.24864   0.47370   0.00000  Uiso   1.00
N53    N     0.32169   0.21946   0.19050   0.00000  Uiso   1.00
O54    O     0.31532   0.23827   0.14914   0.00000  Uiso   1.00
O55    O     0.30584   0.17794   0.19430   0.00000  Uiso   1.00
N56    N     0.01176   0.28140   0.31001   0.00000  Uiso   1.00
O57    O     0.00999   0.26612   0.35233   0.00000  Uiso   1.00
O58    O     0.03170   0.32142   0.30548   0.00000  Uiso   1.00
N59    N     0.08978   0.03087   0.31636   0.00000  Uiso   1.00
O60    O     0.06006   0.49505   0.30668   0.00000  Uiso   1.00
O61    O     0.09087   0.05140   0.35729   0.00000  Uiso   1.00
N62    N     0.07257   0.46350   0.17106   0.00000  Uiso   1.00
O63    O     0.04418   0.49818   0.17738   0.00000  Uiso   1.00
O64    O     0.06391   0.44174   0.13040   0.00000  Uiso   1.00
N65    N     0.08594   0.20419   0.11126   0.00000  Uiso   1.00
O66    O     0.09510   0.17035   0.13956   0.00000  Uiso   1.00
O67    O     0.03973   0.20682   0.08627   0.00000  Uiso   1.00
N68    N     0.20911   0.32461   0.38243   0.00000  Uiso   1.00
O69    O     0.25011   0.31998   0.36208   0.00000  Uiso   1.00
O70    O     0.19737   0.36483   0.39590   0.00000  Uiso   1.00
O71    O     0.50000   0.18453   0.28974   0.00000  Uiso   1.00
O72    O     0.50000   0.31546   0.21026   0.00000  Uiso   1.00
O73    O     0.50000   0.18453   0.21026   0.00000  Uiso   1.00
O74    O     0.50000   0.31547   0.28974   0.00000  Uiso   1.00
C75    C     0.49827   0.16360   0.24947   0.00000  Uiso   1.00
C76    C     0.49888   0.33630   0.25008   0.00000  Uiso   1.00
O77    O     0.42392   0.25000   0.28045   0.00000  Uiso   1.00
O78    O     0.57608   0.25000   0.21956   0.00000  Uiso   1.00
O79    O     0.42392   0.24999   0.20097   0.00000  Uiso   1.00
O80    O     0.57608   0.25000   0.29904   0.00000  Uiso   1.00
C81    C     0.40052   0.25041   0.23766   0.00000  Uiso   1.00
C82    C     0.59954   0.24983   0.26244   0.00000  Uiso   1.00
Zn83   Zn    0.50000   0.25000   0.30307   0.00000  Uiso   1.00
Zn84   Zn    0.50000   0.24999   0.19693   0.00000  Uiso   1.00
C85    C     0.34598   0.24470   0.23186   0.00000  Uiso   1.00
C86    C     0.65417   0.25599   0.26853   0.00000  Uiso   1.00
C87    C     0.45014   0.05016   0.28072   0.00000  Uiso   1.00
C88    C     0.44255   0.44661   0.20979   0.00000  Uiso   1.00
C89    C     0.46229   0.09615   0.28244   0.00000  Uiso   1.00
C90    C     0.45447   0.40094   0.21092   0.00000  Uiso   1.00
H91    H     0.45084   0.11706   0.31046   0.00000  Uiso   1.00
H92    H     0.43573   0.37831   0.18282   0.00000  Uiso   1.00
C93    C     0.48793   0.11548   0.24765   0.00000  Uiso   1.00
C94    C     0.48922   0.38397   0.24887   0.00000  Uiso   1.00
C95    C     0.50008   0.08932   0.20985   0.00000  Uiso   1.00
C96    C     0.51215   0.41209   0.28624   0.00000  Uiso   1.00
H97    H     0.51925   0.10410   0.18245   0.00000  Uiso   1.00
H98    H     0.53963   0.39918   0.31513   0.00000  Uiso   1.00
C99    C     0.48927   0.04343   0.20825   0.00000  Uiso   1.00
C100   C     0.50136   0.45756   0.28529   0.00000  Uiso   1.00
H101   H     0.50172   0.02286   0.18042   0.00000  Uiso   1.00
H102   H     0.52125   0.47961   0.31339   0.00000  Uiso   1.00
C103   C     0.46551   0.02367   0.24396   0.00000  Uiso   1.00
C104   C     0.46722   0.47500   0.24715   0.00000  Uiso   1.00
C105   C     0.46282   0.22697   0.04580   0.00000  Uiso   1.00
C106   C     0.52121   0.28593   0.45167   0.00000  Uiso   1.00
H107   H     0.43175   0.20956   0.02227   0.00000  Uiso   1.00
H108   H     0.53667   0.31527   0.47274   0.00000  Uiso   1.00
C109   C     0.46182   0.22732   0.09510   0.00000  Uiso   1.00
C110   C     0.52056   0.28609   0.40214   0.00000  Uiso   1.00
N111   N     0.50000   0.24999   0.12624   0.00000  Uiso   1.00
N112   N     0.50000   0.25001   0.37377   0.00000  Uiso   1.00
C113   C     0.53854   0.27290   0.10859   0.00000  Uiso   1.00
C114   C     0.48064   0.21341   0.39426   0.00000  Uiso   1.00
H115   H     0.56787   0.29156   0.13276   0.00000  Uiso   1.00
H116   H     0.46457   0.18493   0.37220   0.00000  Uiso   1.00
C117   C     0.54087   0.27253   0.05935   0.00000  Uiso   1.00
C118   C     0.48174   0.21190   0.44392   0.00000  Uiso   1.00
H119   H     0.57280   0.29027   0.04705   0.00000  Uiso   1.00
H120   H     0.46701   0.18180   0.45875   0.00000  Uiso   1.00
C121   C     0.50259   0.24905   0.02690   0.00000  Uiso   1.00
C122   C     0.50231   0.24864   0.47370   0.00000  Uiso   1.00
N123   N     0.65502   0.21946   0.19050   0.00000  Uiso   1.00
O124   O     0.64865   0.23827   0.14914   0.00000  Uiso   1.00
O125   O     0.63918   0.17794   0.19430   0.00000  Uiso   1.00
N126   N     0.34510   0.28140   0.31001   0.00000  Uiso   1.00
O127   O     0.34332   0.26612   0.35233   0.00000  Uiso   1.00
O128   O     0.36503   0.32142   0.30548   0.00000  Uiso   1.00
N129   N     0.42311   0.03087   0.31636   0.00000  Uiso   1.00
O130   O     0.39339   0.49505   0.30668   0.00000  Uiso   1.00
O131   O     0.42421   0.05140   0.35729   0.00000  Uiso   1.00
N132   N     0.40590   0.46350   0.17106   0.00000  Uiso   1.00
O133   O     0.37752   0.49818   0.17738   0.00000  Uiso   1.00
O134   O     0.39724   0.44174   0.13040   0.00000  Uiso   1.00
N135   N     0.41927   0.20419   0.11126   0.00000  Uiso   1.00
O136   O     0.42844   0.17035   0.13956   0.00000  Uiso   1.00
O137   O     0.37306   0.20682   0.08627   0.00000  Uiso   1.00
N138   N     0.54244   0.32461   0.38243   0.00000  Uiso   1.00
O139   O     0.58344   0.31998   0.36208   0.00000  Uiso   1.00
O140   O     0.53070   0.36483   0.39590   0.00000  Uiso   1.00
O141   O     0.83334   0.18453   0.28974   0.00000  Uiso   1.00
O142   O     0.83333   0.31546   0.21026   0.00000  Uiso   1.00
O143   O     0.83334   0.18453   0.21026   0.00000  Uiso   1.00
O144   O     0.83333   0.31547   0.28974   0.00000  Uiso   1.00
C145   C     0.83160   0.16360   0.24947   0.00000  Uiso   1.00
C146   C     0.83221   0.33630   0.25008   0.00000  Uiso   1.00
O147   O     0.75725   0.25000   0.28045   0.00000  Uiso   1.00
O148   O     0.90942   0.25000   0.21956   0.00000  Uiso   1.00
O149   O     0.75725   0.24999   0.20097   0.00000  Uiso   1.00
O150   O     0.90942   0.25000   0.29904   0.00000  Uiso   1.00
C151   C     0.73386   0.25041   0.23766   0.00000  Uiso   1.00
C152   C     0.93287   0.24983   0.26244   0.00000  Uiso   1.00
Zn153  Zn    0.83333   0.25000   0.30307   0.00000  Uiso   1.00
Zn154  Zn    0.83333   0.24999   0.19693   0.00000  Uiso   1.00
C155   C     0.67932   0.24470   0.23186   0.00000  Uiso   1.00
C156   C     0.98750   0.25599   0.26853   0.00000  Uiso   1.00
C157   C     0.78348   0.05016   0.28072   0.00000  Uiso   1.00
C158   C     0.77588   0.44661   0.20979   0.00000  Uiso   1.00
C159   C     0.79562   0.09615   0.28244   0.00000  Uiso   1.00
C160   C     0.78780   0.40094   0.21092   0.00000  Uiso   1.00
H161   H     0.78417   0.11706   0.31046   0.00000  Uiso   1.00
H162   H     0.76907   0.37831   0.18282   0.00000  Uiso   1.00
C163   C     0.82126   0.11548   0.24765   0.00000  Uiso   1.00
C164   C     0.82255   0.38397   0.24887   0.00000  Uiso   1.00
C165   C     0.83342   0.08932   0.20985   0.00000  Uiso   1.00
C166   C     0.84548   0.41209   0.28624   0.00000  Uiso   1.00
H167   H     0.85258   0.10410   0.18245   0.00000  Uiso   1.00
H168   H     0.87296   0.39918   0.31513   0.00000  Uiso   1.00
C169   C     0.82260   0.04343   0.20825   0.00000  Uiso   1.00
C170   C     0.83469   0.45756   0.28529   0.00000  Uiso   1.00
H171   H     0.83506   0.02286   0.18042   0.00000  Uiso   1.00
H172   H     0.85459   0.47961   0.31339   0.00000  Uiso   1.00
C173   C     0.79885   0.02367   0.24396   0.00000  Uiso   1.00
C174   C     0.80056   0.47500   0.24715   0.00000  Uiso   1.00
C175   C     0.79615   0.22697   0.04580   0.00000  Uiso   1.00
C176   C     0.85455   0.28593   0.45167   0.00000  Uiso   1.00
H177   H     0.76508   0.20956   0.02227   0.00000  Uiso   1.00
H178   H     0.87000   0.31527   0.47274   0.00000  Uiso   1.00
C179   C     0.79516   0.22732   0.09510   0.00000  Uiso   1.00
C180   C     0.85390   0.28609   0.40214   0.00000  Uiso   1.00
N181   N     0.83333   0.24999   0.12624   0.00000  Uiso   1.00
N182   N     0.83333   0.25001   0.37377   0.00000  Uiso   1.00
C183   C     0.87187   0.27290   0.10859   0.00000  Uiso   1.00
C184   C     0.81397   0.21341   0.39426   0.00000  Uiso   1.00
H185   H     0.90120   0.29156   0.13276   0.00000  Uiso   1.00
H186   H     0.79790   0.18493   0.37220   0.00000  Uiso   1.00
C187   C     0.87420   0.27253   0.05935   0.00000  Uiso   1.00
C188   C     0.81507   0.21190   0.44392   0.00000  Uiso   1.00
H189   H     0.90613   0.29027   0.04705   0.00000  Uiso   1.00
H190   H     0.80034   0.18180   0.45875   0.00000  Uiso   1.00
C191   C     0.83592   0.24905   0.02690   0.00000  Uiso   1.00
C192   C     0.83564   0.24864   0.47370   0.00000  Uiso   1.00
N193   N     0.98835   0.21946   0.19050   0.00000  Uiso   1.00
O194   O     0.98199   0.23827   0.14914   0.00000  Uiso   1.00
O195   O     0.97251   0.17794   0.19430   0.00000  Uiso   1.00
N196   N     0.67843   0.28140   0.31001   0.00000  Uiso   1.00
O197   O     0.67666   0.26612   0.35233   0.00000  Uiso   1.00
O198   O     0.69837   0.32142   0.30548   0.00000  Uiso   1.00
N199   N     0.75645   0.03087   0.31636   0.00000  Uiso   1.00
O200   O     0.72672   0.49505   0.30668   0.00000  Uiso   1.00
O201   O     0.75754   0.05140   0.35729   0.00000  Uiso   1.00
N202   N     0.73924   0.46350   0.17106   0.00000  Uiso   1.00
O203   O     0.71085   0.49818   0.17738   0.00000  Uiso   1.00
O204   O     0.73057   0.44174   0.13040   0.00000  Uiso   1.00
N205   N     0.75261   0.20419   0.11126   0.00000  Uiso   1.00
O206   O     0.76177   0.17035   0.13956   0.00000  Uiso   1.00
O207   O     0.70639   0.20682   0.08627   0.00000  Uiso   1.00
N208   N     0.87578   0.32461   0.38243   0.00000  Uiso   1.00
O209   O     0.91677   0.31998   0.36208   0.00000  Uiso   1.00
O210   O     0.86404   0.36483   0.39590   0.00000  Uiso   1.00
O211   O     0.16667   0.68453   0.28974   0.00000  Uiso   1.00
O212   O     0.16666   0.81546   0.21026   0.00000  Uiso   1.00
O213   O     0.16667   0.68453   0.21026   0.00000  Uiso   1.00
O214   O     0.16666   0.81547   0.28974   0.00000  Uiso   1.00
C215   C     0.16494   0.66360   0.24947   0.00000  Uiso   1.00
C216   C     0.16554   0.83630   0.25008   0.00000  Uiso   1.00
O217   O     0.09058   0.75000   0.28045   0.00000  Uiso   1.00
O218   O     0.24275   0.75000   0.21956   0.00000  Uiso   1.00
O219   O     0.09058   0.74999   0.20097   0.00000  Uiso   1.00
O220   O     0.24275   0.75000   0.29904   0.00000  Uiso   1.00
C221   C     0.06719   0.75041   0.23766   0.00000  Uiso   1.00
C222   C     0.26620   0.74983   0.26244   0.00000  Uiso   1.00
Zn223  Zn    0.16667   0.75000   0.30307   0.00000  Uiso   1.00
Zn224  Zn    0.16667   0.74999   0.19693   0.00000  Uiso   1.00
C225   C     0.01265   0.74470   0.23186   0.00000  Uiso   1.00
C226   C     0.32083   0.75599   0.26853   0.00000  Uiso   1.00
C227   C     0.11681   0.55016   0.28072   0.00000  Uiso   1.00
C228   C     0.10921   0.94661   0.20979   0.00000  Uiso   1.00
C229   C     0.12896   0.59615   0.28244   0.00000  Uiso   1.00
C230   C     0.12113   0.90094   0.21092   0.00000  Uiso   1.00
H231   H     0.11751   0.61706   0.31046   0.00000  Uiso   1.00
H232   H     0.10240   0.87831   0.18282   0.00000  Uiso   1.00
C233   C     0.15459   0.61548   0.24765   0.00000  Uiso   1.00
C234   C     0.15588   0.88397   0.24887   0.00000  Uiso   1.00
C235   C     0.16675   0.58932   0.20985   0.00000  Uiso   1.00
C236   C     0.17881   0.91209   0.28624   0.00000  Uiso   1.00
H237   H     0.18591   0.60410   0.18245   0.00000  Uiso   1.00
H238   H     0.20630   0.89918   0.31513   0.00000  Uiso   1.00
C239   C     0.15594   0.54343   0.20825   0.00000  Uiso   1.00
C240   C     0.16803   0.95756   0.28529   0.00000  Uiso   1.00
H241   H     0.16839   0.52286   0.18042   0.00000  Uiso   1.00
H242   H     0.18792   0.97961   0.31339   0.00000  Uiso   1.00
C243   C     0.13218   0.52367   0.24396   0.00000  Uiso   1.00
C244   C     0.13389   0.97500   0.24715   0.00000  Uiso   1.00
C245   C     0.12948   0.72697   0.04580   0.00000  Uiso   1.00
C246   C     0.18788   0.78593   0.45167   0.00000  Uiso   1.00
H247   H     0.09842   0.70956   0.02227   0.00000  Uiso   1.00
H248   H     0.20334   0.81527   0.47274   0.00000  Uiso   1.00
C249   C     0.12849   0.72732   0.09510   0.00000  Uiso   1.00
C250   C     0.18723   0.78609   0.40214   0.00000  Uiso   1.00
N251   N     0.16667   0.74999   0.12624   0.00000  Uiso   1.00
N252   N     0.16667   0.75001   0.37377   0.00000  Uiso   1.00
C253   C     0.20521   0.77290   0.10859   0.00000  Uiso   1.00
C254   C     0.14730   0.71341   0.39426   0.00000  Uiso   1.00
H255   H     0.23453   0.79156   0.13276   0.00000  Uiso   1.00
H256   H     0.13123   0.68493   0.37220   0.00000  Uiso   1.00
C257   C     0.20753   0.77253   0.05935   0.00000  Uiso   1.00
C258   C     0.14840   0.71190   0.44392   0.00000  Uiso   1.00
H259   H     0.23946   0.79027   0.04705   0.00000  Uiso   1.00
H260   H     0.13367   0.68180   0.45875   0.00000  Uiso   1.00
C261   C     0.16925   0.74905   0.02690   0.00000  Uiso   1.00
C262   C     0.16898   0.74864   0.47370   0.00000  Uiso   1.00
N263   N     0.32169   0.71946   0.19050   0.00000  Uiso   1.00
O264   O     0.31532   0.73827   0.14914   0.00000  Uiso   1.00
O265   O     0.30584   0.67794   0.19430   0.00000  Uiso   1.00
N266   N     0.01176   0.78140   0.31001   0.00000  Uiso   1.00
O267   O     0.00999   0.76612   0.35233   0.00000  Uiso   1.00
O268   O     0.03170   0.82142   0.30548   0.00000  Uiso   1.00
N269   N     0.08978   0.53087   0.31636   0.00000  Uiso   1.00
O270   O     0.06006   0.99505   0.30668   0.00000  Uiso   1.00
O271   O     0.09087   0.55140   0.35729   0.00000  Uiso   1.00
N272   N     0.07257   0.96350   0.17106   0.00000  Uiso   1.00
O273   O     0.04418   0.99818   0.17738   0.00000  Uiso   1.00
O274   O     0.06391   0.94174   0.13040   0.00000  Uiso   1.00
N275   N     0.08594   0.70419   0.11126   0.00000  Uiso   1.00
O276   O     0.09510   0.67035   0.13956   0.00000  Uiso   1.00
O277   O     0.03973   0.70682   0.08627   0.00000  Uiso   1.00
N278   N     0.20911   0.82461   0.38243   0.00000  Uiso   1.00
O279   O     0.25011   0.81998   0.36208   0.00000  Uiso   1.00
O280   O     0.19737   0.86483   0.39590   0.00000  Uiso   1.00
O281   O     0.50000   0.68453   0.28974   0.00000  Uiso   1.00
O282   O     0.50000   0.81546   0.21026   0.00000  Uiso   1.00
O283   O     0.50000   0.68453   0.21026   0.00000  Uiso   1.00
O284   O     0.50000   0.81547   0.28974   0.00000  Uiso   1.00
C285   C     0.49827   0.66360   0.24947   0.00000  Uiso   1.00
C286   C     0.49888   0.83630   0.25008   0.00000  Uiso   1.00
O287   O     0.42392   0.75000   0.28045   0.00000  Uiso   1.00
O288   O     0.57608   0.75000   0.21956   0.00000  Uiso   1.00
O289   O     0.42392   0.74999   0.20097   0.00000  Uiso   1.00
O290   O     0.57608   0.75000   0.29904   0.00000  Uiso   1.00
C291   C     0.40052   0.75041   0.23766   0.00000  Uiso   1.00
C292   C     0.59954   0.74983   0.26244   0.00000  Uiso   1.00
Zn293  Zn    0.50000   0.75000   0.30307   0.00000  Uiso   1.00
Zn294  Zn    0.50000   0.74999   0.19693   0.00000  Uiso   1.00
C295   C     0.34598   0.74470   0.23186   0.00000  Uiso   1.00
C296   C     0.65417   0.75599   0.26853   0.00000  Uiso   1.00
C297   C     0.45014   0.55016   0.28072   0.00000  Uiso   1.00
C298   C     0.44255   0.94661   0.20979   0.00000  Uiso   1.00
C299   C     0.46229   0.59615   0.28244   0.00000  Uiso   1.00
C300   C     0.45447   0.90094   0.21092   0.00000  Uiso   1.00
H301   H     0.45084   0.61706   0.31046   0.00000  Uiso   1.00
H302   H     0.43573   0.87831   0.18282   0.00000  Uiso   1.00
C303   C     0.48793   0.61548   0.24765   0.00000  Uiso   1.00
C304   C     0.48922   0.88397   0.24887   0.00000  Uiso   1.00
C305   C     0.50008   0.58932   0.20985   0.00000  Uiso   1.00
C306   C     0.51215   0.91209   0.28624   0.00000  Uiso   1.00
H307   H     0.51925   0.60410   0.18245   0.00000  Uiso   1.00
H308   H     0.53963   0.89918   0.31513   0.00000  Uiso   1.00
C309   C     0.48927   0.54343   0.20825   0.00000  Uiso   1.00
C310   C     0.50136   0.95756   0.28529   0.00000  Uiso   1.00
H311   H     0.50172   0.52286   0.18042   0.00000  Uiso   1.00
H312   H     0.52125   0.97961   0.31339   0.00000  Uiso   1.00
C313   C     0.46551   0.52367   0.24396   0.00000  Uiso   1.00
C314   C     0.46722   0.97500   0.24715   0.00000  Uiso   1.00
C315   C     0.46282   0.72697   0.04580   0.00000  Uiso   1.00
C316   C     0.52121   0.78593   0.45167   0.00000  Uiso   1.00
H317   H     0.43175   0.70956   0.02227   0.00000  Uiso   1.00
H318   H     0.53667   0.81527   0.47274   0.00000  Uiso   1.00
C319   C     0.46182   0.72732   0.09510   0.00000  Uiso   1.00
C320   C     0.52056   0.78609   0.40214   0.00000  Uiso   1.00
N321   N     0.50000   0.74999   0.12624   0.00000  Uiso   1.00
N322   N     0.50000   0.75001   0.37377   0.00000  Uiso   1.00
C323   C     0.53854   0.77290   0.10859   0.00000  Uiso   1.00
C324   C     0.48064   0.71341   0.39426   0.00000  Uiso   1.00
H325   H     0.56787   0.79156   0.13276   0.00000  Uiso   1.00
H326   H     0.46457   0.68493   0.37220   0.00000  Uiso   1.00
C327   C     0.54087   0.77253   0.05935   0.00000  Uiso   1.00
C328   C     0.48174   0.71190   0.44392   0.00000  Uiso   1.00
H329   H     0.57280   0.79027   0.04705   0.00000  Uiso   1.00
H330   H     0.46701   0.68180   0.45875   0.00000  Uiso   1.00
C331   C     0.50259   0.74905   0.02690   0.00000  Uiso   1.00
C332   C     0.50231   0.74864   0.47370   0.00000  Uiso   1.00
N333   N     0.65502   0.71946   0.19050   0.00000  Uiso   1.00
O334   O     0.64865   0.73827   0.14914   0.00000  Uiso   1.00
O335   O     0.63918   0.67794   0.19430   0.00000  Uiso   1.00
N336   N     0.34510   0.78140   0.31001   0.00000  Uiso   1.00
O337   O     0.34332   0.76612   0.35233   0.00000  Uiso   1.00
O338   O     0.36503   0.82142   0.30548   0.00000  Uiso   1.00
N339   N     0.42311   0.53087   0.31636   0.00000  Uiso   1.00
O340   O     0.39339   0.99505   0.30668   0.00000  Uiso   1.00
O341   O     0.42421   0.55140   0.35729   0.00000  Uiso   1.00
N342   N     0.40590   0.96350   0.17106   0.00000  Uiso   1.00
O343   O     0.37752   0.99818   0.17738   0.00000  Uiso   1.00
O344   O     0.39724   0.94174   0.13040   0.00000  Uiso   1.00
N345   N     0.41927   0.70419   0.11126   0.00000  Uiso   1.00
O346   O     0.42844   0.67035   0.13956   0.00000  Uiso   1.00
O347   O     0.37306   0.70682   0.08627   0.00000  Uiso   1.00
N348   N     0.54244   0.82461   0.38243   0.00000  Uiso   1.00
O349   O     0.58344   0.81998   0.36208   0.00000  Uiso   1.00
O350   O     0.53070   0.86483   0.39590   0.00000  Uiso   1.00
O351   O     0.83334   0.68453   0.28974   0.00000  Uiso   1.00
O352   O     0.83333   0.81546   0.21026   0.00000  Uiso   1.00
O353   O     0.83334   0.68453   0.21026   0.00000  Uiso   1.00
O354   O     0.83333   0.81547   0.28974   0.00000  Uiso   1.00
C355   C     0.83160   0.66360   0.24947   0.00000  Uiso   1.00
C356   C     0.83221   0.83630   0.25008   0.00000  Uiso   1.00
O357   O     0.75725   0.75000   0.28045   0.00000  Uiso   1.00
O358   O     0.90942   0.75000   0.21956   0.00000  Uiso   1.00
O359   O     0.75725   0.74999   0.20097   0.00000  Uiso   1.00
O360   O     0.90942   0.75000   0.29904   0.00000  Uiso   1.00
C361   C     0.73386   0.75041   0.23766   0.00000  Uiso   1.00
C362   C     0.93287   0.74983   0.26244   0.00000  Uiso   1.00
Zn363  Zn    0.83333   0.75000   0.30307   0.00000  Uiso   1.00
Zn364  Zn    0.83333   0.74999   0.19693   0.00000  Uiso   1.00
C365   C     0.67932   0.74470   0.23186   0.00000  Uiso   1.00
C366   C     0.98750   0.75599   0.26853   0.00000  Uiso   1.00
C367   C     0.78348   0.55016   0.28072   0.00000  Uiso   1.00
C368   C     0.77588   0.94661   0.20979   0.00000  Uiso   1.00
C369   C     0.79562   0.59615   0.28244   0.00000  Uiso   1.00
C370   C     0.78780   0.90094   0.21092   0.00000  Uiso   1.00
H371   H     0.78417   0.61706   0.31046   0.00000  Uiso   1.00
H372   H     0.76907   0.87831   0.18282   0.00000  Uiso   1.00
C373   C     0.82126   0.61548   0.24765   0.00000  Uiso   1.00
C374   C     0.82255   0.88397   0.24887   0.00000  Uiso   1.00
C375   C     0.83342   0.58932   0.20985   0.00000  Uiso   1.00
C376   C     0.84548   0.91209   0.28624   0.00000  Uiso   1.00
H377   H     0.85258   0.60410   0.18245   0.00000  Uiso   1.00
H378   H     0.87296   0.89918   0.31513   0.00000  Uiso   1.00
C379   C     0.82260   0.54343   0.20825   0.00000  Uiso   1.00
C380   C     0.83469   0.95756   0.28529   0.00000  Uiso   1.00
H381   H     0.83506   0.52286   0.18042   0.00000  Uiso   1.00
H382   H     0.85459   0.97961   0.31339   0.00000  Uiso   1.00
C383   C     0.79885   0.52367   0.24396   0.00000  Uiso   1.00
C384   C     0.80056   0.97500   0.24715   0.00000  Uiso   1.00
C385   C     0.79615   0.72697   0.04580   0.00000  Uiso   1.00
C386   C     0.85455   0.78593   0.45167   0.00000  Uiso   1.00
H387   H     0.76508   0.70956   0.02227   0.00000  Uiso   1.00
H388   H     0.87000   0.81527   0.47274   0.00000  Uiso   1.00
C389   C     0.79516   0.72732   0.09510   0.00000  Uiso   1.00
C390   C     0.85390   0.78609   0.40214   0.00000  Uiso   1.00
N391   N     0.83333   0.74999   0.12624   0.00000  Uiso   1.00
N392   N     0.83333   0.75001   0.37377   0.00000  Uiso   1.00
C393   C     0.87187   0.77290   0.10859   0.00000  Uiso   1.00
C394   C     0.81397   0.71341   0.39426   0.00000  Uiso   1.00
H395   H     0.90120   0.79156   0.13276   0.00000  Uiso   1.00
H396   H     0.79790   0.68493   0.37220   0.00000  Uiso   1.00
C397   C     0.87420   0.77253   0.05935   0.00000  Uiso   1.00
C398   C     0.81507   0.71190   0.44392   0.00000  Uiso   1.00
H399   H     0.90613   0.79027   0.04705   0.00000  Uiso   1.00
H400   H     0.80034   0.68180   0.45875   0.00000  Uiso   1.00
C401   C     0.83592   0.74905   0.02690   0.00000  Uiso   1.00
C402   C     0.83564   0.74864   0.47370   0.00000  Uiso   1.00
N403   N     0.98835   0.71946   0.19050   0.00000  Uiso   1.00
O404   O     0.98199   0.73827   0.14914   0.00000  Uiso   1.00
O405   O     0.97251   0.67794   0.19430   0.00000  Uiso   1.00
N406   N     0.67843   0.78140   0.31001   0.00000  Uiso   1.00
O407   O     0.67666   0.76612   0.35233   0.00000  Uiso   1.00
O408   O     0.69837   0.82142   0.30548   0.00000  Uiso   1.00
N409   N     0.75645   0.53087   0.31636   0.00000  Uiso   1.00
O410   O     0.72672   0.99505   0.30668   0.00000  Uiso   1.00
O411   O     0.75754   0.55140   0.35729   0.00000  Uiso   1.00
N412   N     0.73924   0.96350   0.17106   0.00000  Uiso   1.00
O413   O     0.71085   0.99818   0.17738   0.00000  Uiso   1.00
O414   O     0.73057   0.94174   0.13040   0.00000  Uiso   1.00
N415   N     0.75261   0.70419   0.11126   0.00000  Uiso   1.00
O416   O     0.76177   0.67035   0.13956   0.00000  Uiso   1.00
O417   O     0.70639   0.70682   0.08627   0.00000  Uiso   1.00
N418   N     0.87578   0.82461   0.38243   0.00000  Uiso   1.00
O419   O     0.91677   0.81998   0.36208   0.00000  Uiso   1.00
O420   O     0.86404   0.86483   0.39590   0.00000  Uiso   1.00
O421   O     0.16667   0.18453   0.78974   0.00000  Uiso   1.00
O422   O     0.16666   0.31546   0.71026   0.00000  Uiso   1.00
O423   O     0.16667   0.18453   0.71026   0.00000  Uiso   1.00
O424   O     0.16666   0.31547   0.78974   0.00000  Uiso   1.00
C425   C     0.16494   0.16360   0.74947   0.00000  Uiso   1.00
C426   C     0.16554   0.33630   0.75008   0.00000  Uiso   1.00
O427   O     0.09058   0.25000   0.78045   0.00000  Uiso   1.00
O428   O     0.24275   0.25000   0.71956   0.00000  Uiso   1.00
O429   O     0.09058   0.24999   0.70097   0.00000  Uiso   1.00
O430   O     0.24275   0.25000   0.79904   0.00000  Uiso   1.00
C431   C     0.06719   0.25041   0.73766   0.00000  Uiso   1.00
C432   C     0.26620   0.24983   0.76244   0.00000  Uiso   1.00
Zn433  Zn    0.16667   0.25000   0.80307   0.00000  Uiso   1.00
Zn434  Zn    0.16667   0.24999   0.69693   0.00000  Uiso   1.00
C435   C     0.01265   0.24470   0.73186   0.00000  Uiso   1.00
C436   C     0.32083   0.25599   0.76853   0.00000  Uiso   1.00
C437   C     0.11681   0.05016   0.78072   0.00000  Uiso   1.00
C438   C     0.10921   0.44661   0.70979   0.00000  Uiso   1.00
C439   C     0.12896   0.09615   0.78244   0.00000  Uiso   1.00
C440   C     0.12113   0.40094   0.71092   0.00000  Uiso   1.00
H441   H     0.11751   0.11706   0.81046   0.00000  Uiso   1.00
H442   H     0.10240   0.37831   0.68282   0.00000  Uiso   1.00
C443   C     0.15459   0.11548   0.74765   0.00000  Uiso   1.00
C444   C     0.15588   0.38397   0.74887   0.00000  Uiso   1.00
C445   C     0.16675   0.08932   0.70985   0.00000  Uiso   1.00
C446   C     0.17881   0.41209   0.78624   0.00000  Uiso   1.00
H447   H     0.18591   0.10410   0.68245   0.00000  Uiso   1.00
H448   H     0.20630   0.39918   0.81513   0.00000  Uiso   1.00
C449   C     0.15594   0.04343   0.70825   0.00000  Uiso   1.00
C450   C     0.16803   0.45756   0.78529   0.00000  Uiso   1.00
H451   H     0.16839   0.02286   0.68042   0.00000  Uiso   1.00
H452   H     0.18792   0.47961   0.81339   0.00000  Uiso   1.00
C453   C     0.13218   0.02367   0.74396   0.00000  Uiso   1.00
C454   C     0.13389   0.47500   0.74715   0.00000  Uiso   1.00
C455   C     0.12948   0.22697   0.54580   0.00000  Uiso   1.00
C456   C     0.18788   0.28593   0.95167   0.00000  Uiso   1.00
H457   H     0.09842   0.20956   0.52227   0.00000  Uiso   1.00
H458   H     0.20334   0.31527   0.97274   0.00000  Uiso   1.00
C459   C     0.12849   0.22732   0.59510   0.00000  Uiso   1.00
C460   C     0.18723   0.28609   0.90214   0.00000  Uiso   1.00
N461   N     0.16667   0.24999   0.62624   0.00000  Uiso   1.00
N462   N     0.16667   0.25001   0.87377   0.00000  Uiso   1.00
C463   C     0.20521   0.27290   0.60859   0.00000  Uiso   1.00
C464   C     0.14730   0.21341   0.89426   0.00000  Uiso   1.00
H465   H     0.23453   0.29156   0.63276   0.00000  Uiso   1.00
H466   H     0.13123   0.18493   0.87220   0.00000  Uiso   1.00
C467   C     0.20753   0.27253   0.55935   0.00000  Uiso   1.00
C468   C     0.14840   0.21190   0.94392   0.00000  Uiso   1.00
H469   H     0.23946   0.29027   0.54705   0.00000  Uiso   1.00
H470   H     0.13367   0.18180   0.95875   0.00000  Uiso   1.00
C471   C     0.16925   0.24905   0.52690   0.00000  Uiso   1.00
C472   C     0.16898   0.24864   0.97370   0.00000  Uiso   1.00
N473   N     0.32169   0.21946   0.69050   0.00000  Uiso   1.00
O474   O     0.31532   0.23827   0.64914   0.00000  Uiso   1.00
O475   O     0.30584   0.17794   0.69430   0.00000  Uiso   1.00
N476   N     0.01176   0.28140   0.81001   0.00000  Uiso   1.00
O477   O     0.00999   0.26612   0.85233   0.00000  Uiso   1.00
O478   O     0.03170   0.32142   0.80548   0.00000  Uiso   1.00
N479   N     0.08978   0.03087   0.81636   0.00000  Uiso   1.00
O480   O     0.06006   0.49505   0.80668   0.00000  Uiso   1.00
O481   O     0.09087   0.05140   0.85729   0.00000  Uiso   1.00
N482   N     0.07257   0.46350   0.67106   0.00000  Uiso   1.00
O483   O     0.04418   0.49818   0.67738   0.00000  Uiso   1.00
O484   O     0.06391   0.44174   0.63040   0.00000  Uiso   1.00
N485   N     0.08594   0.20419   0.61126   0.00000  Uiso   1.00
O486   O     0.09510   0.17035   0.63956   0.00000  Uiso   1.00
O487   O     0.03973   0.20682   0.58627   0.00000  Uiso   1.00
N488   N     0.20911   0.32461   0.88243   0.00000  Uiso   1.00
O489   O     0.25011   0.31998   0.86208   0.00000  Uiso   1.00
O490   O     0.19737   0.36483   0.89590   0.00000  Uiso   1.00
O491   O     0.50000   0.18453   0.78974   0.00000  Uiso   1.00
O492   O     0.50000   0.31546   0.71026   0.00000  Uiso   1.00
O493   O     0.50000   0.18453   0.71026   0.00000  Uiso   1.00
O494   O     0.50000   0.31547   0.78974   0.00000  Uiso   1.00
C495   C     0.49827   0.16360   0.74947   0.00000  Uiso   1.00
C496   C     0.49888   0.33630   0.75008   0.00000  Uiso   1.00
O497   O     0.42392   0.25000   0.78045   0.00000  Uiso   1.00
O498   O     0.57608   0.25000   0.71956   0.00000  Uiso   1.00
O499   O     0.42392   0.24999   0.70097   0.00000  Uiso   1.00
O500   O     0.57608   0.25000   0.79904   0.00000  Uiso   1.00
C501   C     0.40052   0.25041   0.73766   0.00000  Uiso   1.00
C502   C     0.59954   0.24983   0.76244   0.00000  Uiso   1.00
Zn503  Zn    0.50000   0.25000   0.80307   0.00000  Uiso   1.00
Zn504  Zn    0.50000   0.24999   0.69693   0.00000  Uiso   1.00
C505   C     0.34598   0.24470   0.73186   0.00000  Uiso   1.00
C506   C     0.65417   0.25599   0.76853   0.00000  Uiso   1.00
C507   C     0.45014   0.05016   0.78072   0.00000  Uiso   1.00
C508   C     0.44255   0.44661   0.70979   0.00000  Uiso   1.00
C509   C     0.46229   0.09615   0.78244   0.00000  Uiso   1.00
C510   C     0.45447   0.40094   0.71092   0.00000  Uiso   1.00
H511   H     0.45084   0.11706   0.81046   0.00000  Uiso   1.00
H512   H     0.43573   0.37831   0.68282   0.00000  Uiso   1.00
C513   C     0.48793   0.11548   0.74765   0.00000  Uiso   1.00
C514   C     0.48922   0.38397   0.74887   0.00000  Uiso   1.00
C515   C     0.50008   0.08932   0.70985   0.00000  Uiso   1.00
C516   C     0.51215   0.41209   0.78624   0.00000  Uiso   1.00
H517   H     0.51925   0.10410   0.68245   0.00000  Uiso   1.00
H518   H     0.53963   0.39918   0.81513   0.00000  Uiso   1.00
C519   C     0.48927   0.04343   0.70825   0.00000  Uiso   1.00
C520   C     0.50136   0.45756   0.78529   0.00000  Uiso   1.00
H521   H     0.50172   0.02286   0.68042   0.00000  Uiso   1.00
H522   H     0.52125   0.47961   0.81339   0.00000  Uiso   1.00
C523   C     0.46551   0.02367   0.74396   0.00000  Uiso   1.00
C524   C     0.46722   0.47500   0.74715   0.00000  Uiso   1.00
C525   C     0.46282   0.22697   0.54580   0.00000  Uiso   1.00
C526   C     0.52121   0.28593   0.95167   0.00000  Uiso   1.00
H527   H     0.43175   0.20956   0.52227   0.00000  Uiso   1.00
H528   H     0.53667   0.31527   0.97274   0.00000  Uiso   1.00
C529   C     0.46182   0.22732   0.59510   0.00000  Uiso   1.00
C530   C     0.52056   0.28609   0.90214   0.00000  Uiso   1.00
N531   N     0.50000   0.24999   0.62624   0.00000  Uiso   1.00
N532   N     0.50000   0.25001   0.87377   0.00000  Uiso   1.00
C533   C     0.53854   0.27290   0.60859   0.00000  Uiso   1.00
C534   C     0.48064   0.21341   0.89426   0.00000  Uiso   1.00
H535   H     0.56787   0.29156   0.63276   0.00000  Uiso   1.00
H536   H     0.46457   0.18493   0.87220   0.00000  Uiso   1.00
C537   C     0.54087   0.27253   0.55935   0.00000  Uiso   1.00
C538   C     0.48174   0.21190   0.94392   0.00000  Uiso   1.00
H539   H     0.57280   0.29027   0.54705   0.00000  Uiso   1.00
H540   H     0.46701   0.18180   0.95875   0.00000  Uiso   1.00
C541   C     0.50259   0.24905   0.52690   0.00000  Uiso   1.00
C542   C     0.50231   0.24864   0.97370   0.00000  Uiso   1.00
N543   N     0.65502   0.21946   0.69050   0.00000  Uiso   1.00
O544   O     0.64865   0.23827   0.64914   0.00000  Uiso   1.00
O545   O     0.63918   0.17794   0.69430   0.00000  Uiso   1.00
N546   N     0.34510   0.28140   0.81001   0.00000  Uiso   1.00
O547   O     0.34332   0.26612   0.85233   0.00000  Uiso   1.00
O548   O     0.36503   0.32142   0.80548   0.00000  Uiso   1.00
N549   N     0.42311   0.03087   0.81636   0.00000  Uiso   1.00
O550   O     0.39339   0.49505   0.80668   0.00000  Uiso   1.00
O551   O     0.42421   0.05140   0.85729   0.00000  Uiso   1.00
N552   N     0.40590   0.46350   0.67106   0.00000  Uiso   1.00
O553   O     0.37752   0.49818   0.67738   0.00000  Uiso   1.00
O554   O     0.39724   0.44174   0.63040   0.00000  Uiso   1.00
N555   N     0.41927   0.20419   0.61126   0.00000  Uiso   1.00
O556   O     0.42844   0.17035   0.63956   0.00000  Uiso   1.00
O557   O     0.37306   0.20682   0.58627   0.00000  Uiso   1.00
N558   N     0.54244   0.32461   0.88243   0.00000  Uiso   1.00
O559   O     0.58344   0.31998   0.86208   0.00000  Uiso   1.00
O560   O     0.53070   0.36483   0.89590   0.00000  Uiso   1.00
O561   O     0.83334   0.18453   0.78974   0.00000  Uiso   1.00
O562   O     0.83333   0.31546   0.71026   0.00000  Uiso   1.00
O563   O     0.83334   0.18453   0.71026   0.00000  Uiso   1.00
O564   O     0.83333   0.31547   0.78974   0.00000  Uiso   1.00
C565   C     0.83160   0.16360   0.74947   0.00000  Uiso   1.00
C566   C     0.83221   0.33630   0.75008   0.00000  Uiso   1.00
O567   O     0.75725   0.25000   0.78045   0.00000  Uiso   1.00
O568   O     0.90942   0.25000   0.71956   0.00000  Uiso   1.00
O569   O     0.75725   0.24999   0.70097   0.00000  Uiso   1.00
O570   O     0.90942   0.25000   0.79904   0.00000  Uiso   1.00
C571   C     0.73386   0.25041   0.73766   0.00000  Uiso   1.00
C572   C     0.93287   0.24983   0.76244   0.00000  Uiso   1.00
Zn573  Zn    0.83333   0.25000   0.80307   0.00000  Uiso   1.00
Zn574  Zn    0.83333   0.24999   0.69693   0.00000  Uiso   1.00
C575   C     0.67932   0.24470   0.73186   0.00000  Uiso   1.00
C576   C     0.98750   0.25599   0.76853   0.00000  Uiso   1.00
C577   C     0.78348   0.05016   0.78072   0.00000  Uiso   1.00
C578   C     0.77588   0.44661   0.70979   0.00000  Uiso   1.00
C579   C     0.79562   0.09615   0.78244   0.00000  Uiso   1.00
C580   C     0.78780   0.40094   0.71092   0.00000  Uiso   1.00
H581   H     0.78417   0.11706   0.81046   0.00000  Uiso   1.00
H582   H     0.76907   0.37831   0.68282   0.00000  Uiso   1.00
C583   C     0.82126   0.11548   0.74765   0.00000  Uiso   1.00
C584   C     0.82255   0.38397   0.74887   0.00000  Uiso   1.00
C585   C     0.83342   0.08932   0.70985   0.00000  Uiso   1.00
C586   C     0.84548   0.41209   0.78624   0.00000  Uiso   1.00
H587   H     0.85258   0.10410   0.68245   0.00000  Uiso   1.00
H588   H     0.87296   0.39918   0.81513   0.00000  Uiso   1.00
C589   C     0.82260   0.04343   0.70825   0.00000  Uiso   1.00
C590   C     0.83469   0.45756   0.78529   0.00000  Uiso   1.00
H591   H     0.83506   0.02286   0.68042   0.00000  Uiso   1.00
H592   H     0.85459   0.47961   0.81339   0.00000  Uiso   1.00
C593   C     0.79885   0.02367   0.74396   0.00000  Uiso   1.00
C594   C     0.80056   0.47500   0.74715   0.00000  Uiso   1.00
C595   C     0.79615   0.22697   0.54580   0.00000  Uiso   1.00
C596   C     0.85455   0.28593   0.95167   0.00000  Uiso   1.00
H597   H     0.76508   0.20956   0.52227   0.00000  Uiso   1.00
H598   H     0.87000   0.31527   0.97274   0.00000  Uiso   1.00
C599   C     0.79516   0.22732   0.59510   0.00000  Uiso   1.00
C600   C     0.85390   0.28609   0.90214   0.00000  Uiso   1.00
N601   N     0.83333   0.24999   0.62624   0.00000  Uiso   1.00
N602   N     0.83333   0.25001   0.87377   0.00000  Uiso   1.00
C603   C     0.87187   0.27290   0.60859   0.00000  Uiso   1.00
C604   C     0.81397   0.21341   0.89426   0.00000  Uiso   1.00
H605   H     0.90120   0.29156   0.63276   0.00000  Uiso   1.00
H606   H     0.79790   0.18493   0.87220   0.00000  Uiso   1.00
C607   C     0.87420   0.27253   0.55935   0.00000  Uiso   1.00
C608   C     0.81507   0.21190   0.94392   0.00000  Uiso   1.00
H609   H     0.90613   0.29027   0.54705   0.00000  Uiso   1.00
H610   H     0.80034   0.18180   0.95875   0.00000  Uiso   1.00
C611   C     0.83592   0.24905   0.52690   0.00000  Uiso   1.00
C612   C     0.83564   0.24864   0.97370   0.00000  Uiso   1.00
N613   N     0.98835   0.21946   0.69050   0.00000  Uiso   1.00
O614   O     0.98199   0.23827   0.64914   0.00000  Uiso   1.00
O615   O     0.97251   0.17794   0.69430   0.00000  Uiso   1.00
N616   N     0.67843   0.28140   0.81001   0.00000  Uiso   1.00
O617   O     0.67666   0.26612   0.85233   0.00000  Uiso   1.00
O618   O     0.69837   0.32142   0.80548   0.00000  Uiso   1.00
N619   N     0.75645   0.03087   0.81636   0.00000  Uiso   1.00
O620   O     0.72672   0.49505   0.80668   0.00000  Uiso   1.00
O621   O     0.75754   0.05140   0.85729   0.00000  Uiso   1.00
N622   N     0.73924   0.46350   0.67106   0.00000  Uiso   1.00
O623   O     0.71085   0.49818   0.67738   0.00000  Uiso   1.00
O624   O     0.73057   0.44174   0.63040   0.00000  Uiso   1.00
N625   N     0.75261   0.20419   0.61126   0.00000  Uiso   1.00
O626   O     0.76177   0.17035   0.63956   0.00000  Uiso   1.00
O627   O     0.70639   0.20682   0.58627   0.00000  Uiso   1.00
N628   N     0.87578   0.32461   0.88243   0.00000  Uiso   1.00
O629   O     0.91677   0.31998   0.86208   0.00000  Uiso   1.00
O630   O     0.86404   0.36483   0.89590   0.00000  Uiso   1.00
O631   O     0.16667   0.68453   0.78974   0.00000  Uiso   1.00
O632   O     0.16666   0.81546   0.71026   0.00000  Uiso   1.00
O633   O     0.16667   0.68453   0.71026   0.00000  Uiso   1.00
O634   O     0.16666   0.81547   0.78974   0.00000  Uiso   1.00
C635   C     0.16494   0.66360   0.74947   0.00000  Uiso   1.00
C636   C     0.16554   0.83630   0.75008   0.00000  Uiso   1.00
O637   O     0.09058   0.75000   0.78045   0.00000  Uiso   1.00
O638   O     0.24275   0.75000   0.71956   0.00000  Uiso   1.00
O639   O     0.09058   0.74999   0.70097   0.00000  Uiso   1.00
O640   O     0.24275   0.75000   0.79904   0.00000  Uiso   1.00
C641   C     0.06719   0.75041   0.73766   0.00000  Uiso   1.00
C642   C     0.26620   0.74983   0.76244   0.00000  Uiso   1.00
Zn643  Zn    0.16667   0.75000   0.80307   0.00000  Uiso   1.00
Zn644  Zn    0.16667   0.74999   0.69693   0.00000  Uiso   1.00
C645   C     0.01265   0.74470   0.73186   0.00000  Uiso   1.00
C646   C     0.32083   0.75599   0.76853   0.00000  Uiso   1.00
C647   C     0.11681   0.55016   0.78072   0.00000  Uiso   1.00
C648   C     0.10921   0.94661   0.70979   0.00000  Uiso   1.00
C649   C     0.12896   0.59615   0.78244   0.00000  Uiso   1.00
C650   C     0.12113   0.90094   0.71092   0.00000  Uiso   1.00
H651   H     0.11751   0.61706   0.81046   0.00000  Uiso   1.00
H652   H     0.10240   0.87831   0.68282   0.00000  Uiso   1.00
C653   C     0.15459   0.61548   0.74765   0.00000  Uiso   1.00
C654   C     0.15588   0.88397   0.74887   0.00000  Uiso   1.00
C655   C     0.16675   0.58932   0.70985   0.00000  Uiso   1.00
C656   C     0.17881   0.91209   0.78624   0.00000  Uiso   1.00
H657   H     0.18591   0.60410   0.68245   0.00000  Uiso   1.00
H658   H     0.20630   0.89918   0.81513   0.00000  Uiso   1.00
C659   C     0.15594   0.54343   0.70825   0.00000  Uiso   1.00
C660   C     0.16803   0.95756   0.78529   0.00000  Uiso   1.00
H661   H     0.16839   0.52286   0.68042   0.00000  Uiso   1.00
H662   H     0.18792   0.97961   0.81339   0.00000  Uiso   1.00
C663   C     0.13218   0.52367   0.74396   0.00000  Uiso   1.00
C664   C     0.13389   0.97500   0.74715   0.00000  Uiso   1.00
C665   C     0.12948   0.72697   0.54580   0.00000  Uiso   1.00
C666   C     0.18788   0.78593   0.95167   0.00000  Uiso   1.00
H667   H     0.09842   0.70956   0.52227   0.00000  Uiso   1.00
H668   H     0.20334   0.81527   0.97274   0.00000  Uiso   1.00
C669   C     0.12849   0.72732   0.59510   0.00000  Uiso   1.00
C670   C     0.18723   0.78609   0.90214   0.00000  Uiso   1.00
N671   N     0.16667   0.74999   0.62624   0.00000  Uiso   1.00
N672   N     0.16667   0.75001   0.87377   0.00000  Uiso   1.00
C673   C     0.20521   0.77290   0.60859   0.00000  Uiso   1.00
C674   C     0.14730   0.71341   0.89426   0.00000  Uiso   1.00
H675   H     0.23453   0.79156   0.63276   0.00000  Uiso   1.00
H676   H     0.13123   0.68493   0.87220   0.00000  Uiso   1.00
C677   C     0.20753   0.77253   0.55935   0.00000  Uiso   1.00
C678   C     0.14840   0.71190   0.94392   0.00000  Uiso   1.00
H679   H     0.23946   0.79027   0.54705   0.00000  Uiso   1.00
H680   H     0.13367   0.68180   0.95875   0.00000  Uiso   1.00
C681   C     0.16925   0.74905   0.52690   0.00000  Uiso   1.00
C682   C     0.16898   0.74864   0.97370   0.00000  Uiso   1.00
N683   N     0.32169   0.71946   0.69050   0.00000  Uiso   1.00
O684   O     0.31532   0.73827   0.64914   0.00000  Uiso   1.00
O685   O     0.30584   0.67794   0.69430   0.00000  Uiso   1.00
N686   N     0.01176   0.78140   0.81001   0.00000  Uiso   1.00
O687   O     0.00999   0.76612   0.85233   0.00000  Uiso   1.00
O688   O     0.03170   0.82142   0.80548   0.00000  Uiso   1.00
N689   N     0.08978   0.53087   0.81636   0.00000  Uiso   1.00
O690   O     0.06006   0.99505   0.80668   0.00000  Uiso   1.00
O691   O     0.09087   0.55140   0.85729   0.00000  Uiso   1.00
N692   N     0.07257   0.96350   0.67106   0.00000  Uiso   1.00
O693   O     0.04418   0.99818   0.67738   0.00000  Uiso   1.00
O694   O     0.06391   0.94174   0.63040   0.00000  Uiso   1.00
N695   N     0.08594   0.70419   0.61126   0.00000  Uiso   1.00
O696   O     0.09510   0.67035   0.63956   0.00000  Uiso   1.00
O697   O     0.03973   0.70682   0.58627   0.00000  Uiso   1.00
N698   N     0.20911   0.82461   0.88243   0.00000  Uiso   1.00
O699   O     0.25011   0.81998   0.86208   0.00000  Uiso   1.00
O700   O     0.19737   0.86483   0.89590   0.00000  Uiso   1.00
O701   O     0.50000   0.68453   0.78974   0.00000  Uiso   1.00
O702   O     0.50000   0.81546   0.71026   0.00000  Uiso   1.00
O703   O     0.50000   0.68453   0.71026   0.00000  Uiso   1.00
O704   O     0.50000   0.81547   0.78974   0.00000  Uiso   1.00
C705   C     0.49827   0.66360   0.74947   0.00000  Uiso   1.00
C706   C     0.49888   0.83630   0.75008   0.00000  Uiso   1.00
O707   O     0.42392   0.75000   0.78045   0.00000  Uiso   1.00
O708   O     0.57608   0.75000   0.71956   0.00000  Uiso   1.00
O709   O     0.42392   0.74999   0.70097   0.00000  Uiso   1.00
O710   O     0.57608   0.75000   0.79904   0.00000  Uiso   1.00
C711   C     0.40052   0.75041   0.73766   0.00000  Uiso   1.00
C712   C     0.59954   0.74983   0.76244   0.00000  Uiso   1.00
Zn713  Zn    0.50000   0.75000   0.80307   0.00000  Uiso   1.00
Zn714  Zn    0.50000   0.74999   0.69693   0.00000  Uiso   1.00
C715   C     0.34598   0.74470   0.73186   0.00000  Uiso   1.00
C716   C     0.65417   0.75599   0.76853   0.00000  Uiso   1.00
C717   C     0.45014   0.55016   0.78072   0.00000  Uiso   1.00
C718   C     0.44255   0.94661   0.70979   0.00000  Uiso   1.00
C719   C     0.46229   0.59615   0.78244   0.00000  Uiso   1.00
C720   C     0.45447   0.90094   0.71092   0.00000  Uiso   1.00
H721   H     0.45084   0.61706   0.81046   0.00000  Uiso   1.00
H722   H     0.43573   0.87831   0.68282   0.00000  Uiso   1.00
C723   C     0.48793   0.61548   0.74765   0.00000  Uiso   1.00
C724   C     0.48922   0.88397   0.74887   0.00000  Uiso   1.00
C725   C     0.50008   0.58932   0.70985   0.00000  Uiso   1.00
C726   C     0.51215   0.91209   0.78624   0.00000  Uiso   1.00
H727   H     0.51925   0.60410   0.68245   0.00000  Uiso   1.00
H728   H     0.53963   0.89918   0.81513   0.00000  Uiso   1.00
C729   C     0.48927   0.54343   0.70825   0.00000  Uiso   1.00
C730   C     0.50136   0.95756   0.78529   0.00000  Uiso   1.00
H731   H     0.50172   0.52286   0.68042   0.00000  Uiso   1.00
H732   H     0.52125   0.97961   0.81339   0.00000  Uiso   1.00
C733   C     0.46551   0.52367   0.74396   0.00000  Uiso   1.00
C734   C     0.46722   0.97500   0.74715   0.00000  Uiso   1.00
C735   C     0.46282   0.72697   0.54580   0.00000  Uiso   1.00
C736   C     0.52121   0.78593   0.95167   0.00000  Uiso   1.00
H737   H     0.43175   0.70956   0.52227   0.00000  Uiso   1.00
H738   H     0.53667   0.81527   0.97274   0.00000  Uiso   1.00
C739   C     0.46182   0.72732   0.59510   0.00000  Uiso   1.00
C740   C     0.52056   0.78609   0.90214   0.00000  Uiso   1.00
N741   N     0.50000   0.74999   0.62624   0.00000  Uiso   1.00
N742   N     0.50000   0.75001   0.87377   0.00000  Uiso   1.00
C743   C     0.53854   0.77290   0.60859   0.00000  Uiso   1.00
C744   C     0.48064   0.71341   0.89426   0.00000  Uiso   1.00
H745   H     0.56787   0.79156   0.63276   0.00000  Uiso   1.00
H746   H     0.46457   0.68493   0.87220   0.00000  Uiso   1.00
C747   C     0.54087   0.77253   0.55935   0.00000  Uiso   1.00
C748   C     0.48174   0.71190   0.94392   0.00000  Uiso   1.00
H749   H     0.57280   0.79027   0.54705   0.00000  Uiso   1.00
H750   H     0.46701   0.68180   0.95875   0.00000  Uiso   1.00
C751   C     0.50259   0.74905   0.52690   0.00000  Uiso   1.00
C752   C     0.50231   0.74864   0.97370   0.00000  Uiso   1.00
N753   N     0.65502   0.71946   0.69050   0.00000  Uiso   1.00
O754   O     0.64865   0.73827   0.64914   0.00000  Uiso   1.00
O755   O     0.63918   0.67794   0.69430   0.00000  Uiso   1.00
N756   N     0.34510   0.78140   0.81001   0.00000  Uiso   1.00
O757   O     0.34332   0.76612   0.85233   0.00000  Uiso   1.00
O758   O     0.36503   0.82142   0.80548   0.00000  Uiso   1.00
N759   N     0.42311   0.53087   0.81636   0.00000  Uiso   1.00
O760   O     0.39339   0.99505   0.80668   0.00000  Uiso   1.00
O761   O     0.42421   0.55140   0.85729   0.00000  Uiso   1.00
N762   N     0.40590   0.96350   0.67106   0.00000  Uiso   1.00
O763   O     0.37752   0.99818   0.67738   0.00000  Uiso   1.00
O764   O     0.39724   0.94174   0.63040   0.00000  Uiso   1.00
N765   N     0.41927   0.70419   0.61126   0.00000  Uiso   1.00
O766   O     0.42844   0.67035   0.63956   0.00000  Uiso   1.00
O767   O     0.37306   0.70682   0.58627   0.00000  Uiso   1.00
N768   N     0.54244   0.82461   0.88243   0.00000  Uiso   1.00
O769   O     0.58344   0.81998   0.86208   0.00000  Uiso   1.00
O770   O     0.53070   0.86483   0.89590   0.00000  Uiso   1.00
O771   O     0.83334   0.68453   0.78974   0.00000  Uiso   1.00
O772   O     0.83333   0.81546   0.71026   0.00000  Uiso   1.00
O773   O     0.83334   0.68453   0.71026   0.00000  Uiso   1.00
O774   O     0.83333   0.81547   0.78974   0.00000  Uiso   1.00
C775   C     0.83160   0.66360   0.74947   0.00000  Uiso   1.00
C776   C     0.83221   0.83630   0.75008   0.00000  Uiso   1.00
O777   O     0.75725   0.75000   0.78045   0.00000  Uiso   1.00
O778   O     0.90942   0.75000   0.71956   0.00000  Uiso   1.00
O779   O     0.75725   0.74999   0.70097   0.00000  Uiso   1.00
O780   O     0.90942   0.75000   0.79904   0.00000  Uiso   1.00
C781   C     0.73386   0.75041   0.73766   0.00000  Uiso   1.00
C782   C     0.93287   0.74983   0.76244   0.00000  Uiso   1.00
Zn783  Zn    0.83333   0.75000   0.80307   0.00000  Uiso   1.00
Zn784  Zn    0.83333   0.74999   0.69693   0.00000  Uiso   1.00
C785   C     0.67932   0.74470   0.73186   0.00000  Uiso   1.00
C786   C     0.98750   0.75599   0.76853   0.00000  Uiso   1.00
C787   C     0.78348   0.55016   0.78072   0.00000  Uiso   1.00
C788   C     0.77588   0.94661   0.70979   0.00000  Uiso   1.00
C789   C     0.79562   0.59615   0.78244   0.00000  Uiso   1.00
C790   C     0.78780   0.90094   0.71092   0.00000  Uiso   1.00
H791   H     0.78417   0.61706   0.81046   0.00000  Uiso   1.00
H792   H     0.76907   0.87831   0.68282   0.00000  Uiso   1.00
C793   C     0.82126   0.61548   0.74765   0.00000  Uiso   1.00
C794   C     0.82255   0.88397   0.74887   0.00000  Uiso   1.00
C795   C     0.83342   0.58932   0.70985   0.00000  Uiso   1.00
C796   C     0.84548   0.91209   0.78624   0.00000  Uiso   1.00
H797   H     0.85258   0.60410   0.68245   0.00000  Uiso   1.00
H798   H     0.87296   0.89918   0.81513   0.00000  Uiso   1.00
C799   C     0.82260   0.54343   0.70825   0.00000  Uiso   1.00
C800   C     0.83469   0.95756   0.78529   0.00000  Uiso   1.00
H801   H     0.83506   0.52286   0.68042   0.00000  Uiso   1.00
H802   H     0.85459   0.97961   0.81339   0.00000  Uiso   1.00
C803   C     0.79885   0.52367   0.74396   0.00000  Uiso   1.00
C804   C     0.80056   0.97500   0.74715   0.00000  Uiso   1.00
C805   C     0.79615   0.72697   0.54580   0.00000  Uiso   1.00
C806   C     0.85455   0.78593   0.95167   0.00000  Uiso   1.00
H807   H     0.76508   0.70956   0.52227   0.00000  Uiso   1.00
H808   H     0.87000   0.81527   0.97274   0.00000  Uiso   1.00
C809   C     0.79516   0.72732   0.59510   0.00000  Uiso   1.00
C810   C     0.85390   0.78609   0.90214   0.00000  Uiso   1.00
N811   N     0.83333   0.74999   0.62624   0.00000  Uiso   1.00
N812   N     0.83333   0.75001   0.87377   0.00000  Uiso   1.00
C813   C     0.87187   0.77290   0.60859   0.00000  Uiso   1.00
C814   C     0.81397   0.71341   0.89426   0.00000  Uiso   1.00
H815   H     0.90120   0.79156   0.63276   0.00000  Uiso   1.00
H816   H     0.79790   0.68493   0.87220   0.00000  Uiso   1.00
C817   C     0.87420   0.77253   0.55935   0.00000  Uiso   1.00
C818   C     0.81507   0.71190   0.94392   0.00000  Uiso   1.00
H819   H     0.90613   0.79027   0.54705   0.00000  Uiso   1.00
H820   H     0.80034   0.68180   0.95875   0.00000  Uiso   1.00
C821   C     0.83592   0.74905   0.52690   0.00000  Uiso   1.00
C822   C     0.83564   0.74864   0.97370   0.00000  Uiso   1.00
N823   N     0.98835   0.71946   0.69050   0.00000  Uiso   1.00
O824   O     0.98199   0.73827   0.64914   0.00000  Uiso   1.00
O825   O     0.97251   0.67794   0.69430   0.00000  Uiso   1.00
N826   N     0.67843   0.78140   0.81001   0.00000  Uiso   1.00
O827   O     0.67666   0.76612   0.85233   0.00000  Uiso   1.00
O828   O     0.69837   0.82142   0.80548   0.00000  Uiso   1.00
N829   N     0.75645   0.53087   0.81636   0.00000  Uiso   1.00
O830   O     0.72672   0.99505   0.80668   0.00000  Uiso   1.00
O831   O     0.75754   0.55140   0.85729   0.00000  Uiso   1.00
N832   N     0.73924   0.96350   0.67106   0.00000  Uiso   1.00
O833   O     0.71085   0.99818   0.67738   0.00000  Uiso   1.00
O834   O     0.73057   0.94174   0.63040   0.00000  Uiso   1.00
N835   N     0.75261   0.70419   0.61126   0.00000  Uiso   1.00
O836   O     0.76177   0.67035   0.63956   0.00000  Uiso   1.00
O837   O     0.70639   0.70682   0.58627   0.00000  Uiso   1.00
N838   N     0.87578   0.82461   0.88243   0.00000  Uiso   1.00
O839   O     0.91677   0.81998   0.86208   0.00000  Uiso   1.00
O840   O     0.86404   0.86483   0.89590   0.00000  Uiso   1.00
loop_
_geom_bond_atom_site_label_1
_geom_bond_atom_site_label_2
_geom_bond_distance
_geom_bond_site_symmetry_2
_ccdc_geom_bond_type
O1     C5      1.289   .     A
O1     Zn13    1.969   .     S
O2     C6      1.286   .     A
O2     Zn14    1.969   .     S
O3     Zn14    1.981   .     S
O3     C5      1.292   .     A
O4     C6      1.292   .     A
O4     Zn13    1.981   .     S
C5     C23     1.444   .     S
C6     C24     1.438   .     S
O7     C11     1.273   .     A
O7     Zn13    1.982   .     S
O8     C12     1.276   .     A
O8     Zn14    1.982   .     S
O9     Zn14    2.000   .     S
O9     C11     1.289   .     A
O10    C12     1.287   .     A
O10    Zn13    2.000   .     S
C11    C15     1.409   .     S
C12    C16     1.412   .     S
Zn13   N42     2.012   .     S
Zn14   N41     2.012   .     S
C15    C156    1.357   1_455 S
C15    N193    1.437   1_455 S
C16    C85     1.357   .     S
C16    N126    1.442   .     S
C17    N59     1.442   .     S
C17    C19     1.391   .     A
C17    C33     1.409   .     A
C18    C34     1.410   .     A
C18    C20     1.393   .     A
C18    N62     1.441   .     S
C19    C23     1.402   .     A
C19    H21     1.083   .     S
C20    C24     1.401   .     A
C20    H22     1.084   .     S
C23    C25     1.395   .     A
C24    C26     1.391   .     A
C25    H27     1.084   .     S
C25    C29     1.382   .     A
C26    H28     1.081   .     S
C26    C30     1.380   .     A
C29    H31     1.084   .     S
C29    C33     1.401   .     A
C30    H32     1.084   .     S
C30    C34     1.401   .     A
C33    C244    1.447   1_545 S
C34    C243    1.447   .     S
C35    C39     1.407   .     A
C35    C51     1.396   .     A
C35    H37     1.082   .     S
C36    C52     1.398   .     A
C36    H38     1.082   .     S
C36    C40     1.407   .     A
C39    N65     1.432   .     S
C39    N41     1.380   .     A
C40    N68     1.428   .     S
C40    N42     1.377   .     A
N41    C43     1.365   .     A
N42    C44     1.365   .     A
C43    H45     1.081   .     S
C43    C47     1.412   .     A
C44    C48     1.411   .     A
C44    H46     1.081   .     S
C47    H49     1.082   .     S
C47    C51     1.412   .     A
C48    C52     1.413   .     A
C48    H50     1.082   .     S
C51    C472    1.513   1_554 S
C52    C471    1.513   .     S
N53    O54     1.299   .     A
N53    O55     1.301   .     A
N53    C85     1.437   .     S
N56    O58     1.302   .     A
N56    O57     1.301   .     A
N56    C156    1.442   1_455 S
N59    O61     1.302   .     A
N59    O270    1.301   1_545 S
O60    N269    1.301   .     S
N62    O63     1.301   .     A
N62    O64     1.302   .     A
N65    O66     1.298   .     A
N65    O67     1.301   .     A
N68    O70     1.301   .     A
N68    O69     1.299   .     A
O71    C75     1.289   .     A
O71    Zn83    1.969   .     S
O72    C76     1.286   .     A
O72    Zn84    1.969   .     S
O73    Zn84    1.981   .     S
O73    C75     1.292   .     A
O74    C76     1.292   .     A
O74    Zn83    1.981   .     S
C75    C93     1.444   .     S
C76    C94     1.438   .     S
O77    C81     1.273   .     A
O77    Zn83    1.982   .     S
O78    C82     1.276   .     A
O78    Zn84    1.982   .     S
O79    Zn84    2.000   .     S
O79    C81     1.289   .     A
O80    C82     1.287   .     A
O80    Zn83    2.000   .     S
C81    C85     1.409   .     S
C82    C86     1.412   .     S
Zn83   N112    2.012   .     S
Zn84   N111    2.012   .     S
C86    C155    1.357   .     S
C86    N196    1.442   .     S
C87    N129    1.442   .     S
C87    C89     1.391   .     A
C87    C103    1.409   .     A
C88    C104    1.410   .     A
C88    C90     1.393   .     A
C88    N132    1.441   .     S
C89    C93     1.402   .     A
C89    H91     1.083   .     S
C90    C94     1.401   .     A
C90    H92     1.084   .     S
C93    C95     1.395   .     A
C94    C96     1.391   .     A
C95    H97     1.084   .     S
C95    C99     1.382   .     A
C96    H98     1.081   .     S
C96    C100    1.380   .     A
C99    H101    1.084   .     S
C99    C103    1.401   .     A
C100   H102    1.084   .     S
C100   C104    1.401   .     A
C103   C314    1.447   1_545 S
C104   C313    1.447   .     S
C105   C109    1.407   .     A
C105   C121    1.396   .     A
C105   H107    1.082   .     S
C106   C122    1.398   .     A
C106   H108    1.082   .     S
C106   C110    1.407   .     A
C109   N135    1.432   .     S
C109   N111    1.380   .     A
C110   N138    1.428   .     S
C110   N112    1.377   .     A
N111   C113    1.365   .     A
N112   C114    1.365   .     A
C113   H115    1.081   .     S
C113   C117    1.412   .     A
C114   C118    1.411   .     A
C114   H116    1.081   .     S
C117   H119    1.082   .     S
C117   C121    1.412   .     A
C118   C122    1.413   .     A
C118   H120    1.082   .     S
C121   C542    1.513   1_554 S
C122   C541    1.513   .     S
N123   O124    1.299   .     A
N123   O125    1.301   .     A
N123   C155    1.437   .     S
N126   O128    1.302   .     A
N126   O127    1.301   .     A
N129   O131    1.302   .     A
N129   O340    1.301   1_545 S
O130   N339    1.301   .     S
N132   O133    1.301   .     A
N132   O134    1.302   .     A
N135   O136    1.298   .     A
N135   O137    1.301   .     A
N138   O140    1.301   .     A
N138   O139    1.299   .     A
O141   C145    1.289   .     A
O141   Zn153   1.969   .     S
O142   C146    1.286   .     A
O142   Zn154   1.969   .     S
O143   Zn154   1.981   .     S
O143   C145    1.292   .     A
O144   C146    1.292   .     A
O144   Zn153   1.981   .     S
C145   C163    1.444   .     S
C146   C164    1.438   .     S
O147   C151    1.273   .     A
O147   Zn153   1.982   .     S
O148   C152    1.276   .     A
O148   Zn154   1.982   .     S
O149   Zn154   2.000   .     S
O149   C151    1.289   .     A
O150   C152    1.287   .     A
O150   Zn153   2.000   .     S
C151   C155    1.409   .     S
C152   C156    1.412   .     S
Zn153  N182    2.012   .     S
Zn154  N181    2.012   .     S
C156   C15     1.357   1_655 S
C156   N56     1.442   1_655 S
C157   N199    1.442   .     S
C157   C159    1.391   .     A
C157   C173    1.409   .     A
C158   C174    1.410   .     A
C158   C160    1.393   .     A
C158   N202    1.441   .     S
C159   C163    1.402   .     A
C159   H161    1.083   .     S
C160   C164    1.401   .     A
C160   H162    1.084   .     S
C163   C165    1.395   .     A
C164   C166    1.391   .     A
C165   H167    1.084   .     S
C165   C169    1.382   .     A
C166   H168    1.081   .     S
C166   C170    1.380   .     A
C169   H171    1.084   .     S
C169   C173    1.401   .     A
C170   H172    1.084   .     S
C170   C174    1.401   .     A
C173   C384    1.447   1_545 S
C174   C383    1.447   .     S
C175   C179    1.407   .     A
C175   C191    1.396   .     A
C175   H177    1.082   .     S
C176   C192    1.398   .     A
C176   H178    1.082   .     S
C176   C180    1.407   .     A
C179   N205    1.432   .     S
C179   N181    1.380   .     A
C180   N208    1.428   .     S
C180   N182    1.377   .     A
N181   C183    1.365   .     A
N182   C184    1.365   .     A
C183   H185    1.081   .     S
C183   C187    1.412   .     A
C184   C188    1.411   .     A
C184   H186    1.081   .     S
C187   H189    1.082   .     S
C187   C191    1.412   .     A
C188   C192    1.413   .     A
C188   H190    1.082   .     S
C191   C612    1.513   1_554 S
C192   C611    1.513   .     S
N193   O194    1.299   .     A
N193   O195    1.301   .     A
N193   C15     1.437   1_655 S
N196   O198    1.302   .     A
N196   O197    1.301   .     A
N199   O201    1.302   .     A
N199   O410    1.301   1_545 S
O200   N409    1.301   .     S
N202   O203    1.301   .     A
N202   O204    1.302   .     A
N205   O206    1.298   .     A
N205   O207    1.301   .     A
N208   O210    1.301   .     A
N208   O209    1.299   .     A
O211   C215    1.289   .     A
O211   Zn223   1.969   .     S
O212   C216    1.286   .     A
O212   Zn224   1.969   .     S
O213   Zn224   1.981   .     S
O213   C215    1.292   .     A
O214   C216    1.292   .     A
O214   Zn223   1.981   .     S
C215   C233    1.444   .     S
C216   C234    1.438   .     S
O217   C221    1.273   .     A
O217   Zn223   1.982   .     S
O218   C222    1.276   .     A
O218   Zn224   1.982   .     S
O219   Zn224   2.000   .     S
O219   C221    1.289   .     A
O220   C222    1.287   .     A
O220   Zn223   2.000   .     S
C221   C225    1.409   .     S
C222   C226    1.412   .     S
Zn223  N252    2.012   .     S
Zn224  N251    2.012   .     S
C225   C366    1.357   1_455 S
C225   N403    1.437   1_455 S
C226   C295    1.357   .     S
C226   N336    1.442   .     S
C227   N269    1.442   .     S
C227   C229    1.391   .     A
C227   C243    1.409   .     A
C228   C244    1.410   .     A
C228   C230    1.393   .     A
C228   N272    1.441   .     S
C229   C233    1.402   .     A
C229   H231    1.083   .     S
C230   C234    1.401   .     A
C230   H232    1.084   .     S
C233   C235    1.395   .     A
C234   C236    1.391   .     A
C235   H237    1.084   .     S
C235   C239    1.382   .     A
C236   H238    1.081   .     S
C236   C240    1.380   .     A
C239   H241    1.084   .     S
C239   C243    1.401   .     A
C240   H242    1.084   .     S
C240   C244    1.401   .     A
C244   C33     1.447   1_565 S
C245   C249    1.407   .     A
C245   C261    1.396   .     A
C245   H247    1.082   .     S
C246   C262    1.398   .     A
C246   H248    1.082   .     S
C246   C250    1.407   .     A
C249   N275    1.432   .     S
C249   N251    1.380   .     A
C250   N278    1.428   .     S
C250   N252    1.377   .     A
N251   C253    1.365   .     A
N252   C254    1.365   .     A
C253   H255    1.081   .     S
C253   C257    1.412   .     A
C254   C258    1.411   .     A
C254   H256    1.081   .     S
C257   H259    1.082   .     S
C257   C261    1.412   .     A
C258   C262    1.413   .     A
C258   H260    1.082   .     S
C261   C682    1.513   1_554 S
C262   C681    1.513   .     S
N263   O264    1.299   .     A
N263   O265    1.301   .     A
N263   C295    1.437   .     S
N266   O268    1.302   .     A
N266   O267    1.301   .     A
N266   C366    1.442   1_455 S
N269   O271    1.302   .     A
O270   N59     1.301   1_565 S
N272   O273    1.301   .     A
N272   O274    1.302   .     A
N275   O276    1.298   .     A
N275   O277    1.301   .     A
N278   O280    1.301   .     A
N278   O279    1.299   .     A
O281   C285    1.289   .     A
O281   Zn293   1.969   .     S
O282   C286    1.286   .     A
O282   Zn294   1.969   .     S
O283   Zn294   1.981   .     S
O283   C285    1.292   .     A
O284   C286    1.292   .     A
O284   Zn293   1.981   .     S
C285   C303    1.444   .     S
C286   C304    1.438   .     S
O287   C291    1.273   .     A
O287   Zn293   1.982   .     S
O288   C292    1.276   .     A
O288   Zn294   1.982   .     S
O289   Zn294   2.000   .     S
O289   C291    1.289   .     A
O290   C292    1.287   .     A
O290   Zn293   2.000   .     S
C291   C295    1.409   .     S
C292   C296    1.412   .     S
Zn293  N322    2.012   .     S
Zn294  N321    2.012   .     S
C296   C365    1.357   .     S
C296   N406    1.442   .     S
C297   N339    1.442   .     S
C297   C299    1.391   .     A
C297   C313    1.409   .     A
C298   C314    1.410   .     A
C298   C300    1.393   .     A
C298   N342    1.441   .     S
C299   C303    1.402   .     A
C299   H301    1.083   .     S
C300   C304    1.401   .     A
C300   H302    1.084   .     S
C303   C305    1.395   .     A
C304   C306    1.391   .     A
C305   H307    1.084   .     S
C305   C309    1.382   .     A
C306   H308    1.081   .     S
C306   C310    1.380   .     A
C309   H311    1.084   .     S
C309   C313    1.401   .     A
C310   H312    1.084   .     S
C310   C314    1.401   .     A
C314   C103    1.447   1_565 S
C315   C319    1.407   .     A
C315   C331    1.396   .     A
C315   H317    1.082   .     S
C316   C332    1.398   .     A
C316   H318    1.082   .     S
C316   C320    1.407   .     A
C319   N345    1.432   .     S
C319   N321    1.380   .     A
C320   N348    1.428   .     S
C320   N322    1.377   .     A
N321   C323    1.365   .     A
N322   C324    1.365   .     A
C323   H325    1.081   .     S
C323   C327    1.412   .     A
C324   C328    1.411   .     A
C324   H326    1.081   .     S
C327   H329    1.082   .     S
C327   C331    1.412   .     A
C328   C332    1.413   .     A
C328   H330    1.082   .     S
C331   C752    1.513   1_554 S
C332   C751    1.513   .     S
N333   O334    1.299   .     A
N333   O335    1.301   .     A
N333   C365    1.437   .     S
N336   O338    1.302   .     A
N336   O337    1.301   .     A
N339   O341    1.302   .     A
O340   N129    1.301   1_565 S
N342   O343    1.301   .     A
N342   O344    1.302   .     A
N345   O346    1.298   .     A
N345   O347    1.301   .     A
N348   O350    1.301   .     A
N348   O349    1.299   .     A
O351   C355    1.289   .     A
O351   Zn363   1.969   .     S
O352   C356    1.286   .     A
O352   Zn364   1.969   .     S
O353   Zn364   1.981   .     S
O353   C355    1.292   .     A
O354   C356    1.292   .     A
O354   Zn363   1.981   .     S
C355   C373    1.444   .     S
C356   C374    1.438   .     S
O357   C361    1.273   .     A
O357   Zn363   1.982   .     S
O358   C362    1.276   .     A
O358   Zn364   1.982   .     S
O359   Zn364   2.000   .     S
O359   C361    1.289   .     A
O360   C362    1.287   .     A
O360   Zn363   2.000   .     S
C361   C365    1.409   .     S
C362   C366    1.412   .     S
Zn363  N392    2.012   .     S
Zn364  N391    2.012   .     S
C366   C225    1.357   1_655 S
C366   N266    1.442   1_655 S
C367   N409    1.442   .     S
C367   C369    1.391   .     A
C367   C383    1.409   .     A
C368   C384    1.410   .     A
C368   C370    1.393   .     A
C368   N412    1.441   .     S
C369   C373    1.402   .     A
C369   H371    1.083   .     S
C370   C374    1.401   .     A
C370   H372    1.084   .     S
C373   C375    1.395   .     A
C374   C376    1.391   .     A
C375   H377    1.084   .     S
C375   C379    1.382   .     A
C376   H378    1.081   .     S
C376   C380    1.380   .     A
C379   H381    1.084   .     S
C379   C383    1.401   .     A
C380   H382    1.084   .     S
C380   C384    1.401   .     A
C384   C173    1.447   1_565 S
C385   C389    1.407   .     A
C385   C401    1.396   .     A
C385   H387    1.082   .     S
C386   C402    1.398   .     A
C386   H388    1.082   .     S
C386   C390    1.407   .     A
C389   N415    1.432   .     S
C389   N391    1.380   .     A
C390   N418    1.428   .     S
C390   N392    1.377   .     A
N391   C393    1.365   .     A
N392   C394    1.365   .     A
C393   H395    1.081   .     S
C393   C397    1.412   .     A
C394   C398    1.411   .     A
C394   H396    1.081   .     S
C397   H399    1.082   .     S
C397   C401    1.412   .     A
C398   C402    1.413   .     A
C398   H400    1.082   .     S
C401   C822    1.513   1_554 S
C402   C821    1.513   .     S
N403   O404    1.299   .     A
N403   O405    1.301   .     A
N403   C225    1.437   1_655 S
N406   O408    1.302   .     A
N406   O407    1.301   .     A
N409   O411    1.302   .     A
O410   N199    1.301   1_565 S
N412   O413    1.301   .     A
N412   O414    1.302   .     A
N415   O416    1.298   .     A
N415   O417    1.301   .     A
N418   O420    1.301   .     A
N418   O419    1.299   .     A
O421   C425    1.289   .     A
O421   Zn433   1.969   .     S
O422   C426    1.286   .     A
O422   Zn434   1.969   .     S
O423   Zn434   1.981   .     S
O423   C425    1.292   .     A
O424   C426    1.292   .     A
O424   Zn433   1.981   .     S
C425   C443    1.444   .     S
C426   C444    1.438   .     S
O427   C431    1.273   .     A
O427   Zn433   1.982   .     S
O428   C432    1.276   .     A
O428   Zn434   1.982   .     S
O429   Zn434   2.000   .     S
O429   C431    1.289   .     A
O430   C432    1.287   .     A
O430   Zn433   2.000   .     S
C431   C435    1.409   .     S
C432   C436    1.412   .     S
Zn433  N462    2.012   .     S
Zn434  N461    2.012   .     S
C435   C576    1.357   1_455 S
C435   N613    1.437   1_455 S
C436   C505    1.357   .     S
C436   N546    1.442   .     S
C437   N479    1.442   .     S
C437   C439    1.391   .     A
C437   C453    1.409   .     A
C438   C454    1.410   .     A
C438   C440    1.393   .     A
C438   N482    1.441   .     S
C439   C443    1.402   .     A
C439   H441    1.083   .     S
C440   C444    1.401   .     A
C440   H442    1.084   .     S
C443   C445    1.395   .     A
C444   C446    1.391   .     A
C445   H447    1.084   .     S
C445   C449    1.382   .     A
C446   H448    1.081   .     S
C446   C450    1.380   .     A
C449   H451    1.084   .     S
C449   C453    1.401   .     A
C450   H452    1.084   .     S
C450   C454    1.401   .     A
C453   C664    1.447   1_545 S
C454   C663    1.447   .     S
C455   C459    1.407   .     A
C455   C471    1.396   .     A
C455   H457    1.082   .     S
C456   C472    1.398   .     A
C456   H458    1.082   .     S
C456   C460    1.407   .     A
C459   N485    1.432   .     S
C459   N461    1.380   .     A
C460   N488    1.428   .     S
C460   N462    1.377   .     A
N461   C463    1.365   .     A
N462   C464    1.365   .     A
C463   H465    1.081   .     S
C463   C467    1.412   .     A
C464   C468    1.411   .     A
C464   H466    1.081   .     S
C467   H469    1.082   .     S
C467   C471    1.412   .     A
C468   C472    1.413   .     A
C468   H470    1.082   .     S
C472   C51     1.513   1_556 S
N473   O474    1.299   .     A
N473   O475    1.301   .     A
N473   C505    1.437   .     S
N476   O478    1.302   .     A
N476   O477    1.301   .     A
N476   C576    1.442   1_455 S
N479   O481    1.302   .     A
N479   O690    1.301   1_545 S
O480   N689    1.301   .     S
N482   O483    1.301   .     A
N482   O484    1.302   .     A
N485   O486    1.298   .     A
N485   O487    1.301   .     A
N488   O490    1.301   .     A
N488   O489    1.299   .     A
O491   C495    1.289   .     A
O491   Zn503   1.969   .     S
O492   C496    1.286   .     A
O492   Zn504   1.969   .     S
O493   Zn504   1.981   .     S
O493   C495    1.292   .     A
O494   C496    1.292   .     A
O494   Zn503   1.981   .     S
C495   C513    1.444   .     S
C496   C514    1.438   .     S
O497   C501    1.273   .     A
O497   Zn503   1.982   .     S
O498   C502    1.276   .     A
O498   Zn504   1.982   .     S
O499   Zn504   2.000   .     S
O499   C501    1.289   .     A
O500   C502    1.287   .     A
O500   Zn503   2.000   .     S
C501   C505    1.409   .     S
C502   C506    1.412   .     S
Zn503  N532    2.012   .     S
Zn504  N531    2.012   .     S
C506   C575    1.357   .     S
C506   N616    1.442   .     S
C507   N549    1.442   .     S
C507   C509    1.391   .     A
C507   C523    1.409   .     A
C508   C524    1.410   .     A
C508   C510    1.393   .     A
C508   N552    1.441   .     S
C509   C513    1.402   .     A
C509   H511    1.083   .     S
C510   C514    1.401   .     A
C510   H512    1.084   .     S
C513   C515    1.395   .     A
C514   C516    1.391   .     A
C515   H517    1.084   .     S
C515   C519    1.382   .     A
C516   H518    1.081   .     S
C516   C520    1.380   .     A
C519   H521    1.084   .     S
C519   C523    1.401   .     A
C520   H522    1.084   .     S
C520   C524    1.401   .     A
C523   C734    1.447   1_545 S
C524   C733    1.447   .     S
C525   C529    1.407   .     A
C525   C541    1.396   .     A
C525   H527    1.082   .     S
C526   C542    1.398   .     A
C526   H528    1.082   .     S
C526   C530    1.407   .     A
C529   N555    1.432   .     S
C529   N531    1.380   .     A
C530   N558    1.428   .     S
C530   N532    1.377   .     A
N531   C533    1.365   .     A
N532   C534    1.365   .     A
C533   H535    1.081   .     S
C533   C537    1.412   .     A
C534   C538    1.411   .     A
C534   H536    1.081   .     S
C537   H539    1.082   .     S
C537   C541    1.412   .     A
C538   C542    1.413   .     A
C538   H540    1.082   .     S
C542   C121    1.513   1_556 S
N543   O544    1.299   .     A
N543   O545    1.301   .     A
N543   C575    1.437   .     S
N546   O548    1.302   .     A
N546   O547    1.301   .     A
N549   O551    1.302   .     A
N549   O760    1.301   1_545 S
O550   N759    1.301   .     S
N552   O553    1.301   .     A
N552   O554    1.302   .     A
N555   O556    1.298   .     A
N555   O557    1.301   .     A
N558   O560    1.301   .     A
N558   O559    1.299   .     A
O561   C565    1.289   .     A
O561   Zn573   1.969   .     S
O562   C566    1.286   .     A
O562   Zn574   1.969   .     S
O563   Zn574   1.981   .     S
O563   C565    1.292   .     A
O564   C566    1.292   .     A
O564   Zn573   1.981   .     S
C565   C583    1.444   .     S
C566   C584    1.438   .     S
O567   C571    1.273   .     A
O567   Zn573   1.982   .     S
O568   C572    1.276   .     A
O568   Zn574   1.982   .     S
O569   Zn574   2.000   .     S
O569   C571    1.289   .     A
O570   C572    1.287   .     A
O570   Zn573   2.000   .     S
C571   C575    1.409   .     S
C572   C576    1.412   .     S
Zn573  N602    2.012   .     S
Zn574  N601    2.012   .     S
C576   C435    1.357   1_655 S
C576   N476    1.442   1_655 S
C577   N619    1.442   .     S
C577   C579    1.391   .     A
C577   C593    1.409   .     A
C578   C594    1.410   .     A
C578   C580    1.393   .     A
C578   N622    1.441   .     S
C579   C583    1.402   .     A
C579   H581    1.083   .     S
C580   C584    1.401   .     A
C580   H582    1.084   .     S
C583   C585    1.395   .     A
C584   C586    1.391   .     A
C585   H587    1.084   .     S
C585   C589    1.382   .     A
C586   H588    1.081   .     S
C586   C590    1.380   .     A
C589   H591    1.084   .     S
C589   C593    1.401   .     A
C590   H592    1.084   .     S
C590   C594    1.401   .     A
C593   C804    1.447   1_545 S
C594   C803    1.447   .     S
C595   C599    1.407   .     A
C595   C611    1.396   .     A
C595   H597    1.082   .     S
C596   C612    1.398   .     A
C596   H598    1.082   .     S
C596   C600    1.407   .     A
C599   N625    1.432   .     S
C599   N601    1.380   .     A
C600   N628    1.428   .     S
C600   N602    1.377   .     A
N601   C603    1.365   .     A
N602   C604    1.365   .     A
C603   H605    1.081   .     S
C603   C607    1.412   .     A
C604   C608    1.411   .     A
C604   H606    1.081   .     S
C607   H609    1.082   .     S
C607   C611    1.412   .     A
C608   C612    1.413   .     A
C608   H610    1.082   .     S
C612   C191    1.513   1_556 S
N613   O614    1.299   .     A
N613   O615    1.301   .     A
N613   C435    1.437   1_655 S
N616   O618    1.302   .     A
N616   O617    1.301   .     A
N619   O621    1.302   .     A
N619   O830    1.301   1_545 S
O620   N829    1.301   .     S
N622   O623    1.301   .     A
N622   O624    1.302   .     A
N625   O626    1.298   .     A
N625   O627    1.301   .     A
N628   O630    1.301   .     A
N628   O629    1.299   .     A
O631   C635    1.289   .     A
O631   Zn643   1.969   .     S
O632   C636    1.286   .     A
O632   Zn644   1.969   .     S
O633   Zn644   1.981   .     S
O633   C635    1.292   .     A
O634   C636    1.292   .     A
O634   Zn643   1.981   .     S
C635   C653    1.444   .     S
C636   C654    1.438   .     S
O637   C641    1.273   .     A
O637   Zn643   1.982   .     S
O638   C642    1.276   .     A
O638   Zn644   1.982   .     S
O639   Zn644   2.000   .     S
O639   C641    1.289   .     A
O640   C642    1.287   .     A
O640   Zn643   2.000   .     S
C641   C645    1.409   .     S
C642   C646    1.412   .     S
Zn643  N672    2.012   .     S
Zn644  N671    2.012   .     S
C645   C786    1.357   1_455 S
C645   N823    1.437   1_455 S
C646   C715    1.357   .     S
C646   N756    1.442   .     S
C647   N689    1.442   .     S
C647   C649    1.391   .     A
C647   C663    1.409   .     A
C648   C664    1.410   .     A
C648   C650    1.393   .     A
C648   N692    1.441   .     S
C649   C653    1.402   .     A
C649   H651    1.083   .     S
C650   C654    1.401   .     A
C650   H652    1.084   .     S
C653   C655    1.395   .     A
C654   C656    1.391   .     A
C655   H657    1.084   .     S
C655   C659    1.382   .     A
C656   H658    1.081   .     S
C656   C660    1.380   .     A
C659   H661    1.084   .     S
C659   C663    1.401   .     A
C660   H662    1.084   .     S
C660   C664    1.401   .     A
C664   C453    1.447   1_565 S
C665   C669    1.407   .     A
C665   C681    1.396   .     A
C665   H667    1.082   .     S
C666   C682    1.398   .     A
C666   H668    1.082   .     S
C666   C670    1.407   .     A
C669   N695    1.432   .     S
C669   N671    1.380   .     A
C670   N698    1.428   .     S
C670   N672    1.377   .     A
N671   C673    1.365   .     A
N672   C674    1.365   .     A
C673   H675    1.081   .     S
C673   C677    1.412   .     A
C674   C678    1.411   .     A
C674   H676    1.081   .     S
C677   H679    1.082   .     S
C677   C681    1.412   .     A
C678   C682    1.413   .     A
C678   H680    1.082   .     S
C682   C261    1.513   1_556 S
N683   O684    1.299   .     A
N683   O685    1.301   .     A
N683   C715    1.437   .     S
N686   O688    1.302   .     A
N686   O687    1.301   .     A
N686   C786    1.442   1_455 S
N689   O691    1.302   .     A
O690   N479    1.301   1_565 S
N692   O693    1.301   .     A
N692   O694    1.302   .     A
N695   O696    1.298   .     A
N695   O697    1.301   .     A
N698   O700    1.301   .     A
N698   O699    1.299   .     A
O701   C705    1.289   .     A
O701   Zn713   1.969   .     S
O702   C706    1.286   .     A
O702   Zn714   1.969   .     S
O703   Zn714   1.981   .     S
O703   C705    1.292   .     A
O704   C706    1.292   .     A
O704   Zn713   1.981   .     S
C705   C723    1.444   .     S
C706   C724    1.438   .     S
O707   C711    1.273   .     A
O707   Zn713   1.982   .     S
O708   C712    1.276   .     A
O708   Zn714   1.982   .     S
O709   Zn714   2.000   .     S
O709   C711    1.289   .     A
O710   C712    1.287   .     A
O710   Zn713   2.000   .     S
C711   C715    1.409   .     S
C712   C716    1.412   .     S
Zn713  N742    2.012   .     S
Zn714  N741    2.012   .     S
C716   C785    1.357   .     S
C716   N826    1.442   .     S
C717   N759    1.442   .     S
C717   C719    1.391   .     A
C717   C733    1.409   .     A
C718   C734    1.410   .     A
C718   C720    1.393   .     A
C718   N762    1.441   .     S
C719   C723    1.402   .     A
C719   H721    1.083   .     S
C720   C724    1.401   .     A
C720   H722    1.084   .     S
C723   C725    1.395   .     A
C724   C726    1.391   .     A
C725   H727    1.084   .     S
C725   C729    1.382   .     A
C726   H728    1.081   .     S
C726   C730    1.380   .     A
C729   H731    1.084   .     S
C729   C733    1.401   .     A
C730   H732    1.084   .     S
C730   C734    1.401   .     A
C734   C523    1.447   1_565 S
C735   C739    1.407   .     A
C735   C751    1.396   .     A
C735   H737    1.082   .     S
C736   C752    1.398   .     A
C736   H738    1.082   .     S
C736   C740    1.407   .     A
C739   N765    1.432   .     S
C739   N741    1.380   .     A
C740   N768    1.428   .     S
C740   N742    1.377   .     A
N741   C743    1.365   .     A
N742   C744    1.365   .     A
C743   H745    1.081   .     S
C743   C747    1.412   .     A
C744   C748    1.411   .     A
C744   H746    1.081   .     S
C747   H749    1.082   .     S
C747   C751    1.412   .     A
C748   C752    1.413   .     A
C748   H750    1.082   .     S
C752   C331    1.513   1_556 S
N753   O754    1.299   .     A
N753   O755    1.301   .     A
N753   C785    1.437   .     S
N756   O758    1.302   .     A
N756   O757    1.301   .     A
N759   O761    1.302   .     A
O760   N549    1.301   1_565 S
N762   O763    1.301   .     A
N762   O764    1.302   .     A
N765   O766    1.298   .     A
N765   O767    1.301   .     A
N768   O770    1.301   .     A
N768   O769    1.299   .     A
O771   C775    1.289   .     A
O771   Zn783   1.969   .     S
O772   C776    1.286   .     A
O772   Zn784   1.969   .     S
O773   Zn784   1.981   .     S
O773   C775    1.292   .     A
O774   C776    1.292   .     A
O774   Zn783   1.981   .     S
C775   C793    1.444   .     S
C776   C794    1.438   .     S
O777   C781    1.273   .     A
O777   Zn783   1.982   .     S
O778   C782    1.276   .     A
O778   Zn784   1.982   .     S
O779   Zn784   2.000   .     S
O779   C781    1.289   .     A
O780   C782    1.287   .     A
O780   Zn783   2.000   .     S
C781   C785    1.409   .     S
C782   C786    1.412   .     S
Zn783  N812    2.012   .     S
Zn784  N811    2.012   .     S
C786   C645    1.357   1_655 S
C786   N686    1.442   1_655 S
C787   N829    1.442   .     S
C787   C789    1.391   .     A
C787   C803    1.409   .     A
C788   C804    1.410   .     A
C788   C790    1.393   .     A
C788   N832    1.441   .     S
C789   C793    1.402   .     A
C789   H791    1.083   .     S
C790   C794    1.401   .     A
C790   H792    1.084   .     S
C793   C795    1.395   .     A
C794   C796    1.391   .     A
C795   H797    1.084   .     S
C795   C799    1.382   .     A
C796   H798    1.081   .     S
C796   C800    1.380   .     A
C799   H801    1.084   .     S
C799   C803    1.401   .     A
C800   H802    1.084   .     S
C800   C804    1.401   .     A
C804   C593    1.447   1_565 S
C805   C809    1.407   .     A
C805   C821    1.396   .     A
C805   H807    1.082   .     S
C806   C822    1.398   .     A
C806   H808    1.082   .     S
C806   C810    1.407   .     A
C809   N835    1.432   .     S
C809   N811    1.380   .     A
C810   N838    1.428   .     S
C810   N812    1.377   .     A
N811   C813    1.365   .     A
N812   C814    1.365   .     A
C813   H815    1.081   .     S
C813   C817    1.412   .     A
C814   C818    1.411   .     A
C814   H816    1.081   .     S
C817   H819    1.082   .     S
C817   C821    1.412   .     A
C818   C822    1.413   .     A
C818   H820    1.082   .     S
C822   C401    1.513   1_556 S
N823   O824    1.299   .     A
N823   O825    1.301   .     A
N823   C645    1.437   1_655 S
N826   O828    1.302   .     A
N826   O827    1.301   .     A
N829   O831    1.302   .     A
O830   N619    1.301   1_565 S
N832   O833    1.301   .     A
N832   O834    1.302   .     A
N835   O836    1.298   .     A
N835   O837    1.301   .     A
N838   O840    1.301   .     A
N838   O839    1.299   .     A
