data_str_m3_o2_o5_pcu_sym.80
_audit_creation_date              2020-01-03
_audit_creation_method            'Materials Studio'
_symmetry_space_group_name_H-M    'P1'
_symmetry_Int_Tables_number       1
_symmetry_cell_setting            triclinic
loop_
_symmetry_equiv_pos_as_xyz
  x,y,z
_cell_length_a                    30.0970
_cell_length_b                    28.4511
_cell_length_c                    26.6728
_cell_angle_alpha                 90.0797
_cell_angle_beta                  90.4675
_cell_angle_gamma                 89.8000
loop_
_atom_site_label
_atom_site_type_symbol
_atom_site_fract_x
_atom_site_fract_y
_atom_site_fract_z
_atom_site_U_iso_or_equiv
_atom_site_adp_type
_atom_site_occupancy
C1     C     0.16359   0.25004   0.16855   0.00000  Uiso   1.00
C2     C     0.22088   0.44727   0.13575   0.00000  Uiso   1.00
C3     C     0.25000   0.24999   0.07290   0.00000  Uiso   1.00
C4     C     0.25011   0.25003   0.26044   0.00000  Uiso   1.00
C5     C     0.25040   0.02655   0.16631   0.00000  Uiso   1.00
C6     C     0.25060   0.47313   0.16610   0.00000  Uiso   1.00
C7     C     0.25008   0.25001   0.02181   0.00000  Uiso   1.00
C8     C     0.25012   0.25008   0.31153   0.00000  Uiso   1.00
C9     C     0.04468   0.29215   0.17266   0.00000  Uiso   1.00
C10    C     0.45159   0.22764   0.20928   0.00000  Uiso   1.00
C11    C     0.45276   0.27150   0.13097   0.00000  Uiso   1.00
C12    C     0.33574   0.24993   0.16684   0.00000  Uiso   1.00
C13    C     0.04528   0.20712   0.17456   0.00000  Uiso   1.00
C14    C     0.09061   0.29302   0.17378   0.00000  Uiso   1.00
C15    C     0.40565   0.22787   0.20840   0.00000  Uiso   1.00
C16    C     0.40682   0.27171   0.12928   0.00000  Uiso   1.00
C17    C     0.09123   0.20669   0.17515   0.00000  Uiso   1.00
C18    C     0.11488   0.24996   0.17253   0.00000  Uiso   1.00
C19    C     0.38330   0.24976   0.16810   0.00000  Uiso   1.00
C20    C     0.02246   0.24953   0.17226   0.00000  Uiso   1.00
C21    C     0.47478   0.24942   0.17074   0.00000  Uiso   1.00
C22    C     0.17743   0.10807   0.06417   0.00000  Uiso   1.00
C23    C     0.23188   0.10248   0.12673   0.00000  Uiso   1.00
C24    C     0.29834   0.38078   0.27845   0.00000  Uiso   1.00
C25    C     0.26432   0.11736   0.29146   0.00000  Uiso   1.00
C26    C     0.20419   0.38177   0.05315   0.00000  Uiso   1.00
C27    C     0.11067   0.33891   0.17872   0.00000  Uiso   1.00
C28    C     0.38227   0.20727   0.25008   0.00000  Uiso   1.00
C29    C     0.38457   0.29346   0.08694   0.00000  Uiso   1.00
C30    C     0.11215   0.16107   0.18042   0.00000  Uiso   1.00
C31    C     0.27844   0.39739   0.19773   0.00000  Uiso   1.00
C32    C     0.26666   0.10212   0.20712   0.00000  Uiso   1.00
C33    C     0.22245   0.39758   0.13465   0.00000  Uiso   1.00
C34    C     0.23369   0.05253   0.12543   0.00000  Uiso   1.00
C35    C     0.28033   0.44704   0.19636   0.00000  Uiso   1.00
C36    C     0.26699   0.05238   0.20729   0.00000  Uiso   1.00
H37    H     0.02590   0.32482   0.17296   0.00000  Uiso   1.00
H38    H     0.15467   0.09201   0.09197   0.00000  Uiso   1.00
H39    H     0.18762   0.08185   0.03556   0.00000  Uiso   1.00
H40    H     0.26227   0.37723   0.28672   0.00000  Uiso   1.00
H41    H     0.31049   0.41601   0.29004   0.00000  Uiso   1.00
H42    H     0.31624   0.35431   0.30155   0.00000  Uiso   1.00
H43    H     0.22748   0.11928   0.28722   0.00000  Uiso   1.00
H44    H     0.27413   0.14440   0.31939   0.00000  Uiso   1.00
H45    H     0.27461   0.08279   0.30702   0.00000  Uiso   1.00
H46    H     0.18728   0.35523   0.02926   0.00000  Uiso   1.00
H47    H     0.24049   0.37895   0.04568   0.00000  Uiso   1.00
H48    H     0.46940   0.21132   0.24025   0.00000  Uiso   1.00
H49    H     0.19142   0.41690   0.04177   0.00000  Uiso   1.00
H50    H     0.47150   0.28798   0.10122   0.00000  Uiso   1.00
H51    H     0.02701   0.17430   0.17562   0.00000  Uiso   1.00
H52    H     0.22305   0.03422   0.09200   0.00000  Uiso   1.00
H53    H     0.30551   0.46455   0.21853   0.00000  Uiso   1.00
H54    H     0.28054   0.03435   0.23956   0.00000  Uiso   1.00
H55    H     0.19603   0.46504   0.11322   0.00000  Uiso   1.00
H56    H     0.15847   0.13602   0.04435   0.00000  Uiso   1.00
N57    N     0.25000   0.12624   0.16667   0.00000  Uiso   1.00
N58    N     0.25000   0.37377   0.16667   0.00000  Uiso   1.00
N59    N     0.12619   0.37585   0.18315   0.00000  Uiso   1.00
N60    N     0.36362   0.19093   0.28355   0.00000  Uiso   1.00
N61    N     0.36671   0.31080   0.05308   0.00000  Uiso   1.00
N62    N     0.12866   0.12451   0.18497   0.00000  Uiso   1.00
O63    O     0.18453   0.28974   0.16667   0.00000  Uiso   1.00
O64    O     0.30759   0.37193   0.22751   0.00000  Uiso   1.00
O65    O     0.28634   0.12689   0.24600   0.00000  Uiso   1.00
O66    O     0.19422   0.37225   0.10373   0.00000  Uiso   1.00
O67    O     0.31547   0.21026   0.16666   0.00000  Uiso   1.00
O68    O     0.31547   0.28974   0.16666   0.00000  Uiso   1.00
O69    O     0.18453   0.21026   0.16667   0.00000  Uiso   1.00
O70    O     0.25000   0.28973   0.09511   0.00000  Uiso   1.00
O71    O     0.25000   0.21027   0.23822   0.00000  Uiso   1.00
O72    O     0.25000   0.28973   0.23822   0.00000  Uiso   1.00
O73    O     0.25000   0.21027   0.09511   0.00000  Uiso   1.00
O74    O     0.21521   0.12869   0.08682   0.00000  Uiso   1.00
Zn75   Zn    0.25000   0.30307   0.16667   0.00000  Uiso   1.00
Zn76   Zn    0.25000   0.19693   0.16667   0.00000  Uiso   1.00
C77    C     0.66359   0.25004   0.16855   0.00000  Uiso   1.00
C78    C     0.72088   0.44727   0.13575   0.00000  Uiso   1.00
C79    C     0.75000   0.24999   0.07290   0.00000  Uiso   1.00
C80    C     0.75011   0.25003   0.26044   0.00000  Uiso   1.00
C81    C     0.75040   0.02655   0.16631   0.00000  Uiso   1.00
C82    C     0.75060   0.47313   0.16610   0.00000  Uiso   1.00
C83    C     0.75008   0.25001   0.02181   0.00000  Uiso   1.00
C84    C     0.75012   0.25008   0.31153   0.00000  Uiso   1.00
C85    C     0.54468   0.29215   0.17266   0.00000  Uiso   1.00
C86    C     0.95159   0.22764   0.20928   0.00000  Uiso   1.00
C87    C     0.95276   0.27150   0.13097   0.00000  Uiso   1.00
C88    C     0.83574   0.24993   0.16684   0.00000  Uiso   1.00
C89    C     0.54528   0.20712   0.17456   0.00000  Uiso   1.00
C90    C     0.59061   0.29302   0.17378   0.00000  Uiso   1.00
C91    C     0.90565   0.22787   0.20840   0.00000  Uiso   1.00
C92    C     0.90682   0.27171   0.12928   0.00000  Uiso   1.00
C93    C     0.59123   0.20669   0.17515   0.00000  Uiso   1.00
C94    C     0.61488   0.24996   0.17253   0.00000  Uiso   1.00
C95    C     0.88330   0.24976   0.16810   0.00000  Uiso   1.00
C96    C     0.52246   0.24953   0.17226   0.00000  Uiso   1.00
C97    C     0.97478   0.24942   0.17074   0.00000  Uiso   1.00
C98    C     0.67743   0.10807   0.06417   0.00000  Uiso   1.00
C99    C     0.73188   0.10248   0.12673   0.00000  Uiso   1.00
C100   C     0.79834   0.38078   0.27845   0.00000  Uiso   1.00
C101   C     0.76432   0.11736   0.29146   0.00000  Uiso   1.00
C102   C     0.70419   0.38177   0.05315   0.00000  Uiso   1.00
C103   C     0.61067   0.33891   0.17872   0.00000  Uiso   1.00
C104   C     0.88227   0.20727   0.25008   0.00000  Uiso   1.00
C105   C     0.88457   0.29346   0.08694   0.00000  Uiso   1.00
C106   C     0.61215   0.16107   0.18042   0.00000  Uiso   1.00
C107   C     0.77844   0.39739   0.19773   0.00000  Uiso   1.00
C108   C     0.76666   0.10212   0.20712   0.00000  Uiso   1.00
C109   C     0.72245   0.39758   0.13465   0.00000  Uiso   1.00
C110   C     0.73369   0.05253   0.12543   0.00000  Uiso   1.00
C111   C     0.78033   0.44704   0.19636   0.00000  Uiso   1.00
C112   C     0.76699   0.05238   0.20729   0.00000  Uiso   1.00
H113   H     0.52590   0.32482   0.17296   0.00000  Uiso   1.00
H114   H     0.65467   0.09201   0.09197   0.00000  Uiso   1.00
H115   H     0.68762   0.08185   0.03556   0.00000  Uiso   1.00
H116   H     0.76227   0.37723   0.28672   0.00000  Uiso   1.00
H117   H     0.81049   0.41601   0.29004   0.00000  Uiso   1.00
H118   H     0.81624   0.35431   0.30155   0.00000  Uiso   1.00
H119   H     0.72748   0.11928   0.28722   0.00000  Uiso   1.00
H120   H     0.77413   0.14440   0.31939   0.00000  Uiso   1.00
H121   H     0.77461   0.08279   0.30702   0.00000  Uiso   1.00
H122   H     0.68728   0.35523   0.02926   0.00000  Uiso   1.00
H123   H     0.74049   0.37895   0.04568   0.00000  Uiso   1.00
H124   H     0.96940   0.21132   0.24025   0.00000  Uiso   1.00
H125   H     0.69142   0.41690   0.04177   0.00000  Uiso   1.00
H126   H     0.97150   0.28798   0.10122   0.00000  Uiso   1.00
H127   H     0.52701   0.17430   0.17562   0.00000  Uiso   1.00
H128   H     0.72305   0.03422   0.09200   0.00000  Uiso   1.00
H129   H     0.80551   0.46455   0.21853   0.00000  Uiso   1.00
H130   H     0.78054   0.03435   0.23956   0.00000  Uiso   1.00
H131   H     0.69603   0.46504   0.11322   0.00000  Uiso   1.00
H132   H     0.65847   0.13602   0.04435   0.00000  Uiso   1.00
N133   N     0.75000   0.12624   0.16667   0.00000  Uiso   1.00
N134   N     0.75000   0.37377   0.16667   0.00000  Uiso   1.00
N135   N     0.62619   0.37585   0.18315   0.00000  Uiso   1.00
N136   N     0.86362   0.19093   0.28355   0.00000  Uiso   1.00
N137   N     0.86671   0.31080   0.05308   0.00000  Uiso   1.00
N138   N     0.62866   0.12451   0.18497   0.00000  Uiso   1.00
O139   O     0.68453   0.28974   0.16667   0.00000  Uiso   1.00
O140   O     0.80759   0.37193   0.22751   0.00000  Uiso   1.00
O141   O     0.78634   0.12689   0.24600   0.00000  Uiso   1.00
O142   O     0.69422   0.37225   0.10373   0.00000  Uiso   1.00
O143   O     0.81547   0.21026   0.16666   0.00000  Uiso   1.00
O144   O     0.81547   0.28974   0.16666   0.00000  Uiso   1.00
O145   O     0.68453   0.21026   0.16667   0.00000  Uiso   1.00
O146   O     0.75000   0.28973   0.09511   0.00000  Uiso   1.00
O147   O     0.75000   0.21027   0.23822   0.00000  Uiso   1.00
O148   O     0.75000   0.28973   0.23822   0.00000  Uiso   1.00
O149   O     0.75000   0.21027   0.09511   0.00000  Uiso   1.00
O150   O     0.71521   0.12869   0.08682   0.00000  Uiso   1.00
Zn151  Zn    0.75000   0.30307   0.16667   0.00000  Uiso   1.00
Zn152  Zn    0.75000   0.19693   0.16667   0.00000  Uiso   1.00
C153   C     0.16359   0.75004   0.16855   0.00000  Uiso   1.00
C154   C     0.22088   0.94727   0.13575   0.00000  Uiso   1.00
C155   C     0.25000   0.74999   0.07290   0.00000  Uiso   1.00
C156   C     0.25011   0.75003   0.26044   0.00000  Uiso   1.00
C157   C     0.25040   0.52655   0.16631   0.00000  Uiso   1.00
C158   C     0.25060   0.97313   0.16610   0.00000  Uiso   1.00
C159   C     0.25008   0.75001   0.02181   0.00000  Uiso   1.00
C160   C     0.25012   0.75008   0.31153   0.00000  Uiso   1.00
C161   C     0.04468   0.79215   0.17266   0.00000  Uiso   1.00
C162   C     0.45159   0.72764   0.20928   0.00000  Uiso   1.00
C163   C     0.45276   0.77150   0.13097   0.00000  Uiso   1.00
C164   C     0.33574   0.74993   0.16684   0.00000  Uiso   1.00
C165   C     0.04528   0.70712   0.17456   0.00000  Uiso   1.00
C166   C     0.09061   0.79302   0.17378   0.00000  Uiso   1.00
C167   C     0.40565   0.72787   0.20840   0.00000  Uiso   1.00
C168   C     0.40682   0.77171   0.12928   0.00000  Uiso   1.00
C169   C     0.09123   0.70669   0.17515   0.00000  Uiso   1.00
C170   C     0.11488   0.74996   0.17253   0.00000  Uiso   1.00
C171   C     0.38330   0.74976   0.16810   0.00000  Uiso   1.00
C172   C     0.02246   0.74953   0.17226   0.00000  Uiso   1.00
C173   C     0.47478   0.74942   0.17074   0.00000  Uiso   1.00
C174   C     0.17743   0.60807   0.06417   0.00000  Uiso   1.00
C175   C     0.23188   0.60248   0.12673   0.00000  Uiso   1.00
C176   C     0.29834   0.88078   0.27845   0.00000  Uiso   1.00
C177   C     0.26432   0.61736   0.29146   0.00000  Uiso   1.00
C178   C     0.20419   0.88177   0.05315   0.00000  Uiso   1.00
C179   C     0.11067   0.83891   0.17872   0.00000  Uiso   1.00
C180   C     0.38227   0.70727   0.25008   0.00000  Uiso   1.00
C181   C     0.38457   0.79346   0.08694   0.00000  Uiso   1.00
C182   C     0.11215   0.66107   0.18042   0.00000  Uiso   1.00
C183   C     0.27844   0.89739   0.19773   0.00000  Uiso   1.00
C184   C     0.26666   0.60212   0.20712   0.00000  Uiso   1.00
C185   C     0.22245   0.89758   0.13465   0.00000  Uiso   1.00
C186   C     0.23369   0.55253   0.12543   0.00000  Uiso   1.00
C187   C     0.28033   0.94704   0.19636   0.00000  Uiso   1.00
C188   C     0.26699   0.55238   0.20729   0.00000  Uiso   1.00
H189   H     0.02590   0.82482   0.17296   0.00000  Uiso   1.00
H190   H     0.15467   0.59201   0.09197   0.00000  Uiso   1.00
H191   H     0.18762   0.58185   0.03556   0.00000  Uiso   1.00
H192   H     0.26227   0.87723   0.28672   0.00000  Uiso   1.00
H193   H     0.31049   0.91601   0.29004   0.00000  Uiso   1.00
H194   H     0.31624   0.85431   0.30155   0.00000  Uiso   1.00
H195   H     0.22748   0.61928   0.28722   0.00000  Uiso   1.00
H196   H     0.27413   0.64440   0.31939   0.00000  Uiso   1.00
H197   H     0.27461   0.58279   0.30702   0.00000  Uiso   1.00
H198   H     0.18728   0.85523   0.02926   0.00000  Uiso   1.00
H199   H     0.24049   0.87895   0.04568   0.00000  Uiso   1.00
H200   H     0.46940   0.71132   0.24025   0.00000  Uiso   1.00
H201   H     0.19142   0.91690   0.04177   0.00000  Uiso   1.00
H202   H     0.47150   0.78798   0.10122   0.00000  Uiso   1.00
H203   H     0.02701   0.67430   0.17562   0.00000  Uiso   1.00
H204   H     0.22305   0.53422   0.09200   0.00000  Uiso   1.00
H205   H     0.30551   0.96455   0.21853   0.00000  Uiso   1.00
H206   H     0.28054   0.53435   0.23956   0.00000  Uiso   1.00
H207   H     0.19603   0.96504   0.11322   0.00000  Uiso   1.00
H208   H     0.15847   0.63602   0.04435   0.00000  Uiso   1.00
N209   N     0.25000   0.62624   0.16667   0.00000  Uiso   1.00
N210   N     0.25000   0.87377   0.16667   0.00000  Uiso   1.00
N211   N     0.12619   0.87585   0.18315   0.00000  Uiso   1.00
N212   N     0.36362   0.69093   0.28355   0.00000  Uiso   1.00
N213   N     0.36671   0.81080   0.05308   0.00000  Uiso   1.00
N214   N     0.12866   0.62451   0.18497   0.00000  Uiso   1.00
O215   O     0.18453   0.78974   0.16667   0.00000  Uiso   1.00
O216   O     0.30759   0.87193   0.22751   0.00000  Uiso   1.00
O217   O     0.28634   0.62689   0.24600   0.00000  Uiso   1.00
O218   O     0.19422   0.87225   0.10373   0.00000  Uiso   1.00
O219   O     0.31547   0.71026   0.16666   0.00000  Uiso   1.00
O220   O     0.31547   0.78974   0.16666   0.00000  Uiso   1.00
O221   O     0.18453   0.71026   0.16667   0.00000  Uiso   1.00
O222   O     0.25000   0.78973   0.09511   0.00000  Uiso   1.00
O223   O     0.25000   0.71027   0.23822   0.00000  Uiso   1.00
O224   O     0.25000   0.78973   0.23822   0.00000  Uiso   1.00
O225   O     0.25000   0.71027   0.09511   0.00000  Uiso   1.00
O226   O     0.21521   0.62869   0.08682   0.00000  Uiso   1.00
Zn227  Zn    0.25000   0.80307   0.16667   0.00000  Uiso   1.00
Zn228  Zn    0.25000   0.69693   0.16667   0.00000  Uiso   1.00
C229   C     0.66359   0.75004   0.16855   0.00000  Uiso   1.00
C230   C     0.72088   0.94727   0.13575   0.00000  Uiso   1.00
C231   C     0.75000   0.74999   0.07290   0.00000  Uiso   1.00
C232   C     0.75011   0.75003   0.26044   0.00000  Uiso   1.00
C233   C     0.75040   0.52655   0.16631   0.00000  Uiso   1.00
C234   C     0.75060   0.97313   0.16610   0.00000  Uiso   1.00
C235   C     0.75008   0.75001   0.02181   0.00000  Uiso   1.00
C236   C     0.75012   0.75008   0.31153   0.00000  Uiso   1.00
C237   C     0.54468   0.79215   0.17266   0.00000  Uiso   1.00
C238   C     0.95159   0.72764   0.20928   0.00000  Uiso   1.00
C239   C     0.95276   0.77150   0.13097   0.00000  Uiso   1.00
C240   C     0.83574   0.74993   0.16684   0.00000  Uiso   1.00
C241   C     0.54528   0.70712   0.17456   0.00000  Uiso   1.00
C242   C     0.59061   0.79302   0.17378   0.00000  Uiso   1.00
C243   C     0.90565   0.72787   0.20840   0.00000  Uiso   1.00
C244   C     0.90682   0.77171   0.12928   0.00000  Uiso   1.00
C245   C     0.59123   0.70669   0.17515   0.00000  Uiso   1.00
C246   C     0.61488   0.74996   0.17253   0.00000  Uiso   1.00
C247   C     0.88330   0.74976   0.16810   0.00000  Uiso   1.00
C248   C     0.52246   0.74953   0.17226   0.00000  Uiso   1.00
C249   C     0.97478   0.74942   0.17074   0.00000  Uiso   1.00
C250   C     0.67743   0.60807   0.06417   0.00000  Uiso   1.00
C251   C     0.73188   0.60248   0.12673   0.00000  Uiso   1.00
C252   C     0.79834   0.88078   0.27845   0.00000  Uiso   1.00
C253   C     0.76432   0.61736   0.29146   0.00000  Uiso   1.00
C254   C     0.70419   0.88177   0.05315   0.00000  Uiso   1.00
C255   C     0.61067   0.83891   0.17872   0.00000  Uiso   1.00
C256   C     0.88227   0.70727   0.25008   0.00000  Uiso   1.00
C257   C     0.88457   0.79346   0.08694   0.00000  Uiso   1.00
C258   C     0.61215   0.66107   0.18042   0.00000  Uiso   1.00
C259   C     0.77844   0.89739   0.19773   0.00000  Uiso   1.00
C260   C     0.76666   0.60212   0.20712   0.00000  Uiso   1.00
C261   C     0.72245   0.89758   0.13465   0.00000  Uiso   1.00
C262   C     0.73369   0.55253   0.12543   0.00000  Uiso   1.00
C263   C     0.78033   0.94704   0.19636   0.00000  Uiso   1.00
C264   C     0.76699   0.55238   0.20729   0.00000  Uiso   1.00
H265   H     0.52590   0.82482   0.17296   0.00000  Uiso   1.00
H266   H     0.65467   0.59201   0.09197   0.00000  Uiso   1.00
H267   H     0.68762   0.58185   0.03556   0.00000  Uiso   1.00
H268   H     0.76227   0.87723   0.28672   0.00000  Uiso   1.00
H269   H     0.81049   0.91601   0.29004   0.00000  Uiso   1.00
H270   H     0.81624   0.85431   0.30155   0.00000  Uiso   1.00
H271   H     0.72748   0.61928   0.28722   0.00000  Uiso   1.00
H272   H     0.77413   0.64440   0.31939   0.00000  Uiso   1.00
H273   H     0.77461   0.58279   0.30702   0.00000  Uiso   1.00
H274   H     0.68728   0.85523   0.02926   0.00000  Uiso   1.00
H275   H     0.74049   0.87895   0.04568   0.00000  Uiso   1.00
H276   H     0.96940   0.71132   0.24025   0.00000  Uiso   1.00
H277   H     0.69142   0.91690   0.04177   0.00000  Uiso   1.00
H278   H     0.97150   0.78798   0.10122   0.00000  Uiso   1.00
H279   H     0.52701   0.67430   0.17562   0.00000  Uiso   1.00
H280   H     0.72305   0.53422   0.09200   0.00000  Uiso   1.00
H281   H     0.80551   0.96455   0.21853   0.00000  Uiso   1.00
H282   H     0.78054   0.53435   0.23956   0.00000  Uiso   1.00
H283   H     0.69603   0.96504   0.11322   0.00000  Uiso   1.00
H284   H     0.65847   0.63602   0.04435   0.00000  Uiso   1.00
N285   N     0.75000   0.62624   0.16667   0.00000  Uiso   1.00
N286   N     0.75000   0.87377   0.16667   0.00000  Uiso   1.00
N287   N     0.62619   0.87585   0.18315   0.00000  Uiso   1.00
N288   N     0.86362   0.69093   0.28355   0.00000  Uiso   1.00
N289   N     0.86671   0.81080   0.05308   0.00000  Uiso   1.00
N290   N     0.62866   0.62451   0.18497   0.00000  Uiso   1.00
O291   O     0.68453   0.78974   0.16667   0.00000  Uiso   1.00
O292   O     0.80759   0.87193   0.22751   0.00000  Uiso   1.00
O293   O     0.78634   0.62689   0.24600   0.00000  Uiso   1.00
O294   O     0.69422   0.87225   0.10373   0.00000  Uiso   1.00
O295   O     0.81547   0.71026   0.16666   0.00000  Uiso   1.00
O296   O     0.81547   0.78974   0.16666   0.00000  Uiso   1.00
O297   O     0.68453   0.71026   0.16667   0.00000  Uiso   1.00
O298   O     0.75000   0.78973   0.09511   0.00000  Uiso   1.00
O299   O     0.75000   0.71027   0.23822   0.00000  Uiso   1.00
O300   O     0.75000   0.78973   0.23822   0.00000  Uiso   1.00
O301   O     0.75000   0.71027   0.09511   0.00000  Uiso   1.00
O302   O     0.71521   0.62869   0.08682   0.00000  Uiso   1.00
Zn303  Zn    0.75000   0.80307   0.16667   0.00000  Uiso   1.00
Zn304  Zn    0.75000   0.69693   0.16667   0.00000  Uiso   1.00
C305   C     0.16359   0.25004   0.50189   0.00000  Uiso   1.00
C306   C     0.22088   0.44727   0.46909   0.00000  Uiso   1.00
C307   C     0.25000   0.24999   0.40623   0.00000  Uiso   1.00
C308   C     0.25011   0.25003   0.59377   0.00000  Uiso   1.00
C309   C     0.25040   0.02655   0.49964   0.00000  Uiso   1.00
C310   C     0.25060   0.47313   0.49944   0.00000  Uiso   1.00
C311   C     0.25008   0.25001   0.35514   0.00000  Uiso   1.00
C312   C     0.25012   0.25008   0.64486   0.00000  Uiso   1.00
C313   C     0.04468   0.29215   0.50599   0.00000  Uiso   1.00
C314   C     0.45159   0.22764   0.54261   0.00000  Uiso   1.00
C315   C     0.45276   0.27150   0.46430   0.00000  Uiso   1.00
C316   C     0.33574   0.24993   0.50017   0.00000  Uiso   1.00
C317   C     0.04528   0.20712   0.50789   0.00000  Uiso   1.00
C318   C     0.09061   0.29302   0.50711   0.00000  Uiso   1.00
C319   C     0.40565   0.22787   0.54173   0.00000  Uiso   1.00
C320   C     0.40682   0.27171   0.46261   0.00000  Uiso   1.00
C321   C     0.09123   0.20669   0.50848   0.00000  Uiso   1.00
C322   C     0.11488   0.24996   0.50587   0.00000  Uiso   1.00
C323   C     0.38330   0.24976   0.50144   0.00000  Uiso   1.00
C324   C     0.02246   0.24953   0.50559   0.00000  Uiso   1.00
C325   C     0.47478   0.24942   0.50407   0.00000  Uiso   1.00
C326   C     0.17743   0.10807   0.39750   0.00000  Uiso   1.00
C327   C     0.23188   0.10248   0.46006   0.00000  Uiso   1.00
C328   C     0.29834   0.38078   0.61178   0.00000  Uiso   1.00
C329   C     0.26432   0.11736   0.62479   0.00000  Uiso   1.00
C330   C     0.20419   0.38177   0.38648   0.00000  Uiso   1.00
C331   C     0.11067   0.33891   0.51205   0.00000  Uiso   1.00
C332   C     0.38227   0.20727   0.58342   0.00000  Uiso   1.00
C333   C     0.38457   0.29346   0.42028   0.00000  Uiso   1.00
C334   C     0.11215   0.16107   0.51375   0.00000  Uiso   1.00
C335   C     0.27844   0.39739   0.53107   0.00000  Uiso   1.00
C336   C     0.26666   0.10212   0.54045   0.00000  Uiso   1.00
C337   C     0.22245   0.39758   0.46799   0.00000  Uiso   1.00
C338   C     0.23369   0.05253   0.45876   0.00000  Uiso   1.00
C339   C     0.28033   0.44704   0.52970   0.00000  Uiso   1.00
C340   C     0.26699   0.05238   0.54062   0.00000  Uiso   1.00
H341   H     0.02590   0.32482   0.50630   0.00000  Uiso   1.00
H342   H     0.15467   0.09201   0.42530   0.00000  Uiso   1.00
H343   H     0.18762   0.08185   0.36889   0.00000  Uiso   1.00
H344   H     0.26227   0.37723   0.62005   0.00000  Uiso   1.00
H345   H     0.31049   0.41601   0.62337   0.00000  Uiso   1.00
H346   H     0.31624   0.35431   0.63488   0.00000  Uiso   1.00
H347   H     0.22748   0.11928   0.62055   0.00000  Uiso   1.00
H348   H     0.27413   0.14440   0.65272   0.00000  Uiso   1.00
H349   H     0.27461   0.08279   0.64036   0.00000  Uiso   1.00
H350   H     0.18728   0.35523   0.36259   0.00000  Uiso   1.00
H351   H     0.24049   0.37895   0.37901   0.00000  Uiso   1.00
H352   H     0.46940   0.21132   0.57359   0.00000  Uiso   1.00
H353   H     0.19142   0.41690   0.37510   0.00000  Uiso   1.00
H354   H     0.47150   0.28798   0.43455   0.00000  Uiso   1.00
H355   H     0.02701   0.17430   0.50895   0.00000  Uiso   1.00
H356   H     0.22305   0.03422   0.42533   0.00000  Uiso   1.00
H357   H     0.30551   0.46455   0.55187   0.00000  Uiso   1.00
H358   H     0.28054   0.03435   0.57289   0.00000  Uiso   1.00
H359   H     0.19603   0.46504   0.44655   0.00000  Uiso   1.00
H360   H     0.15847   0.13602   0.37768   0.00000  Uiso   1.00
N361   N     0.25000   0.12624   0.50000   0.00000  Uiso   1.00
N362   N     0.25000   0.37377   0.50000   0.00000  Uiso   1.00
N363   N     0.12619   0.37585   0.51649   0.00000  Uiso   1.00
N364   N     0.36362   0.19093   0.61689   0.00000  Uiso   1.00
N365   N     0.36671   0.31080   0.38642   0.00000  Uiso   1.00
N366   N     0.12866   0.12451   0.51830   0.00000  Uiso   1.00
O367   O     0.18453   0.28974   0.50000   0.00000  Uiso   1.00
O368   O     0.30759   0.37193   0.56085   0.00000  Uiso   1.00
O369   O     0.28634   0.12689   0.57934   0.00000  Uiso   1.00
O370   O     0.19422   0.37225   0.43706   0.00000  Uiso   1.00
O371   O     0.31547   0.21026   0.50000   0.00000  Uiso   1.00
O372   O     0.31547   0.28974   0.50000   0.00000  Uiso   1.00
O373   O     0.18453   0.21026   0.50000   0.00000  Uiso   1.00
O374   O     0.25000   0.28973   0.42845   0.00000  Uiso   1.00
O375   O     0.25000   0.21027   0.57155   0.00000  Uiso   1.00
O376   O     0.25000   0.28973   0.57155   0.00000  Uiso   1.00
O377   O     0.25000   0.21027   0.42845   0.00000  Uiso   1.00
O378   O     0.21521   0.12869   0.42015   0.00000  Uiso   1.00
Zn379  Zn    0.25000   0.30307   0.50000   0.00000  Uiso   1.00
Zn380  Zn    0.25000   0.19693   0.50000   0.00000  Uiso   1.00
C381   C     0.66359   0.25004   0.50189   0.00000  Uiso   1.00
C382   C     0.72088   0.44727   0.46909   0.00000  Uiso   1.00
C383   C     0.75000   0.24999   0.40623   0.00000  Uiso   1.00
C384   C     0.75011   0.25003   0.59377   0.00000  Uiso   1.00
C385   C     0.75040   0.02655   0.49964   0.00000  Uiso   1.00
C386   C     0.75060   0.47313   0.49944   0.00000  Uiso   1.00
C387   C     0.75008   0.25001   0.35514   0.00000  Uiso   1.00
C388   C     0.75012   0.25008   0.64486   0.00000  Uiso   1.00
C389   C     0.54468   0.29215   0.50599   0.00000  Uiso   1.00
C390   C     0.95159   0.22764   0.54261   0.00000  Uiso   1.00
C391   C     0.95276   0.27150   0.46430   0.00000  Uiso   1.00
C392   C     0.83574   0.24993   0.50017   0.00000  Uiso   1.00
C393   C     0.54528   0.20712   0.50789   0.00000  Uiso   1.00
C394   C     0.59061   0.29302   0.50711   0.00000  Uiso   1.00
C395   C     0.90565   0.22787   0.54173   0.00000  Uiso   1.00
C396   C     0.90682   0.27171   0.46261   0.00000  Uiso   1.00
C397   C     0.59123   0.20669   0.50848   0.00000  Uiso   1.00
C398   C     0.61488   0.24996   0.50587   0.00000  Uiso   1.00
C399   C     0.88330   0.24976   0.50144   0.00000  Uiso   1.00
C400   C     0.52246   0.24953   0.50559   0.00000  Uiso   1.00
C401   C     0.97478   0.24942   0.50407   0.00000  Uiso   1.00
C402   C     0.67743   0.10807   0.39750   0.00000  Uiso   1.00
C403   C     0.73188   0.10248   0.46006   0.00000  Uiso   1.00
C404   C     0.79834   0.38078   0.61178   0.00000  Uiso   1.00
C405   C     0.76432   0.11736   0.62479   0.00000  Uiso   1.00
C406   C     0.70419   0.38177   0.38648   0.00000  Uiso   1.00
C407   C     0.61067   0.33891   0.51205   0.00000  Uiso   1.00
C408   C     0.88227   0.20727   0.58342   0.00000  Uiso   1.00
C409   C     0.88457   0.29346   0.42028   0.00000  Uiso   1.00
C410   C     0.61215   0.16107   0.51375   0.00000  Uiso   1.00
C411   C     0.77844   0.39739   0.53107   0.00000  Uiso   1.00
C412   C     0.76666   0.10212   0.54045   0.00000  Uiso   1.00
C413   C     0.72245   0.39758   0.46799   0.00000  Uiso   1.00
C414   C     0.73369   0.05253   0.45876   0.00000  Uiso   1.00
C415   C     0.78033   0.44704   0.52970   0.00000  Uiso   1.00
C416   C     0.76699   0.05238   0.54062   0.00000  Uiso   1.00
H417   H     0.52590   0.32482   0.50630   0.00000  Uiso   1.00
H418   H     0.65467   0.09201   0.42530   0.00000  Uiso   1.00
H419   H     0.68762   0.08185   0.36889   0.00000  Uiso   1.00
H420   H     0.76227   0.37723   0.62005   0.00000  Uiso   1.00
H421   H     0.81049   0.41601   0.62337   0.00000  Uiso   1.00
H422   H     0.81624   0.35431   0.63488   0.00000  Uiso   1.00
H423   H     0.72748   0.11928   0.62055   0.00000  Uiso   1.00
H424   H     0.77413   0.14440   0.65272   0.00000  Uiso   1.00
H425   H     0.77461   0.08279   0.64036   0.00000  Uiso   1.00
H426   H     0.68728   0.35523   0.36259   0.00000  Uiso   1.00
H427   H     0.74049   0.37895   0.37901   0.00000  Uiso   1.00
H428   H     0.96940   0.21132   0.57359   0.00000  Uiso   1.00
H429   H     0.69142   0.41690   0.37510   0.00000  Uiso   1.00
H430   H     0.97150   0.28798   0.43455   0.00000  Uiso   1.00
H431   H     0.52701   0.17430   0.50895   0.00000  Uiso   1.00
H432   H     0.72305   0.03422   0.42533   0.00000  Uiso   1.00
H433   H     0.80551   0.46455   0.55187   0.00000  Uiso   1.00
H434   H     0.78054   0.03435   0.57289   0.00000  Uiso   1.00
H435   H     0.69603   0.46504   0.44655   0.00000  Uiso   1.00
H436   H     0.65847   0.13602   0.37768   0.00000  Uiso   1.00
N437   N     0.75000   0.12624   0.50000   0.00000  Uiso   1.00
N438   N     0.75000   0.37377   0.50000   0.00000  Uiso   1.00
N439   N     0.62619   0.37585   0.51649   0.00000  Uiso   1.00
N440   N     0.86362   0.19093   0.61689   0.00000  Uiso   1.00
N441   N     0.86671   0.31080   0.38642   0.00000  Uiso   1.00
N442   N     0.62866   0.12451   0.51830   0.00000  Uiso   1.00
O443   O     0.68453   0.28974   0.50000   0.00000  Uiso   1.00
O444   O     0.80759   0.37193   0.56085   0.00000  Uiso   1.00
O445   O     0.78634   0.12689   0.57934   0.00000  Uiso   1.00
O446   O     0.69422   0.37225   0.43706   0.00000  Uiso   1.00
O447   O     0.81547   0.21026   0.50000   0.00000  Uiso   1.00
O448   O     0.81547   0.28974   0.50000   0.00000  Uiso   1.00
O449   O     0.68453   0.21026   0.50000   0.00000  Uiso   1.00
O450   O     0.75000   0.28973   0.42845   0.00000  Uiso   1.00
O451   O     0.75000   0.21027   0.57155   0.00000  Uiso   1.00
O452   O     0.75000   0.28973   0.57155   0.00000  Uiso   1.00
O453   O     0.75000   0.21027   0.42845   0.00000  Uiso   1.00
O454   O     0.71521   0.12869   0.42015   0.00000  Uiso   1.00
Zn455  Zn    0.75000   0.30307   0.50000   0.00000  Uiso   1.00
Zn456  Zn    0.75000   0.19693   0.50000   0.00000  Uiso   1.00
C457   C     0.16359   0.75004   0.50189   0.00000  Uiso   1.00
C458   C     0.22088   0.94727   0.46909   0.00000  Uiso   1.00
C459   C     0.25000   0.74999   0.40623   0.00000  Uiso   1.00
C460   C     0.25011   0.75003   0.59377   0.00000  Uiso   1.00
C461   C     0.25040   0.52655   0.49964   0.00000  Uiso   1.00
C462   C     0.25060   0.97313   0.49944   0.00000  Uiso   1.00
C463   C     0.25008   0.75001   0.35514   0.00000  Uiso   1.00
C464   C     0.25012   0.75008   0.64486   0.00000  Uiso   1.00
C465   C     0.04468   0.79215   0.50599   0.00000  Uiso   1.00
C466   C     0.45159   0.72764   0.54261   0.00000  Uiso   1.00
C467   C     0.45276   0.77150   0.46430   0.00000  Uiso   1.00
C468   C     0.33574   0.74993   0.50017   0.00000  Uiso   1.00
C469   C     0.04528   0.70712   0.50789   0.00000  Uiso   1.00
C470   C     0.09061   0.79302   0.50711   0.00000  Uiso   1.00
C471   C     0.40565   0.72787   0.54173   0.00000  Uiso   1.00
C472   C     0.40682   0.77171   0.46261   0.00000  Uiso   1.00
C473   C     0.09123   0.70669   0.50848   0.00000  Uiso   1.00
C474   C     0.11488   0.74996   0.50587   0.00000  Uiso   1.00
C475   C     0.38330   0.74976   0.50144   0.00000  Uiso   1.00
C476   C     0.02246   0.74953   0.50559   0.00000  Uiso   1.00
C477   C     0.47478   0.74942   0.50407   0.00000  Uiso   1.00
C478   C     0.17743   0.60807   0.39750   0.00000  Uiso   1.00
C479   C     0.23188   0.60248   0.46006   0.00000  Uiso   1.00
C480   C     0.29834   0.88078   0.61178   0.00000  Uiso   1.00
C481   C     0.26432   0.61736   0.62479   0.00000  Uiso   1.00
C482   C     0.20419   0.88177   0.38648   0.00000  Uiso   1.00
C483   C     0.11067   0.83891   0.51205   0.00000  Uiso   1.00
C484   C     0.38227   0.70727   0.58342   0.00000  Uiso   1.00
C485   C     0.38457   0.79346   0.42028   0.00000  Uiso   1.00
C486   C     0.11215   0.66107   0.51375   0.00000  Uiso   1.00
C487   C     0.27844   0.89739   0.53107   0.00000  Uiso   1.00
C488   C     0.26666   0.60212   0.54045   0.00000  Uiso   1.00
C489   C     0.22245   0.89758   0.46799   0.00000  Uiso   1.00
C490   C     0.23369   0.55253   0.45876   0.00000  Uiso   1.00
C491   C     0.28033   0.94704   0.52970   0.00000  Uiso   1.00
C492   C     0.26699   0.55238   0.54062   0.00000  Uiso   1.00
H493   H     0.02590   0.82482   0.50630   0.00000  Uiso   1.00
H494   H     0.15467   0.59201   0.42530   0.00000  Uiso   1.00
H495   H     0.18762   0.58185   0.36889   0.00000  Uiso   1.00
H496   H     0.26227   0.87723   0.62005   0.00000  Uiso   1.00
H497   H     0.31049   0.91601   0.62337   0.00000  Uiso   1.00
H498   H     0.31624   0.85431   0.63488   0.00000  Uiso   1.00
H499   H     0.22748   0.61928   0.62055   0.00000  Uiso   1.00
H500   H     0.27413   0.64440   0.65272   0.00000  Uiso   1.00
H501   H     0.27461   0.58279   0.64036   0.00000  Uiso   1.00
H502   H     0.18728   0.85523   0.36259   0.00000  Uiso   1.00
H503   H     0.24049   0.87895   0.37901   0.00000  Uiso   1.00
H504   H     0.46940   0.71132   0.57359   0.00000  Uiso   1.00
H505   H     0.19142   0.91690   0.37510   0.00000  Uiso   1.00
H506   H     0.47150   0.78798   0.43455   0.00000  Uiso   1.00
H507   H     0.02701   0.67430   0.50895   0.00000  Uiso   1.00
H508   H     0.22305   0.53422   0.42533   0.00000  Uiso   1.00
H509   H     0.30551   0.96455   0.55187   0.00000  Uiso   1.00
H510   H     0.28054   0.53435   0.57289   0.00000  Uiso   1.00
H511   H     0.19603   0.96504   0.44655   0.00000  Uiso   1.00
H512   H     0.15847   0.63602   0.37768   0.00000  Uiso   1.00
N513   N     0.25000   0.62624   0.50000   0.00000  Uiso   1.00
N514   N     0.25000   0.87377   0.50000   0.00000  Uiso   1.00
N515   N     0.12619   0.87585   0.51649   0.00000  Uiso   1.00
N516   N     0.36362   0.69093   0.61689   0.00000  Uiso   1.00
N517   N     0.36671   0.81080   0.38642   0.00000  Uiso   1.00
N518   N     0.12866   0.62451   0.51830   0.00000  Uiso   1.00
O519   O     0.18453   0.78974   0.50000   0.00000  Uiso   1.00
O520   O     0.30759   0.87193   0.56085   0.00000  Uiso   1.00
O521   O     0.28634   0.62689   0.57934   0.00000  Uiso   1.00
O522   O     0.19422   0.87225   0.43706   0.00000  Uiso   1.00
O523   O     0.31547   0.71026   0.50000   0.00000  Uiso   1.00
O524   O     0.31547   0.78974   0.50000   0.00000  Uiso   1.00
O525   O     0.18453   0.71026   0.50000   0.00000  Uiso   1.00
O526   O     0.25000   0.78973   0.42845   0.00000  Uiso   1.00
O527   O     0.25000   0.71027   0.57155   0.00000  Uiso   1.00
O528   O     0.25000   0.78973   0.57155   0.00000  Uiso   1.00
O529   O     0.25000   0.71027   0.42845   0.00000  Uiso   1.00
O530   O     0.21521   0.62869   0.42015   0.00000  Uiso   1.00
Zn531  Zn    0.25000   0.80307   0.50000   0.00000  Uiso   1.00
Zn532  Zn    0.25000   0.69693   0.50000   0.00000  Uiso   1.00
C533   C     0.66359   0.75004   0.50189   0.00000  Uiso   1.00
C534   C     0.72088   0.94727   0.46909   0.00000  Uiso   1.00
C535   C     0.75000   0.74999   0.40623   0.00000  Uiso   1.00
C536   C     0.75011   0.75003   0.59377   0.00000  Uiso   1.00
C537   C     0.75040   0.52655   0.49964   0.00000  Uiso   1.00
C538   C     0.75060   0.97313   0.49944   0.00000  Uiso   1.00
C539   C     0.75008   0.75001   0.35514   0.00000  Uiso   1.00
C540   C     0.75012   0.75008   0.64486   0.00000  Uiso   1.00
C541   C     0.54468   0.79215   0.50599   0.00000  Uiso   1.00
C542   C     0.95159   0.72764   0.54261   0.00000  Uiso   1.00
C543   C     0.95276   0.77150   0.46430   0.00000  Uiso   1.00
C544   C     0.83574   0.74993   0.50017   0.00000  Uiso   1.00
C545   C     0.54528   0.70712   0.50789   0.00000  Uiso   1.00
C546   C     0.59061   0.79302   0.50711   0.00000  Uiso   1.00
C547   C     0.90565   0.72787   0.54173   0.00000  Uiso   1.00
C548   C     0.90682   0.77171   0.46261   0.00000  Uiso   1.00
C549   C     0.59123   0.70669   0.50848   0.00000  Uiso   1.00
C550   C     0.61488   0.74996   0.50587   0.00000  Uiso   1.00
C551   C     0.88330   0.74976   0.50144   0.00000  Uiso   1.00
C552   C     0.52246   0.74953   0.50559   0.00000  Uiso   1.00
C553   C     0.97478   0.74942   0.50407   0.00000  Uiso   1.00
C554   C     0.67743   0.60807   0.39750   0.00000  Uiso   1.00
C555   C     0.73188   0.60248   0.46006   0.00000  Uiso   1.00
C556   C     0.79834   0.88078   0.61178   0.00000  Uiso   1.00
C557   C     0.76432   0.61736   0.62479   0.00000  Uiso   1.00
C558   C     0.70419   0.88177   0.38648   0.00000  Uiso   1.00
C559   C     0.61067   0.83891   0.51205   0.00000  Uiso   1.00
C560   C     0.88227   0.70727   0.58342   0.00000  Uiso   1.00
C561   C     0.88457   0.79346   0.42028   0.00000  Uiso   1.00
C562   C     0.61215   0.66107   0.51375   0.00000  Uiso   1.00
C563   C     0.77844   0.89739   0.53107   0.00000  Uiso   1.00
C564   C     0.76666   0.60212   0.54045   0.00000  Uiso   1.00
C565   C     0.72245   0.89758   0.46799   0.00000  Uiso   1.00
C566   C     0.73369   0.55253   0.45876   0.00000  Uiso   1.00
C567   C     0.78033   0.94704   0.52970   0.00000  Uiso   1.00
C568   C     0.76699   0.55238   0.54062   0.00000  Uiso   1.00
H569   H     0.52590   0.82482   0.50630   0.00000  Uiso   1.00
H570   H     0.65467   0.59201   0.42530   0.00000  Uiso   1.00
H571   H     0.68762   0.58185   0.36889   0.00000  Uiso   1.00
H572   H     0.76227   0.87723   0.62005   0.00000  Uiso   1.00
H573   H     0.81049   0.91601   0.62337   0.00000  Uiso   1.00
H574   H     0.81624   0.85431   0.63488   0.00000  Uiso   1.00
H575   H     0.72748   0.61928   0.62055   0.00000  Uiso   1.00
H576   H     0.77413   0.64440   0.65272   0.00000  Uiso   1.00
H577   H     0.77461   0.58279   0.64036   0.00000  Uiso   1.00
H578   H     0.68728   0.85523   0.36259   0.00000  Uiso   1.00
H579   H     0.74049   0.87895   0.37901   0.00000  Uiso   1.00
H580   H     0.96940   0.71132   0.57359   0.00000  Uiso   1.00
H581   H     0.69142   0.91690   0.37510   0.00000  Uiso   1.00
H582   H     0.97150   0.78798   0.43455   0.00000  Uiso   1.00
H583   H     0.52701   0.67430   0.50895   0.00000  Uiso   1.00
H584   H     0.72305   0.53422   0.42533   0.00000  Uiso   1.00
H585   H     0.80551   0.96455   0.55187   0.00000  Uiso   1.00
H586   H     0.78054   0.53435   0.57289   0.00000  Uiso   1.00
H587   H     0.69603   0.96504   0.44655   0.00000  Uiso   1.00
H588   H     0.65847   0.63602   0.37768   0.00000  Uiso   1.00
N589   N     0.75000   0.62624   0.50000   0.00000  Uiso   1.00
N590   N     0.75000   0.87377   0.50000   0.00000  Uiso   1.00
N591   N     0.62619   0.87585   0.51649   0.00000  Uiso   1.00
N592   N     0.86362   0.69093   0.61689   0.00000  Uiso   1.00
N593   N     0.86671   0.81080   0.38642   0.00000  Uiso   1.00
N594   N     0.62866   0.62451   0.51830   0.00000  Uiso   1.00
O595   O     0.68453   0.78974   0.50000   0.00000  Uiso   1.00
O596   O     0.80759   0.87193   0.56085   0.00000  Uiso   1.00
O597   O     0.78634   0.62689   0.57934   0.00000  Uiso   1.00
O598   O     0.69422   0.87225   0.43706   0.00000  Uiso   1.00
O599   O     0.81547   0.71026   0.50000   0.00000  Uiso   1.00
O600   O     0.81547   0.78974   0.50000   0.00000  Uiso   1.00
O601   O     0.68453   0.71026   0.50000   0.00000  Uiso   1.00
O602   O     0.75000   0.78973   0.42845   0.00000  Uiso   1.00
O603   O     0.75000   0.71027   0.57155   0.00000  Uiso   1.00
O604   O     0.75000   0.78973   0.57155   0.00000  Uiso   1.00
O605   O     0.75000   0.71027   0.42845   0.00000  Uiso   1.00
O606   O     0.71521   0.62869   0.42015   0.00000  Uiso   1.00
Zn607  Zn    0.75000   0.80307   0.50000   0.00000  Uiso   1.00
Zn608  Zn    0.75000   0.69693   0.50000   0.00000  Uiso   1.00
C609   C     0.16359   0.25004   0.83522   0.00000  Uiso   1.00
C610   C     0.22088   0.44727   0.80242   0.00000  Uiso   1.00
C611   C     0.25000   0.24999   0.73956   0.00000  Uiso   1.00
C612   C     0.25011   0.25003   0.92710   0.00000  Uiso   1.00
C613   C     0.25040   0.02655   0.83297   0.00000  Uiso   1.00
C614   C     0.25060   0.47313   0.83277   0.00000  Uiso   1.00
C615   C     0.25008   0.25001   0.68847   0.00000  Uiso   1.00
C616   C     0.25012   0.25008   0.97819   0.00000  Uiso   1.00
C617   C     0.04468   0.29215   0.83933   0.00000  Uiso   1.00
C618   C     0.45159   0.22764   0.87594   0.00000  Uiso   1.00
C619   C     0.45276   0.27150   0.79764   0.00000  Uiso   1.00
C620   C     0.33574   0.24993   0.83351   0.00000  Uiso   1.00
C621   C     0.04528   0.20712   0.84122   0.00000  Uiso   1.00
C622   C     0.09061   0.29302   0.84045   0.00000  Uiso   1.00
C623   C     0.40565   0.22787   0.87506   0.00000  Uiso   1.00
C624   C     0.40682   0.27171   0.79594   0.00000  Uiso   1.00
C625   C     0.09123   0.20669   0.84182   0.00000  Uiso   1.00
C626   C     0.11488   0.24996   0.83920   0.00000  Uiso   1.00
C627   C     0.38330   0.24976   0.83477   0.00000  Uiso   1.00
C628   C     0.02246   0.24953   0.83893   0.00000  Uiso   1.00
C629   C     0.47478   0.24942   0.83740   0.00000  Uiso   1.00
C630   C     0.17743   0.10807   0.73083   0.00000  Uiso   1.00
C631   C     0.23188   0.10248   0.79340   0.00000  Uiso   1.00
C632   C     0.29834   0.38078   0.94511   0.00000  Uiso   1.00
C633   C     0.26432   0.11736   0.95812   0.00000  Uiso   1.00
C634   C     0.20419   0.38177   0.71982   0.00000  Uiso   1.00
C635   C     0.11067   0.33891   0.84539   0.00000  Uiso   1.00
C636   C     0.38227   0.20727   0.91675   0.00000  Uiso   1.00
C637   C     0.38457   0.29346   0.75361   0.00000  Uiso   1.00
C638   C     0.11215   0.16107   0.84708   0.00000  Uiso   1.00
C639   C     0.27844   0.39739   0.86440   0.00000  Uiso   1.00
C640   C     0.26666   0.10212   0.87378   0.00000  Uiso   1.00
C641   C     0.22245   0.39758   0.80132   0.00000  Uiso   1.00
C642   C     0.23369   0.05253   0.79210   0.00000  Uiso   1.00
C643   C     0.28033   0.44704   0.86303   0.00000  Uiso   1.00
C644   C     0.26699   0.05238   0.87395   0.00000  Uiso   1.00
H645   H     0.02590   0.32482   0.83963   0.00000  Uiso   1.00
H646   H     0.15467   0.09201   0.75863   0.00000  Uiso   1.00
H647   H     0.18762   0.08185   0.70223   0.00000  Uiso   1.00
H648   H     0.26227   0.37723   0.95338   0.00000  Uiso   1.00
H649   H     0.31049   0.41601   0.95671   0.00000  Uiso   1.00
H650   H     0.31624   0.35431   0.96822   0.00000  Uiso   1.00
H651   H     0.22748   0.11928   0.95388   0.00000  Uiso   1.00
H652   H     0.27413   0.14440   0.98605   0.00000  Uiso   1.00
H653   H     0.27461   0.08279   0.97369   0.00000  Uiso   1.00
H654   H     0.18728   0.35523   0.69592   0.00000  Uiso   1.00
H655   H     0.24049   0.37895   0.71235   0.00000  Uiso   1.00
H656   H     0.46940   0.21132   0.90692   0.00000  Uiso   1.00
H657   H     0.19142   0.41690   0.70844   0.00000  Uiso   1.00
H658   H     0.47150   0.28798   0.76789   0.00000  Uiso   1.00
H659   H     0.02701   0.17430   0.84229   0.00000  Uiso   1.00
H660   H     0.22305   0.03422   0.75866   0.00000  Uiso   1.00
H661   H     0.30551   0.46455   0.88520   0.00000  Uiso   1.00
H662   H     0.28054   0.03435   0.90623   0.00000  Uiso   1.00
H663   H     0.19603   0.46504   0.77989   0.00000  Uiso   1.00
H664   H     0.15847   0.13602   0.71102   0.00000  Uiso   1.00
N665   N     0.25000   0.12624   0.83333   0.00000  Uiso   1.00
N666   N     0.25000   0.37377   0.83333   0.00000  Uiso   1.00
N667   N     0.12619   0.37585   0.84982   0.00000  Uiso   1.00
N668   N     0.36362   0.19093   0.95022   0.00000  Uiso   1.00
N669   N     0.36671   0.31080   0.71975   0.00000  Uiso   1.00
N670   N     0.12866   0.12451   0.85164   0.00000  Uiso   1.00
O671   O     0.18453   0.28974   0.83334   0.00000  Uiso   1.00
O672   O     0.30759   0.37193   0.89418   0.00000  Uiso   1.00
O673   O     0.28634   0.12689   0.91267   0.00000  Uiso   1.00
O674   O     0.19422   0.37225   0.77039   0.00000  Uiso   1.00
O675   O     0.31547   0.21026   0.83333   0.00000  Uiso   1.00
O676   O     0.31547   0.28974   0.83333   0.00000  Uiso   1.00
O677   O     0.18453   0.21026   0.83334   0.00000  Uiso   1.00
O678   O     0.25000   0.28973   0.76178   0.00000  Uiso   1.00
O679   O     0.25000   0.21027   0.90489   0.00000  Uiso   1.00
O680   O     0.25000   0.28973   0.90489   0.00000  Uiso   1.00
O681   O     0.25000   0.21027   0.76178   0.00000  Uiso   1.00
O682   O     0.21521   0.12869   0.75349   0.00000  Uiso   1.00
Zn683  Zn    0.25000   0.30307   0.83333   0.00000  Uiso   1.00
Zn684  Zn    0.25000   0.19693   0.83333   0.00000  Uiso   1.00
C685   C     0.66359   0.25004   0.83522   0.00000  Uiso   1.00
C686   C     0.72088   0.44727   0.80242   0.00000  Uiso   1.00
C687   C     0.75000   0.24999   0.73956   0.00000  Uiso   1.00
C688   C     0.75011   0.25003   0.92710   0.00000  Uiso   1.00
C689   C     0.75040   0.02655   0.83297   0.00000  Uiso   1.00
C690   C     0.75060   0.47313   0.83277   0.00000  Uiso   1.00
C691   C     0.75008   0.25001   0.68847   0.00000  Uiso   1.00
C692   C     0.75012   0.25008   0.97819   0.00000  Uiso   1.00
C693   C     0.54468   0.29215   0.83933   0.00000  Uiso   1.00
C694   C     0.95159   0.22764   0.87594   0.00000  Uiso   1.00
C695   C     0.95276   0.27150   0.79764   0.00000  Uiso   1.00
C696   C     0.83574   0.24993   0.83351   0.00000  Uiso   1.00
C697   C     0.54528   0.20712   0.84122   0.00000  Uiso   1.00
C698   C     0.59061   0.29302   0.84045   0.00000  Uiso   1.00
C699   C     0.90565   0.22787   0.87506   0.00000  Uiso   1.00
C700   C     0.90682   0.27171   0.79594   0.00000  Uiso   1.00
C701   C     0.59123   0.20669   0.84182   0.00000  Uiso   1.00
C702   C     0.61488   0.24996   0.83920   0.00000  Uiso   1.00
C703   C     0.88330   0.24976   0.83477   0.00000  Uiso   1.00
C704   C     0.52246   0.24953   0.83893   0.00000  Uiso   1.00
C705   C     0.97478   0.24942   0.83740   0.00000  Uiso   1.00
C706   C     0.67743   0.10807   0.73083   0.00000  Uiso   1.00
C707   C     0.73188   0.10248   0.79340   0.00000  Uiso   1.00
C708   C     0.79834   0.38078   0.94511   0.00000  Uiso   1.00
C709   C     0.76432   0.11736   0.95812   0.00000  Uiso   1.00
C710   C     0.70419   0.38177   0.71982   0.00000  Uiso   1.00
C711   C     0.61067   0.33891   0.84539   0.00000  Uiso   1.00
C712   C     0.88227   0.20727   0.91675   0.00000  Uiso   1.00
C713   C     0.88457   0.29346   0.75361   0.00000  Uiso   1.00
C714   C     0.61215   0.16107   0.84708   0.00000  Uiso   1.00
C715   C     0.77844   0.39739   0.86440   0.00000  Uiso   1.00
C716   C     0.76666   0.10212   0.87378   0.00000  Uiso   1.00
C717   C     0.72245   0.39758   0.80132   0.00000  Uiso   1.00
C718   C     0.73369   0.05253   0.79210   0.00000  Uiso   1.00
C719   C     0.78033   0.44704   0.86303   0.00000  Uiso   1.00
C720   C     0.76699   0.05238   0.87395   0.00000  Uiso   1.00
H721   H     0.52590   0.32482   0.83963   0.00000  Uiso   1.00
H722   H     0.65467   0.09201   0.75863   0.00000  Uiso   1.00
H723   H     0.68762   0.08185   0.70223   0.00000  Uiso   1.00
H724   H     0.76227   0.37723   0.95338   0.00000  Uiso   1.00
H725   H     0.81049   0.41601   0.95671   0.00000  Uiso   1.00
H726   H     0.81624   0.35431   0.96822   0.00000  Uiso   1.00
H727   H     0.72748   0.11928   0.95388   0.00000  Uiso   1.00
H728   H     0.77413   0.14440   0.98605   0.00000  Uiso   1.00
H729   H     0.77461   0.08279   0.97369   0.00000  Uiso   1.00
H730   H     0.68728   0.35523   0.69592   0.00000  Uiso   1.00
H731   H     0.74049   0.37895   0.71235   0.00000  Uiso   1.00
H732   H     0.96940   0.21132   0.90692   0.00000  Uiso   1.00
H733   H     0.69142   0.41690   0.70844   0.00000  Uiso   1.00
H734   H     0.97150   0.28798   0.76789   0.00000  Uiso   1.00
H735   H     0.52701   0.17430   0.84229   0.00000  Uiso   1.00
H736   H     0.72305   0.03422   0.75866   0.00000  Uiso   1.00
H737   H     0.80551   0.46455   0.88520   0.00000  Uiso   1.00
H738   H     0.78054   0.03435   0.90623   0.00000  Uiso   1.00
H739   H     0.69603   0.46504   0.77989   0.00000  Uiso   1.00
H740   H     0.65847   0.13602   0.71102   0.00000  Uiso   1.00
N741   N     0.75000   0.12624   0.83333   0.00000  Uiso   1.00
N742   N     0.75000   0.37377   0.83333   0.00000  Uiso   1.00
N743   N     0.62619   0.37585   0.84982   0.00000  Uiso   1.00
N744   N     0.86362   0.19093   0.95022   0.00000  Uiso   1.00
N745   N     0.86671   0.31080   0.71975   0.00000  Uiso   1.00
N746   N     0.62866   0.12451   0.85164   0.00000  Uiso   1.00
O747   O     0.68453   0.28974   0.83334   0.00000  Uiso   1.00
O748   O     0.80759   0.37193   0.89418   0.00000  Uiso   1.00
O749   O     0.78634   0.12689   0.91267   0.00000  Uiso   1.00
O750   O     0.69422   0.37225   0.77039   0.00000  Uiso   1.00
O751   O     0.81547   0.21026   0.83333   0.00000  Uiso   1.00
O752   O     0.81547   0.28974   0.83333   0.00000  Uiso   1.00
O753   O     0.68453   0.21026   0.83334   0.00000  Uiso   1.00
O754   O     0.75000   0.28973   0.76178   0.00000  Uiso   1.00
O755   O     0.75000   0.21027   0.90489   0.00000  Uiso   1.00
O756   O     0.75000   0.28973   0.90489   0.00000  Uiso   1.00
O757   O     0.75000   0.21027   0.76178   0.00000  Uiso   1.00
O758   O     0.71521   0.12869   0.75349   0.00000  Uiso   1.00
Zn759  Zn    0.75000   0.30307   0.83333   0.00000  Uiso   1.00
Zn760  Zn    0.75000   0.19693   0.83333   0.00000  Uiso   1.00
C761   C     0.16359   0.75004   0.83522   0.00000  Uiso   1.00
C762   C     0.22088   0.94727   0.80242   0.00000  Uiso   1.00
C763   C     0.25000   0.74999   0.73956   0.00000  Uiso   1.00
C764   C     0.25011   0.75003   0.92710   0.00000  Uiso   1.00
C765   C     0.25040   0.52655   0.83297   0.00000  Uiso   1.00
C766   C     0.25060   0.97313   0.83277   0.00000  Uiso   1.00
C767   C     0.25008   0.75001   0.68847   0.00000  Uiso   1.00
C768   C     0.25012   0.75008   0.97819   0.00000  Uiso   1.00
C769   C     0.04468   0.79215   0.83933   0.00000  Uiso   1.00
C770   C     0.45159   0.72764   0.87594   0.00000  Uiso   1.00
C771   C     0.45276   0.77150   0.79764   0.00000  Uiso   1.00
C772   C     0.33574   0.74993   0.83351   0.00000  Uiso   1.00
C773   C     0.04528   0.70712   0.84122   0.00000  Uiso   1.00
C774   C     0.09061   0.79302   0.84045   0.00000  Uiso   1.00
C775   C     0.40565   0.72787   0.87506   0.00000  Uiso   1.00
C776   C     0.40682   0.77171   0.79594   0.00000  Uiso   1.00
C777   C     0.09123   0.70669   0.84182   0.00000  Uiso   1.00
C778   C     0.11488   0.74996   0.83920   0.00000  Uiso   1.00
C779   C     0.38330   0.74976   0.83477   0.00000  Uiso   1.00
C780   C     0.02246   0.74953   0.83893   0.00000  Uiso   1.00
C781   C     0.47478   0.74942   0.83740   0.00000  Uiso   1.00
C782   C     0.17743   0.60807   0.73083   0.00000  Uiso   1.00
C783   C     0.23188   0.60248   0.79340   0.00000  Uiso   1.00
C784   C     0.29834   0.88078   0.94511   0.00000  Uiso   1.00
C785   C     0.26432   0.61736   0.95812   0.00000  Uiso   1.00
C786   C     0.20419   0.88177   0.71982   0.00000  Uiso   1.00
C787   C     0.11067   0.83891   0.84539   0.00000  Uiso   1.00
C788   C     0.38227   0.70727   0.91675   0.00000  Uiso   1.00
C789   C     0.38457   0.79346   0.75361   0.00000  Uiso   1.00
C790   C     0.11215   0.66107   0.84708   0.00000  Uiso   1.00
C791   C     0.27844   0.89739   0.86440   0.00000  Uiso   1.00
C792   C     0.26666   0.60212   0.87378   0.00000  Uiso   1.00
C793   C     0.22245   0.89758   0.80132   0.00000  Uiso   1.00
C794   C     0.23369   0.55253   0.79210   0.00000  Uiso   1.00
C795   C     0.28033   0.94704   0.86303   0.00000  Uiso   1.00
C796   C     0.26699   0.55238   0.87395   0.00000  Uiso   1.00
H797   H     0.02590   0.82482   0.83963   0.00000  Uiso   1.00
H798   H     0.15467   0.59201   0.75863   0.00000  Uiso   1.00
H799   H     0.18762   0.58185   0.70223   0.00000  Uiso   1.00
H800   H     0.26227   0.87723   0.95338   0.00000  Uiso   1.00
H801   H     0.31049   0.91601   0.95671   0.00000  Uiso   1.00
H802   H     0.31624   0.85431   0.96822   0.00000  Uiso   1.00
H803   H     0.22748   0.61928   0.95388   0.00000  Uiso   1.00
H804   H     0.27413   0.64440   0.98605   0.00000  Uiso   1.00
H805   H     0.27461   0.58279   0.97369   0.00000  Uiso   1.00
H806   H     0.18728   0.85523   0.69592   0.00000  Uiso   1.00
H807   H     0.24049   0.87895   0.71235   0.00000  Uiso   1.00
H808   H     0.46940   0.71132   0.90692   0.00000  Uiso   1.00
H809   H     0.19142   0.91690   0.70844   0.00000  Uiso   1.00
H810   H     0.47150   0.78798   0.76789   0.00000  Uiso   1.00
H811   H     0.02701   0.67430   0.84229   0.00000  Uiso   1.00
H812   H     0.22305   0.53422   0.75866   0.00000  Uiso   1.00
H813   H     0.30551   0.96455   0.88520   0.00000  Uiso   1.00
H814   H     0.28054   0.53435   0.90623   0.00000  Uiso   1.00
H815   H     0.19603   0.96504   0.77989   0.00000  Uiso   1.00
H816   H     0.15847   0.63602   0.71102   0.00000  Uiso   1.00
N817   N     0.25000   0.62624   0.83333   0.00000  Uiso   1.00
N818   N     0.25000   0.87377   0.83333   0.00000  Uiso   1.00
N819   N     0.12619   0.87585   0.84982   0.00000  Uiso   1.00
N820   N     0.36362   0.69093   0.95022   0.00000  Uiso   1.00
N821   N     0.36671   0.81080   0.71975   0.00000  Uiso   1.00
N822   N     0.12866   0.62451   0.85164   0.00000  Uiso   1.00
O823   O     0.18453   0.78974   0.83334   0.00000  Uiso   1.00
O824   O     0.30759   0.87193   0.89418   0.00000  Uiso   1.00
O825   O     0.28634   0.62689   0.91267   0.00000  Uiso   1.00
O826   O     0.19422   0.87225   0.77039   0.00000  Uiso   1.00
O827   O     0.31547   0.71026   0.83333   0.00000  Uiso   1.00
O828   O     0.31547   0.78974   0.83333   0.00000  Uiso   1.00
O829   O     0.18453   0.71026   0.83334   0.00000  Uiso   1.00
O830   O     0.25000   0.78973   0.76178   0.00000  Uiso   1.00
O831   O     0.25000   0.71027   0.90489   0.00000  Uiso   1.00
O832   O     0.25000   0.78973   0.90489   0.00000  Uiso   1.00
O833   O     0.25000   0.71027   0.76178   0.00000  Uiso   1.00
O834   O     0.21521   0.62869   0.75349   0.00000  Uiso   1.00
Zn835  Zn    0.25000   0.80307   0.83333   0.00000  Uiso   1.00
Zn836  Zn    0.25000   0.69693   0.83333   0.00000  Uiso   1.00
C837   C     0.66359   0.75004   0.83522   0.00000  Uiso   1.00
C838   C     0.72088   0.94727   0.80242   0.00000  Uiso   1.00
C839   C     0.75000   0.74999   0.73956   0.00000  Uiso   1.00
C840   C     0.75011   0.75003   0.92710   0.00000  Uiso   1.00
C841   C     0.75040   0.52655   0.83297   0.00000  Uiso   1.00
C842   C     0.75060   0.97313   0.83277   0.00000  Uiso   1.00
C843   C     0.75008   0.75001   0.68847   0.00000  Uiso   1.00
C844   C     0.75012   0.75008   0.97819   0.00000  Uiso   1.00
C845   C     0.54468   0.79215   0.83933   0.00000  Uiso   1.00
C846   C     0.95159   0.72764   0.87594   0.00000  Uiso   1.00
C847   C     0.95276   0.77150   0.79764   0.00000  Uiso   1.00
C848   C     0.83574   0.74993   0.83351   0.00000  Uiso   1.00
C849   C     0.54528   0.70712   0.84122   0.00000  Uiso   1.00
C850   C     0.59061   0.79302   0.84045   0.00000  Uiso   1.00
C851   C     0.90565   0.72787   0.87506   0.00000  Uiso   1.00
C852   C     0.90682   0.77171   0.79594   0.00000  Uiso   1.00
C853   C     0.59123   0.70669   0.84182   0.00000  Uiso   1.00
C854   C     0.61488   0.74996   0.83920   0.00000  Uiso   1.00
C855   C     0.88330   0.74976   0.83477   0.00000  Uiso   1.00
C856   C     0.52246   0.74953   0.83893   0.00000  Uiso   1.00
C857   C     0.97478   0.74942   0.83740   0.00000  Uiso   1.00
C858   C     0.67743   0.60807   0.73083   0.00000  Uiso   1.00
C859   C     0.73188   0.60248   0.79340   0.00000  Uiso   1.00
C860   C     0.79834   0.88078   0.94511   0.00000  Uiso   1.00
C861   C     0.76432   0.61736   0.95812   0.00000  Uiso   1.00
C862   C     0.70419   0.88177   0.71982   0.00000  Uiso   1.00
C863   C     0.61067   0.83891   0.84539   0.00000  Uiso   1.00
C864   C     0.88227   0.70727   0.91675   0.00000  Uiso   1.00
C865   C     0.88457   0.79346   0.75361   0.00000  Uiso   1.00
C866   C     0.61215   0.66107   0.84708   0.00000  Uiso   1.00
C867   C     0.77844   0.89739   0.86440   0.00000  Uiso   1.00
C868   C     0.76666   0.60212   0.87378   0.00000  Uiso   1.00
C869   C     0.72245   0.89758   0.80132   0.00000  Uiso   1.00
C870   C     0.73369   0.55253   0.79210   0.00000  Uiso   1.00
C871   C     0.78033   0.94704   0.86303   0.00000  Uiso   1.00
C872   C     0.76699   0.55238   0.87395   0.00000  Uiso   1.00
H873   H     0.52590   0.82482   0.83963   0.00000  Uiso   1.00
H874   H     0.65467   0.59201   0.75863   0.00000  Uiso   1.00
H875   H     0.68762   0.58185   0.70223   0.00000  Uiso   1.00
H876   H     0.76227   0.87723   0.95338   0.00000  Uiso   1.00
H877   H     0.81049   0.91601   0.95671   0.00000  Uiso   1.00
H878   H     0.81624   0.85431   0.96822   0.00000  Uiso   1.00
H879   H     0.72748   0.61928   0.95388   0.00000  Uiso   1.00
H880   H     0.77413   0.64440   0.98605   0.00000  Uiso   1.00
H881   H     0.77461   0.58279   0.97369   0.00000  Uiso   1.00
H882   H     0.68728   0.85523   0.69592   0.00000  Uiso   1.00
H883   H     0.74049   0.87895   0.71235   0.00000  Uiso   1.00
H884   H     0.96940   0.71132   0.90692   0.00000  Uiso   1.00
H885   H     0.69142   0.91690   0.70844   0.00000  Uiso   1.00
H886   H     0.97150   0.78798   0.76789   0.00000  Uiso   1.00
H887   H     0.52701   0.67430   0.84229   0.00000  Uiso   1.00
H888   H     0.72305   0.53422   0.75866   0.00000  Uiso   1.00
H889   H     0.80551   0.96455   0.88520   0.00000  Uiso   1.00
H890   H     0.78054   0.53435   0.90623   0.00000  Uiso   1.00
H891   H     0.69603   0.96504   0.77989   0.00000  Uiso   1.00
H892   H     0.65847   0.63602   0.71102   0.00000  Uiso   1.00
N893   N     0.75000   0.62624   0.83333   0.00000  Uiso   1.00
N894   N     0.75000   0.87377   0.83333   0.00000  Uiso   1.00
N895   N     0.62619   0.87585   0.84982   0.00000  Uiso   1.00
N896   N     0.86362   0.69093   0.95022   0.00000  Uiso   1.00
N897   N     0.86671   0.81080   0.71975   0.00000  Uiso   1.00
N898   N     0.62866   0.62451   0.85164   0.00000  Uiso   1.00
O899   O     0.68453   0.78974   0.83334   0.00000  Uiso   1.00
O900   O     0.80759   0.87193   0.89418   0.00000  Uiso   1.00
O901   O     0.78634   0.62689   0.91267   0.00000  Uiso   1.00
O902   O     0.69422   0.87225   0.77039   0.00000  Uiso   1.00
O903   O     0.81547   0.71026   0.83333   0.00000  Uiso   1.00
O904   O     0.81547   0.78974   0.83333   0.00000  Uiso   1.00
O905   O     0.68453   0.71026   0.83334   0.00000  Uiso   1.00
O906   O     0.75000   0.78973   0.76178   0.00000  Uiso   1.00
O907   O     0.75000   0.71027   0.90489   0.00000  Uiso   1.00
O908   O     0.75000   0.78973   0.90489   0.00000  Uiso   1.00
O909   O     0.75000   0.71027   0.76178   0.00000  Uiso   1.00
O910   O     0.71521   0.62869   0.75349   0.00000  Uiso   1.00
Zn911  Zn    0.75000   0.80307   0.83333   0.00000  Uiso   1.00
Zn912  Zn    0.75000   0.69693   0.83333   0.00000  Uiso   1.00
loop_
_geom_bond_atom_site_label_1
_geom_bond_atom_site_label_2
_geom_bond_distance
_geom_bond_site_symmetry_2
_ccdc_geom_bond_type
C1     C18     1.471   .     S
C1     O63     1.297   .     A
C1     O69     1.295   .     A
C2     H55     1.080   .     S
C2     C6      1.410   .     A
C2     C33     1.415   .     A
C3     C7      1.363   .     S
C3     O73     1.277   .     A
C3     O70     1.276   .     A
C4     O72     1.276   .     A
C4     C8      1.363   .     S
C4     O71     1.276   .     A
C5     C34     1.407   .     A
C5     C36     1.406   .     A
C5     C158    1.520   1_545 S
C6     C35     1.410   .     A
C6     C157    1.520   .     S
C7     C616    1.163   1_554 S
C8     C311    1.163   .     S
C9     C14     1.383   .     A
C9     C20     1.387   .     A
C9     H37     1.086   .     S
C10    C15     1.382   .     A
C10    C21     1.394   .     A
C10    H48     1.085   .     S
C11    C16     1.383   .     A
C11    H50     1.085   .     S
C11    C21     1.395   .     A
C12    O68     1.285   .     A
C12    O67     1.285   .     A
C12    C19     1.432   .     S
C13    C17     1.383   .     A
C13    C20     1.387   .     A
C13    H51     1.086   .     S
C14    C27     1.446   .     S
C14    C18     1.425   .     A
C15    C19     1.408   .     A
C15    C28     1.447   .     S
C16    C19     1.407   .     A
C16    C29     1.447   .     S
C17    C18     1.426   .     A
C17    C30     1.447   .     S
C20    C97     1.435   1_455 S
C21    C96     1.435   .     S
C22    H39     1.111   .     S
C22    O74     1.412   .     S
C22    H56     1.109   .     S
C22    H38     1.113   .     S
C23    C34     1.422   .     A
C23    N57     1.371   .     A
C23    O74     1.390   .     S
C24    H41     1.111   .     S
C24    H42     1.109   .     S
C24    O64     1.411   .     S
C24    H40     1.114   .     S
C25    H43     1.115   .     S
C25    H45     1.110   .     S
C25    O65     1.413   .     S
C25    H44     1.109   .     S
C26    O66     1.411   .     S
C26    H49     1.111   .     S
C26    H47     1.115   .     S
C26    H46     1.110   .     S
C27    N59     1.157   .     T
C28    N60     1.157   .     T
C29    N61     1.157   .     T
C30    N62     1.158   .     T
C31    N58     1.365   .     A
C31    C35     1.414   .     A
C31    O64     1.382   .     S
C32    N57     1.370   .     A
C32    C36     1.415   .     A
C32    O65     1.383   .     S
C33    N58     1.364   .     A
C33    O66     1.383   .     S
C34    H52     1.079   .     S
C35    H53     1.080   .     S
C36    H54     1.079   .     S
N57    Zn76    2.011   .     S
N58    Zn75    2.011   .     S
O63    Zn75    2.008   .     S
O67    Zn76    2.008   .     S
O68    Zn75    2.005   .     S
O69    Zn76    2.005   .     S
O70    Zn75    1.945   .     S
O71    Zn76    1.945   .     S
O72    Zn75    1.946   .     S
O73    Zn76    1.946   .     S
C77    C94     1.471   .     S
C77    O139    1.297   .     A
C77    O145    1.295   .     A
C78    H131    1.080   .     S
C78    C82     1.410   .     A
C78    C109    1.415   .     A
C79    C83     1.363   .     S
C79    O149    1.277   .     A
C79    O146    1.276   .     A
C80    O148    1.276   .     A
C80    C84     1.363   .     S
C80    O147    1.276   .     A
C81    C110    1.407   .     A
C81    C112    1.406   .     A
C81    C234    1.520   1_545 S
C82    C111    1.410   .     A
C82    C233    1.520   .     S
C83    C692    1.163   1_554 S
C84    C387    1.163   .     S
C85    C90     1.383   .     A
C85    C96     1.387   .     A
C85    H113    1.086   .     S
C86    C91     1.382   .     A
C86    C97     1.394   .     A
C86    H124    1.085   .     S
C87    C92     1.383   .     A
C87    H126    1.085   .     S
C87    C97     1.395   .     A
C88    O144    1.285   .     A
C88    O143    1.285   .     A
C88    C95     1.432   .     S
C89    C93     1.383   .     A
C89    C96     1.387   .     A
C89    H127    1.086   .     S
C90    C103    1.446   .     S
C90    C94     1.425   .     A
C91    C95     1.408   .     A
C91    C104    1.447   .     S
C92    C95     1.407   .     A
C92    C105    1.447   .     S
C93    C94     1.426   .     A
C93    C106    1.447   .     S
C97    C20     1.435   1_655 S
C98    H115    1.111   .     S
C98    O150    1.412   .     S
C98    H132    1.109   .     S
C98    H114    1.113   .     S
C99    C110    1.422   .     A
C99    N133    1.371   .     A
C99    O150    1.390   .     S
C100   H117    1.111   .     S
C100   H118    1.109   .     S
C100   O140    1.411   .     S
C100   H116    1.114   .     S
C101   H119    1.115   .     S
C101   H121    1.110   .     S
C101   O141    1.413   .     S
C101   H120    1.109   .     S
C102   O142    1.411   .     S
C102   H125    1.111   .     S
C102   H123    1.115   .     S
C102   H122    1.110   .     S
C103   N135    1.157   .     T
C104   N136    1.157   .     T
C105   N137    1.157   .     T
C106   N138    1.158   .     T
C107   N134    1.365   .     A
C107   C111    1.414   .     A
C107   O140    1.382   .     S
C108   N133    1.370   .     A
C108   C112    1.415   .     A
C108   O141    1.383   .     S
C109   N134    1.364   .     A
C109   O142    1.383   .     S
C110   H128    1.079   .     S
C111   H129    1.080   .     S
C112   H130    1.079   .     S
N133   Zn152   2.011   .     S
N134   Zn151   2.011   .     S
O139   Zn151   2.008   .     S
O143   Zn152   2.008   .     S
O144   Zn151   2.005   .     S
O145   Zn152   2.005   .     S
O146   Zn151   1.945   .     S
O147   Zn152   1.945   .     S
O148   Zn151   1.946   .     S
O149   Zn152   1.946   .     S
C153   C170    1.471   .     S
C153   O215    1.297   .     A
C153   O221    1.295   .     A
C154   H207    1.080   .     S
C154   C158    1.410   .     A
C154   C185    1.415   .     A
C155   C159    1.363   .     S
C155   O225    1.277   .     A
C155   O222    1.276   .     A
C156   O224    1.276   .     A
C156   C160    1.363   .     S
C156   O223    1.276   .     A
C157   C186    1.407   .     A
C157   C188    1.406   .     A
C158   C187    1.410   .     A
C158   C5      1.520   1_565 S
C159   C768    1.163   1_554 S
C160   C463    1.163   .     S
C161   C166    1.383   .     A
C161   C172    1.387   .     A
C161   H189    1.086   .     S
C162   C167    1.382   .     A
C162   C173    1.394   .     A
C162   H200    1.085   .     S
C163   C168    1.383   .     A
C163   H202    1.085   .     S
C163   C173    1.395   .     A
C164   O220    1.285   .     A
C164   O219    1.285   .     A
C164   C171    1.432   .     S
C165   C169    1.383   .     A
C165   C172    1.387   .     A
C165   H203    1.086   .     S
C166   C179    1.446   .     S
C166   C170    1.425   .     A
C167   C171    1.408   .     A
C167   C180    1.447   .     S
C168   C171    1.407   .     A
C168   C181    1.447   .     S
C169   C170    1.426   .     A
C169   C182    1.447   .     S
C172   C249    1.435   1_455 S
C173   C248    1.435   .     S
C174   H191    1.111   .     S
C174   O226    1.412   .     S
C174   H208    1.109   .     S
C174   H190    1.113   .     S
C175   C186    1.422   .     A
C175   N209    1.371   .     A
C175   O226    1.390   .     S
C176   H193    1.111   .     S
C176   H194    1.109   .     S
C176   O216    1.411   .     S
C176   H192    1.114   .     S
C177   H195    1.115   .     S
C177   H197    1.110   .     S
C177   O217    1.413   .     S
C177   H196    1.109   .     S
C178   O218    1.411   .     S
C178   H201    1.111   .     S
C178   H199    1.115   .     S
C178   H198    1.110   .     S
C179   N211    1.157   .     T
C180   N212    1.157   .     T
C181   N213    1.157   .     T
C182   N214    1.158   .     T
C183   N210    1.365   .     A
C183   C187    1.414   .     A
C183   O216    1.382   .     S
C184   N209    1.370   .     A
C184   C188    1.415   .     A
C184   O217    1.383   .     S
C185   N210    1.364   .     A
C185   O218    1.383   .     S
C186   H204    1.079   .     S
C187   H205    1.080   .     S
C188   H206    1.079   .     S
N209   Zn228   2.011   .     S
N210   Zn227   2.011   .     S
O215   Zn227   2.008   .     S
O219   Zn228   2.008   .     S
O220   Zn227   2.005   .     S
O221   Zn228   2.005   .     S
O222   Zn227   1.945   .     S
O223   Zn228   1.945   .     S
O224   Zn227   1.946   .     S
O225   Zn228   1.946   .     S
C229   C246    1.471   .     S
C229   O291    1.297   .     A
C229   O297    1.295   .     A
C230   H283    1.080   .     S
C230   C234    1.410   .     A
C230   C261    1.415   .     A
C231   C235    1.363   .     S
C231   O301    1.277   .     A
C231   O298    1.276   .     A
C232   O300    1.276   .     A
C232   C236    1.363   .     S
C232   O299    1.276   .     A
C233   C262    1.407   .     A
C233   C264    1.406   .     A
C234   C263    1.410   .     A
C234   C81     1.520   1_565 S
C235   C844    1.163   1_554 S
C236   C539    1.163   .     S
C237   C242    1.383   .     A
C237   C248    1.387   .     A
C237   H265    1.086   .     S
C238   C243    1.382   .     A
C238   C249    1.394   .     A
C238   H276    1.085   .     S
C239   C244    1.383   .     A
C239   H278    1.085   .     S
C239   C249    1.395   .     A
C240   O296    1.285   .     A
C240   O295    1.285   .     A
C240   C247    1.432   .     S
C241   C245    1.383   .     A
C241   C248    1.387   .     A
C241   H279    1.086   .     S
C242   C255    1.446   .     S
C242   C246    1.425   .     A
C243   C247    1.408   .     A
C243   C256    1.447   .     S
C244   C247    1.407   .     A
C244   C257    1.447   .     S
C245   C246    1.426   .     A
C245   C258    1.447   .     S
C249   C172    1.435   1_655 S
C250   H267    1.111   .     S
C250   O302    1.412   .     S
C250   H284    1.109   .     S
C250   H266    1.113   .     S
C251   C262    1.422   .     A
C251   N285    1.371   .     A
C251   O302    1.390   .     S
C252   H269    1.111   .     S
C252   H270    1.109   .     S
C252   O292    1.411   .     S
C252   H268    1.114   .     S
C253   H271    1.115   .     S
C253   H273    1.110   .     S
C253   O293    1.413   .     S
C253   H272    1.109   .     S
C254   O294    1.411   .     S
C254   H277    1.111   .     S
C254   H275    1.115   .     S
C254   H274    1.110   .     S
C255   N287    1.157   .     T
C256   N288    1.157   .     T
C257   N289    1.157   .     T
C258   N290    1.158   .     T
C259   N286    1.365   .     A
C259   C263    1.414   .     A
C259   O292    1.382   .     S
C260   N285    1.370   .     A
C260   C264    1.415   .     A
C260   O293    1.383   .     S
C261   N286    1.364   .     A
C261   O294    1.383   .     S
C262   H280    1.079   .     S
C263   H281    1.080   .     S
C264   H282    1.079   .     S
N285   Zn304   2.011   .     S
N286   Zn303   2.011   .     S
O291   Zn303   2.008   .     S
O295   Zn304   2.008   .     S
O296   Zn303   2.005   .     S
O297   Zn304   2.005   .     S
O298   Zn303   1.945   .     S
O299   Zn304   1.945   .     S
O300   Zn303   1.946   .     S
O301   Zn304   1.946   .     S
C305   C322    1.471   .     S
C305   O367    1.297   .     A
C305   O373    1.295   .     A
C306   H359    1.080   .     S
C306   C310    1.410   .     A
C306   C337    1.415   .     A
C307   C311    1.363   .     S
C307   O377    1.277   .     A
C307   O374    1.276   .     A
C308   O376    1.276   .     A
C308   C312    1.363   .     S
C308   O375    1.276   .     A
C309   C338    1.407   .     A
C309   C340    1.406   .     A
C309   C462    1.520   1_545 S
C310   C339    1.410   .     A
C310   C461    1.520   .     S
C312   C615    1.163   .     S
C313   C318    1.383   .     A
C313   C324    1.387   .     A
C313   H341    1.086   .     S
C314   C319    1.382   .     A
C314   C325    1.394   .     A
C314   H352    1.085   .     S
C315   C320    1.383   .     A
C315   H354    1.085   .     S
C315   C325    1.395   .     A
C316   O372    1.285   .     A
C316   O371    1.285   .     A
C316   C323    1.432   .     S
C317   C321    1.383   .     A
C317   C324    1.387   .     A
C317   H355    1.086   .     S
C318   C331    1.446   .     S
C318   C322    1.425   .     A
C319   C323    1.408   .     A
C319   C332    1.447   .     S
C320   C323    1.407   .     A
C320   C333    1.447   .     S
C321   C322    1.426   .     A
C321   C334    1.447   .     S
C324   C401    1.435   1_455 S
C325   C400    1.435   .     S
C326   H343    1.111   .     S
C326   O378    1.412   .     S
C326   H360    1.109   .     S
C326   H342    1.113   .     S
C327   C338    1.422   .     A
C327   N361    1.371   .     A
C327   O378    1.390   .     S
C328   H345    1.111   .     S
C328   H346    1.109   .     S
C328   O368    1.411   .     S
C328   H344    1.114   .     S
C329   H347    1.115   .     S
C329   H349    1.110   .     S
C329   O369    1.413   .     S
C329   H348    1.109   .     S
C330   O370    1.411   .     S
C330   H353    1.111   .     S
C330   H351    1.115   .     S
C330   H350    1.110   .     S
C331   N363    1.157   .     T
C332   N364    1.157   .     T
C333   N365    1.157   .     T
C334   N366    1.158   .     T
C335   N362    1.365   .     A
C335   C339    1.414   .     A
C335   O368    1.382   .     S
C336   N361    1.370   .     A
C336   C340    1.415   .     A
C336   O369    1.383   .     S
C337   N362    1.364   .     A
C337   O370    1.383   .     S
C338   H356    1.079   .     S
C339   H357    1.080   .     S
C340   H358    1.079   .     S
N361   Zn380   2.011   .     S
N362   Zn379   2.011   .     S
O367   Zn379   2.008   .     S
O371   Zn380   2.008   .     S
O372   Zn379   2.005   .     S
O373   Zn380   2.005   .     S
O374   Zn379   1.945   .     S
O375   Zn380   1.945   .     S
O376   Zn379   1.946   .     S
O377   Zn380   1.946   .     S
C381   C398    1.471   .     S
C381   O443    1.297   .     A
C381   O449    1.295   .     A
C382   H435    1.080   .     S
C382   C386    1.410   .     A
C382   C413    1.415   .     A
C383   C387    1.363   .     S
C383   O453    1.277   .     A
C383   O450    1.276   .     A
C384   O452    1.276   .     A
C384   C388    1.363   .     S
C384   O451    1.276   .     A
C385   C414    1.407   .     A
C385   C416    1.406   .     A
C385   C538    1.520   1_545 S
C386   C415    1.410   .     A
C386   C537    1.520   .     S
C388   C691    1.163   .     S
C389   C394    1.383   .     A
C389   C400    1.387   .     A
C389   H417    1.086   .     S
C390   C395    1.382   .     A
C390   C401    1.394   .     A
C390   H428    1.085   .     S
C391   C396    1.383   .     A
C391   H430    1.085   .     S
C391   C401    1.395   .     A
C392   O448    1.285   .     A
C392   O447    1.285   .     A
C392   C399    1.432   .     S
C393   C397    1.383   .     A
C393   C400    1.387   .     A
C393   H431    1.086   .     S
C394   C407    1.446   .     S
C394   C398    1.425   .     A
C395   C399    1.408   .     A
C395   C408    1.447   .     S
C396   C399    1.407   .     A
C396   C409    1.447   .     S
C397   C398    1.426   .     A
C397   C410    1.447   .     S
C401   C324    1.435   1_655 S
C402   H419    1.111   .     S
C402   O454    1.412   .     S
C402   H436    1.109   .     S
C402   H418    1.113   .     S
C403   C414    1.422   .     A
C403   N437    1.371   .     A
C403   O454    1.390   .     S
C404   H421    1.111   .     S
C404   H422    1.109   .     S
C404   O444    1.411   .     S
C404   H420    1.114   .     S
C405   H423    1.115   .     S
C405   H425    1.110   .     S
C405   O445    1.413   .     S
C405   H424    1.109   .     S
C406   O446    1.411   .     S
C406   H429    1.111   .     S
C406   H427    1.115   .     S
C406   H426    1.110   .     S
C407   N439    1.157   .     T
C408   N440    1.157   .     T
C409   N441    1.157   .     T
C410   N442    1.158   .     T
C411   N438    1.365   .     A
C411   C415    1.414   .     A
C411   O444    1.382   .     S
C412   N437    1.370   .     A
C412   C416    1.415   .     A
C412   O445    1.383   .     S
C413   N438    1.364   .     A
C413   O446    1.383   .     S
C414   H432    1.079   .     S
C415   H433    1.080   .     S
C416   H434    1.079   .     S
N437   Zn456   2.011   .     S
N438   Zn455   2.011   .     S
O443   Zn455   2.008   .     S
O447   Zn456   2.008   .     S
O448   Zn455   2.005   .     S
O449   Zn456   2.005   .     S
O450   Zn455   1.945   .     S
O451   Zn456   1.945   .     S
O452   Zn455   1.946   .     S
O453   Zn456   1.946   .     S
C457   C474    1.471   .     S
C457   O519    1.297   .     A
C457   O525    1.295   .     A
C458   H511    1.080   .     S
C458   C462    1.410   .     A
C458   C489    1.415   .     A
C459   C463    1.363   .     S
C459   O529    1.277   .     A
C459   O526    1.276   .     A
C460   O528    1.276   .     A
C460   C464    1.363   .     S
C460   O527    1.276   .     A
C461   C490    1.407   .     A
C461   C492    1.406   .     A
C462   C491    1.410   .     A
C462   C309    1.520   1_565 S
C464   C767    1.163   .     S
C465   C470    1.383   .     A
C465   C476    1.387   .     A
C465   H493    1.086   .     S
C466   C471    1.382   .     A
C466   C477    1.394   .     A
C466   H504    1.085   .     S
C467   C472    1.383   .     A
C467   H506    1.085   .     S
C467   C477    1.395   .     A
C468   O524    1.285   .     A
C468   O523    1.285   .     A
C468   C475    1.432   .     S
C469   C473    1.383   .     A
C469   C476    1.387   .     A
C469   H507    1.086   .     S
C470   C483    1.446   .     S
C470   C474    1.425   .     A
C471   C475    1.408   .     A
C471   C484    1.447   .     S
C472   C475    1.407   .     A
C472   C485    1.447   .     S
C473   C474    1.426   .     A
C473   C486    1.447   .     S
C476   C553    1.435   1_455 S
C477   C552    1.435   .     S
C478   H495    1.111   .     S
C478   O530    1.412   .     S
C478   H512    1.109   .     S
C478   H494    1.113   .     S
C479   C490    1.422   .     A
C479   N513    1.371   .     A
C479   O530    1.390   .     S
C480   H497    1.111   .     S
C480   H498    1.109   .     S
C480   O520    1.411   .     S
C480   H496    1.114   .     S
C481   H499    1.115   .     S
C481   H501    1.110   .     S
C481   O521    1.413   .     S
C481   H500    1.109   .     S
C482   O522    1.411   .     S
C482   H505    1.111   .     S
C482   H503    1.115   .     S
C482   H502    1.110   .     S
C483   N515    1.157   .     T
C484   N516    1.157   .     T
C485   N517    1.157   .     T
C486   N518    1.158   .     T
C487   N514    1.365   .     A
C487   C491    1.414   .     A
C487   O520    1.382   .     S
C488   N513    1.370   .     A
C488   C492    1.415   .     A
C488   O521    1.383   .     S
C489   N514    1.364   .     A
C489   O522    1.383   .     S
C490   H508    1.079   .     S
C491   H509    1.080   .     S
C492   H510    1.079   .     S
N513   Zn532   2.011   .     S
N514   Zn531   2.011   .     S
O519   Zn531   2.008   .     S
O523   Zn532   2.008   .     S
O524   Zn531   2.005   .     S
O525   Zn532   2.005   .     S
O526   Zn531   1.945   .     S
O527   Zn532   1.945   .     S
O528   Zn531   1.946   .     S
O529   Zn532   1.946   .     S
C533   C550    1.471   .     S
C533   O595    1.297   .     A
C533   O601    1.295   .     A
C534   H587    1.080   .     S
C534   C538    1.410   .     A
C534   C565    1.415   .     A
C535   C539    1.363   .     S
C535   O605    1.277   .     A
C535   O602    1.276   .     A
C536   O604    1.276   .     A
C536   C540    1.363   .     S
C536   O603    1.276   .     A
C537   C566    1.407   .     A
C537   C568    1.406   .     A
C538   C567    1.410   .     A
C538   C385    1.520   1_565 S
C540   C843    1.163   .     S
C541   C546    1.383   .     A
C541   C552    1.387   .     A
C541   H569    1.086   .     S
C542   C547    1.382   .     A
C542   C553    1.394   .     A
C542   H580    1.085   .     S
C543   C548    1.383   .     A
C543   H582    1.085   .     S
C543   C553    1.395   .     A
C544   O600    1.285   .     A
C544   O599    1.285   .     A
C544   C551    1.432   .     S
C545   C549    1.383   .     A
C545   C552    1.387   .     A
C545   H583    1.086   .     S
C546   C559    1.446   .     S
C546   C550    1.425   .     A
C547   C551    1.408   .     A
C547   C560    1.447   .     S
C548   C551    1.407   .     A
C548   C561    1.447   .     S
C549   C550    1.426   .     A
C549   C562    1.447   .     S
C553   C476    1.435   1_655 S
C554   H571    1.111   .     S
C554   O606    1.412   .     S
C554   H588    1.109   .     S
C554   H570    1.113   .     S
C555   C566    1.422   .     A
C555   N589    1.371   .     A
C555   O606    1.390   .     S
C556   H573    1.111   .     S
C556   H574    1.109   .     S
C556   O596    1.411   .     S
C556   H572    1.114   .     S
C557   H575    1.115   .     S
C557   H577    1.110   .     S
C557   O597    1.413   .     S
C557   H576    1.109   .     S
C558   O598    1.411   .     S
C558   H581    1.111   .     S
C558   H579    1.115   .     S
C558   H578    1.110   .     S
C559   N591    1.157   .     T
C560   N592    1.157   .     T
C561   N593    1.157   .     T
C562   N594    1.158   .     T
C563   N590    1.365   .     A
C563   C567    1.414   .     A
C563   O596    1.382   .     S
C564   N589    1.370   .     A
C564   C568    1.415   .     A
C564   O597    1.383   .     S
C565   N590    1.364   .     A
C565   O598    1.383   .     S
C566   H584    1.079   .     S
C567   H585    1.080   .     S
C568   H586    1.079   .     S
N589   Zn608   2.011   .     S
N590   Zn607   2.011   .     S
O595   Zn607   2.008   .     S
O599   Zn608   2.008   .     S
O600   Zn607   2.005   .     S
O601   Zn608   2.005   .     S
O602   Zn607   1.945   .     S
O603   Zn608   1.945   .     S
O604   Zn607   1.946   .     S
O605   Zn608   1.946   .     S
C609   C626    1.471   .     S
C609   O671    1.297   .     A
C609   O677    1.295   .     A
C610   H663    1.080   .     S
C610   C614    1.410   .     A
C610   C641    1.415   .     A
C611   C615    1.363   .     S
C611   O681    1.277   .     A
C611   O678    1.276   .     A
C612   O680    1.276   .     A
C612   C616    1.363   .     S
C612   O679    1.276   .     A
C613   C642    1.407   .     A
C613   C644    1.406   .     A
C613   C766    1.520   1_545 S
C614   C643    1.410   .     A
C614   C765    1.520   .     S
C616   C7      1.163   1_556 S
C617   C622    1.383   .     A
C617   C628    1.387   .     A
C617   H645    1.086   .     S
C618   C623    1.382   .     A
C618   C629    1.394   .     A
C618   H656    1.085   .     S
C619   C624    1.383   .     A
C619   H658    1.085   .     S
C619   C629    1.395   .     A
C620   O676    1.285   .     A
C620   O675    1.285   .     A
C620   C627    1.432   .     S
C621   C625    1.383   .     A
C621   C628    1.387   .     A
C621   H659    1.086   .     S
C622   C635    1.446   .     S
C622   C626    1.425   .     A
C623   C627    1.408   .     A
C623   C636    1.447   .     S
C624   C627    1.407   .     A
C624   C637    1.447   .     S
C625   C626    1.426   .     A
C625   C638    1.447   .     S
C628   C705    1.435   1_455 S
C629   C704    1.435   .     S
C630   H647    1.111   .     S
C630   O682    1.412   .     S
C630   H664    1.109   .     S
C630   H646    1.113   .     S
C631   C642    1.422   .     A
C631   N665    1.371   .     A
C631   O682    1.390   .     S
C632   H649    1.111   .     S
C632   H650    1.109   .     S
C632   O672    1.411   .     S
C632   H648    1.114   .     S
C633   H651    1.115   .     S
C633   H653    1.110   .     S
C633   O673    1.413   .     S
C633   H652    1.109   .     S
C634   O674    1.411   .     S
C634   H657    1.111   .     S
C634   H655    1.115   .     S
C634   H654    1.110   .     S
C635   N667    1.157   .     T
C636   N668    1.157   .     T
C637   N669    1.157   .     T
C638   N670    1.158   .     T
C639   N666    1.365   .     A
C639   C643    1.414   .     A
C639   O672    1.382   .     S
C640   N665    1.370   .     A
C640   C644    1.415   .     A
C640   O673    1.383   .     S
C641   N666    1.364   .     A
C641   O674    1.383   .     S
C642   H660    1.079   .     S
C643   H661    1.080   .     S
C644   H662    1.079   .     S
N665   Zn684   2.011   .     S
N666   Zn683   2.011   .     S
O671   Zn683   2.008   .     S
O675   Zn684   2.008   .     S
O676   Zn683   2.005   .     S
O677   Zn684   2.005   .     S
O678   Zn683   1.945   .     S
O679   Zn684   1.945   .     S
O680   Zn683   1.946   .     S
O681   Zn684   1.946   .     S
C685   C702    1.471   .     S
C685   O747    1.297   .     A
C685   O753    1.295   .     A
C686   H739    1.080   .     S
C686   C690    1.410   .     A
C686   C717    1.415   .     A
C687   C691    1.363   .     S
C687   O757    1.277   .     A
C687   O754    1.276   .     A
C688   O756    1.276   .     A
C688   C692    1.363   .     S
C688   O755    1.276   .     A
C689   C718    1.407   .     A
C689   C720    1.406   .     A
C689   C842    1.520   1_545 S
C690   C719    1.410   .     A
C690   C841    1.520   .     S
C692   C83     1.163   1_556 S
C693   C698    1.383   .     A
C693   C704    1.387   .     A
C693   H721    1.086   .     S
C694   C699    1.382   .     A
C694   C705    1.394   .     A
C694   H732    1.085   .     S
C695   C700    1.383   .     A
C695   H734    1.085   .     S
C695   C705    1.395   .     A
C696   O752    1.285   .     A
C696   O751    1.285   .     A
C696   C703    1.432   .     S
C697   C701    1.383   .     A
C697   C704    1.387   .     A
C697   H735    1.086   .     S
C698   C711    1.446   .     S
C698   C702    1.425   .     A
C699   C703    1.408   .     A
C699   C712    1.447   .     S
C700   C703    1.407   .     A
C700   C713    1.447   .     S
C701   C702    1.426   .     A
C701   C714    1.447   .     S
C705   C628    1.435   1_655 S
C706   H723    1.111   .     S
C706   O758    1.412   .     S
C706   H740    1.109   .     S
C706   H722    1.113   .     S
C707   C718    1.422   .     A
C707   N741    1.371   .     A
C707   O758    1.390   .     S
C708   H725    1.111   .     S
C708   H726    1.109   .     S
C708   O748    1.411   .     S
C708   H724    1.114   .     S
C709   H727    1.115   .     S
C709   H729    1.110   .     S
C709   O749    1.413   .     S
C709   H728    1.109   .     S
C710   O750    1.411   .     S
C710   H733    1.111   .     S
C710   H731    1.115   .     S
C710   H730    1.110   .     S
C711   N743    1.157   .     T
C712   N744    1.157   .     T
C713   N745    1.157   .     T
C714   N746    1.158   .     T
C715   N742    1.365   .     A
C715   C719    1.414   .     A
C715   O748    1.382   .     S
C716   N741    1.370   .     A
C716   C720    1.415   .     A
C716   O749    1.383   .     S
C717   N742    1.364   .     A
C717   O750    1.383   .     S
C718   H736    1.079   .     S
C719   H737    1.080   .     S
C720   H738    1.079   .     S
N741   Zn760   2.011   .     S
N742   Zn759   2.011   .     S
O747   Zn759   2.008   .     S
O751   Zn760   2.008   .     S
O752   Zn759   2.005   .     S
O753   Zn760   2.005   .     S
O754   Zn759   1.945   .     S
O755   Zn760   1.945   .     S
O756   Zn759   1.946   .     S
O757   Zn760   1.946   .     S
C761   C778    1.471   .     S
C761   O823    1.297   .     A
C761   O829    1.295   .     A
C762   H815    1.080   .     S
C762   C766    1.410   .     A
C762   C793    1.415   .     A
C763   C767    1.363   .     S
C763   O833    1.277   .     A
C763   O830    1.276   .     A
C764   O832    1.276   .     A
C764   C768    1.363   .     S
C764   O831    1.276   .     A
C765   C794    1.407   .     A
C765   C796    1.406   .     A
C766   C795    1.410   .     A
C766   C613    1.520   1_565 S
C768   C159    1.163   1_556 S
C769   C774    1.383   .     A
C769   C780    1.387   .     A
C769   H797    1.086   .     S
C770   C775    1.382   .     A
C770   C781    1.394   .     A
C770   H808    1.085   .     S
C771   C776    1.383   .     A
C771   H810    1.085   .     S
C771   C781    1.395   .     A
C772   O828    1.285   .     A
C772   O827    1.285   .     A
C772   C779    1.432   .     S
C773   C777    1.383   .     A
C773   C780    1.387   .     A
C773   H811    1.086   .     S
C774   C787    1.446   .     S
C774   C778    1.425   .     A
C775   C779    1.408   .     A
C775   C788    1.447   .     S
C776   C779    1.407   .     A
C776   C789    1.447   .     S
C777   C778    1.426   .     A
C777   C790    1.447   .     S
C780   C857    1.435   1_455 S
C781   C856    1.435   .     S
C782   H799    1.111   .     S
C782   O834    1.412   .     S
C782   H816    1.109   .     S
C782   H798    1.113   .     S
C783   C794    1.422   .     A
C783   N817    1.371   .     A
C783   O834    1.390   .     S
C784   H801    1.111   .     S
C784   H802    1.109   .     S
C784   O824    1.411   .     S
C784   H800    1.114   .     S
C785   H803    1.115   .     S
C785   H805    1.110   .     S
C785   O825    1.413   .     S
C785   H804    1.109   .     S
C786   O826    1.411   .     S
C786   H809    1.111   .     S
C786   H807    1.115   .     S
C786   H806    1.110   .     S
C787   N819    1.157   .     T
C788   N820    1.157   .     T
C789   N821    1.157   .     T
C790   N822    1.158   .     T
C791   N818    1.365   .     A
C791   C795    1.414   .     A
C791   O824    1.382   .     S
C792   N817    1.370   .     A
C792   C796    1.415   .     A
C792   O825    1.383   .     S
C793   N818    1.364   .     A
C793   O826    1.383   .     S
C794   H812    1.079   .     S
C795   H813    1.080   .     S
C796   H814    1.079   .     S
N817   Zn836   2.011   .     S
N818   Zn835   2.011   .     S
O823   Zn835   2.008   .     S
O827   Zn836   2.008   .     S
O828   Zn835   2.005   .     S
O829   Zn836   2.005   .     S
O830   Zn835   1.945   .     S
O831   Zn836   1.945   .     S
O832   Zn835   1.946   .     S
O833   Zn836   1.946   .     S
C837   C854    1.471   .     S
C837   O899    1.297   .     A
C837   O905    1.295   .     A
C838   H891    1.080   .     S
C838   C842    1.410   .     A
C838   C869    1.415   .     A
C839   C843    1.363   .     S
C839   O909    1.277   .     A
C839   O906    1.276   .     A
C840   O908    1.276   .     A
C840   C844    1.363   .     S
C840   O907    1.276   .     A
C841   C870    1.407   .     A
C841   C872    1.406   .     A
C842   C871    1.410   .     A
C842   C689    1.520   1_565 S
C844   C235    1.163   1_556 S
C845   C850    1.383   .     A
C845   C856    1.387   .     A
C845   H873    1.086   .     S
C846   C851    1.382   .     A
C846   C857    1.394   .     A
C846   H884    1.085   .     S
C847   C852    1.383   .     A
C847   H886    1.085   .     S
C847   C857    1.395   .     A
C848   O904    1.285   .     A
C848   O903    1.285   .     A
C848   C855    1.432   .     S
C849   C853    1.383   .     A
C849   C856    1.387   .     A
C849   H887    1.086   .     S
C850   C863    1.446   .     S
C850   C854    1.425   .     A
C851   C855    1.408   .     A
C851   C864    1.447   .     S
C852   C855    1.407   .     A
C852   C865    1.447   .     S
C853   C854    1.426   .     A
C853   C866    1.447   .     S
C857   C780    1.435   1_655 S
C858   H875    1.111   .     S
C858   O910    1.412   .     S
C858   H892    1.109   .     S
C858   H874    1.113   .     S
C859   C870    1.422   .     A
C859   N893    1.371   .     A
C859   O910    1.390   .     S
C860   H877    1.111   .     S
C860   H878    1.109   .     S
C860   O900    1.411   .     S
C860   H876    1.114   .     S
C861   H879    1.115   .     S
C861   H881    1.110   .     S
C861   O901    1.413   .     S
C861   H880    1.109   .     S
C862   O902    1.411   .     S
C862   H885    1.111   .     S
C862   H883    1.115   .     S
C862   H882    1.110   .     S
C863   N895    1.157   .     T
C864   N896    1.157   .     T
C865   N897    1.157   .     T
C866   N898    1.158   .     T
C867   N894    1.365   .     A
C867   C871    1.414   .     A
C867   O900    1.382   .     S
C868   N893    1.370   .     A
C868   C872    1.415   .     A
C868   O901    1.383   .     S
C869   N894    1.364   .     A
C869   O902    1.383   .     S
C870   H888    1.079   .     S
C871   H889    1.080   .     S
C872   H890    1.079   .     S
N893   Zn912   2.011   .     S
N894   Zn911   2.011   .     S
O899   Zn911   2.008   .     S
O903   Zn912   2.008   .     S
O904   Zn911   2.005   .     S
O905   Zn912   2.005   .     S
O906   Zn911   1.945   .     S
O907   Zn912   1.945   .     S
O908   Zn911   1.946   .     S
O909   Zn912   1.946   .     S
