data_str_m2_o10_o17_pcu_sym.163
_audit_creation_date              2020-01-03
_audit_creation_method            'Materials Studio'
_symmetry_space_group_name_H-M    'P1'
_symmetry_Int_Tables_number       1
_symmetry_cell_setting            triclinic
loop_
_symmetry_equiv_pos_as_xyz
  x,y,z
_cell_length_a                    29.9266
_cell_length_b                    26.0184
_cell_length_c                    22.3501
_cell_angle_alpha                 102.8775
_cell_angle_beta                  93.8225
_cell_angle_gamma                 92.4265
loop_
_atom_site_label
_atom_site_type_symbol
_atom_site_fract_x
_atom_site_fract_y
_atom_site_fract_z
_atom_site_U_iso_or_equiv
_atom_site_adp_type
_atom_site_occupancy
C1     C     0.24865   0.06660   0.15111   0.00000  Uiso   1.00
C2     C     0.25135   0.26674   0.18222   0.00000  Uiso   1.00
C3     C     0.01615   0.07291   0.11118   0.00000  Uiso   1.00
C4     C     0.48385   0.26042   0.22216   0.00000  Uiso   1.00
C5     C     0.24799   0.01062   0.14235   0.00000  Uiso   1.00
C6     C     0.25201   0.32271   0.19098   0.00000  Uiso   1.00
C7     C     0.16455   0.16632   0.16764   0.00000  Uiso   1.00
C8     C     0.33545   0.16701   0.16569   0.00000  Uiso   1.00
C9     C     0.40955   0.21287   0.19448   0.00000  Uiso   1.00
C10    C     0.09045   0.12046   0.13886   0.00000  Uiso   1.00
C11    C     0.38354   0.16789   0.16351   0.00000  Uiso   1.00
C12    C     0.11646   0.16545   0.16982   0.00000  Uiso   1.00
C13    C     0.40324   0.12325   0.13231   0.00000  Uiso   1.00
C14    C     0.09676   0.21009   0.20103   0.00000  Uiso   1.00
C15    C     0.44976   0.12221   0.13432   0.00000  Uiso   1.00
C16    C     0.05024   0.21112   0.19901   0.00000  Uiso   1.00
C17    C     0.47657   0.16753   0.16535   0.00000  Uiso   1.00
C18    C     0.02343   0.16580   0.16798   0.00000  Uiso   1.00
C19    C     0.45641   0.21441   0.19375   0.00000  Uiso   1.00
C20    C     0.04359   0.11892   0.13959   0.00000  Uiso   1.00
C21    C     0.46956   0.07584   0.10740   0.00000  Uiso   1.00
C22    C     0.03044   0.25750   0.22594   0.00000  Uiso   1.00
Cu23   Cu    0.25500   0.17246   0.22813   0.00000  Uiso   1.00
Cu24   Cu    0.24499   0.16087   0.10521   0.00000  Uiso   1.00
H25    H     0.39258   0.24578   0.21963   0.00000  Uiso   1.00
H26    H     0.10742   0.08755   0.11371   0.00000  Uiso   1.00
H27    H     0.38227   0.08861   0.10891   0.00000  Uiso   1.00
H28    H     0.11773   0.24473   0.22442   0.00000  Uiso   1.00
H29    H     0.44842   0.04098   0.08517   0.00000  Uiso   1.00
H30    H     0.05158   0.29235   0.24817   0.00000  Uiso   1.00
H31    H     0.24420   0.32013   0.09548   0.00000  Uiso   1.00
H32    H     0.25580   0.01321   0.23785   0.00000  Uiso   1.00
H33    H     0.21503   0.12594   0.31629   0.00000  Uiso   1.00
H34    H     0.28497   0.20739   0.01704   0.00000  Uiso   1.00
N35    N     0.23744   0.15214   0.01284   0.00000  Uiso   1.00
N36    N     0.26255   0.18119   0.32049   0.00000  Uiso   1.00
O37    O     0.25325   0.09538   0.20659   0.00000  Uiso   1.00
O38    O     0.24674   0.23796   0.12674   0.00000  Uiso   1.00
O39    O     0.24480   0.08559   0.10279   0.00000  Uiso   1.00
O40    O     0.25520   0.24774   0.23055   0.00000  Uiso   1.00
O41    O     0.18935   0.17155   0.21857   0.00000  Uiso   1.00
O42    O     0.31064   0.16179   0.11476   0.00000  Uiso   1.00
O43    O     0.18090   0.16176   0.11477   0.00000  Uiso   1.00
O44    O     0.31910   0.17157   0.21857   0.00000  Uiso   1.00
C45    C     0.03362   0.02026   0.08711   0.00000  Uiso   1.00
H46    H     0.01431   0.32538   0.05042   0.00000  Uiso   1.00
O47    O     0.06771   0.00628   0.11041   0.00000  Uiso   1.00
C48    C     0.46638   0.31307   0.24624   0.00000  Uiso   1.00
H49    H     0.48570   0.00795   0.28292   0.00000  Uiso   1.00
O50    O     0.43229   0.32705   0.22294   0.00000  Uiso   1.00
C51    C     0.74865   0.06660   0.15111   0.00000  Uiso   1.00
C52    C     0.75135   0.26674   0.18222   0.00000  Uiso   1.00
C53    C     0.51615   0.07291   0.11118   0.00000  Uiso   1.00
C54    C     0.98385   0.26042   0.22216   0.00000  Uiso   1.00
C55    C     0.74799   0.01062   0.14235   0.00000  Uiso   1.00
C56    C     0.75201   0.32271   0.19098   0.00000  Uiso   1.00
C57    C     0.66455   0.16632   0.16764   0.00000  Uiso   1.00
C58    C     0.83545   0.16701   0.16569   0.00000  Uiso   1.00
C59    C     0.90955   0.21287   0.19448   0.00000  Uiso   1.00
C60    C     0.59045   0.12046   0.13886   0.00000  Uiso   1.00
C61    C     0.88354   0.16789   0.16351   0.00000  Uiso   1.00
C62    C     0.61646   0.16545   0.16982   0.00000  Uiso   1.00
C63    C     0.90324   0.12325   0.13231   0.00000  Uiso   1.00
C64    C     0.59676   0.21009   0.20103   0.00000  Uiso   1.00
C65    C     0.94976   0.12221   0.13432   0.00000  Uiso   1.00
C66    C     0.55024   0.21112   0.19901   0.00000  Uiso   1.00
C67    C     0.97657   0.16753   0.16535   0.00000  Uiso   1.00
C68    C     0.52343   0.16580   0.16798   0.00000  Uiso   1.00
C69    C     0.95641   0.21441   0.19375   0.00000  Uiso   1.00
C70    C     0.54359   0.11892   0.13959   0.00000  Uiso   1.00
C71    C     0.96956   0.07584   0.10740   0.00000  Uiso   1.00
C72    C     0.53044   0.25750   0.22594   0.00000  Uiso   1.00
Cu73   Cu    0.75500   0.17246   0.22813   0.00000  Uiso   1.00
Cu74   Cu    0.74499   0.16087   0.10521   0.00000  Uiso   1.00
H75    H     0.89258   0.24578   0.21963   0.00000  Uiso   1.00
H76    H     0.60742   0.08755   0.11371   0.00000  Uiso   1.00
H77    H     0.88227   0.08861   0.10891   0.00000  Uiso   1.00
H78    H     0.61773   0.24473   0.22442   0.00000  Uiso   1.00
H79    H     0.94842   0.04098   0.08517   0.00000  Uiso   1.00
H80    H     0.55158   0.29235   0.24817   0.00000  Uiso   1.00
H81    H     0.74420   0.32013   0.09548   0.00000  Uiso   1.00
H82    H     0.75580   0.01321   0.23785   0.00000  Uiso   1.00
H83    H     0.71503   0.12594   0.31629   0.00000  Uiso   1.00
H84    H     0.78497   0.20739   0.01704   0.00000  Uiso   1.00
N85    N     0.73744   0.15214   0.01284   0.00000  Uiso   1.00
N86    N     0.76255   0.18119   0.32049   0.00000  Uiso   1.00
O87    O     0.75325   0.09538   0.20659   0.00000  Uiso   1.00
O88    O     0.74674   0.23796   0.12674   0.00000  Uiso   1.00
O89    O     0.74480   0.08559   0.10279   0.00000  Uiso   1.00
O90    O     0.75520   0.24774   0.23055   0.00000  Uiso   1.00
O91    O     0.68935   0.17155   0.21857   0.00000  Uiso   1.00
O92    O     0.81064   0.16179   0.11476   0.00000  Uiso   1.00
O93    O     0.68090   0.16176   0.11477   0.00000  Uiso   1.00
O94    O     0.81910   0.17157   0.21857   0.00000  Uiso   1.00
C95    C     0.53362   0.02026   0.08711   0.00000  Uiso   1.00
H96    H     0.51431   0.32538   0.05042   0.00000  Uiso   1.00
O97    O     0.56771   0.00628   0.11041   0.00000  Uiso   1.00
C98    C     0.96638   0.31307   0.24624   0.00000  Uiso   1.00
H99    H     0.98570   0.00795   0.28292   0.00000  Uiso   1.00
O100   O     0.93229   0.32705   0.22294   0.00000  Uiso   1.00
C101   C     0.24865   0.39993   0.15111   0.00000  Uiso   1.00
C102   C     0.25135   0.60007   0.18222   0.00000  Uiso   1.00
C103   C     0.01615   0.40624   0.11118   0.00000  Uiso   1.00
C104   C     0.48385   0.59375   0.22216   0.00000  Uiso   1.00
C105   C     0.24799   0.34396   0.14235   0.00000  Uiso   1.00
C106   C     0.25201   0.65604   0.19098   0.00000  Uiso   1.00
C107   C     0.16455   0.49965   0.16764   0.00000  Uiso   1.00
C108   C     0.33545   0.50035   0.16569   0.00000  Uiso   1.00
C109   C     0.40955   0.54620   0.19448   0.00000  Uiso   1.00
C110   C     0.09045   0.45380   0.13886   0.00000  Uiso   1.00
C111   C     0.38354   0.50122   0.16351   0.00000  Uiso   1.00
C112   C     0.11646   0.49878   0.16982   0.00000  Uiso   1.00
C113   C     0.40324   0.45658   0.13231   0.00000  Uiso   1.00
C114   C     0.09676   0.54342   0.20103   0.00000  Uiso   1.00
C115   C     0.44976   0.45555   0.13432   0.00000  Uiso   1.00
C116   C     0.05024   0.54446   0.19901   0.00000  Uiso   1.00
C117   C     0.47657   0.50087   0.16535   0.00000  Uiso   1.00
C118   C     0.02343   0.49913   0.16798   0.00000  Uiso   1.00
C119   C     0.45641   0.54775   0.19375   0.00000  Uiso   1.00
C120   C     0.04359   0.45225   0.13959   0.00000  Uiso   1.00
C121   C     0.46956   0.40917   0.10740   0.00000  Uiso   1.00
C122   C     0.03044   0.59083   0.22594   0.00000  Uiso   1.00
Cu123  Cu    0.25500   0.50579   0.22813   0.00000  Uiso   1.00
Cu124  Cu    0.24499   0.49421   0.10521   0.00000  Uiso   1.00
H125   H     0.39258   0.57911   0.21963   0.00000  Uiso   1.00
H126   H     0.10742   0.42088   0.11371   0.00000  Uiso   1.00
H127   H     0.38227   0.42194   0.10891   0.00000  Uiso   1.00
H128   H     0.11773   0.57806   0.22442   0.00000  Uiso   1.00
H129   H     0.44842   0.37431   0.08517   0.00000  Uiso   1.00
H130   H     0.05158   0.62569   0.24817   0.00000  Uiso   1.00
H131   H     0.24420   0.65346   0.09548   0.00000  Uiso   1.00
H132   H     0.25580   0.34654   0.23785   0.00000  Uiso   1.00
H133   H     0.21503   0.45927   0.31629   0.00000  Uiso   1.00
H134   H     0.28497   0.54073   0.01704   0.00000  Uiso   1.00
N135   N     0.23744   0.48547   0.01284   0.00000  Uiso   1.00
N136   N     0.26255   0.51453   0.32049   0.00000  Uiso   1.00
O137   O     0.25325   0.42871   0.20659   0.00000  Uiso   1.00
O138   O     0.24674   0.57129   0.12674   0.00000  Uiso   1.00
O139   O     0.24480   0.41892   0.10279   0.00000  Uiso   1.00
O140   O     0.25520   0.58108   0.23055   0.00000  Uiso   1.00
O141   O     0.18935   0.50488   0.21857   0.00000  Uiso   1.00
O142   O     0.31064   0.49512   0.11476   0.00000  Uiso   1.00
O143   O     0.18090   0.49510   0.11477   0.00000  Uiso   1.00
O144   O     0.31910   0.50490   0.21857   0.00000  Uiso   1.00
C145   C     0.03362   0.35360   0.08711   0.00000  Uiso   1.00
H146   H     0.01431   0.65871   0.05042   0.00000  Uiso   1.00
O147   O     0.06771   0.33962   0.11041   0.00000  Uiso   1.00
C148   C     0.46638   0.64640   0.24624   0.00000  Uiso   1.00
H149   H     0.48570   0.34128   0.28292   0.00000  Uiso   1.00
O150   O     0.43229   0.66038   0.22294   0.00000  Uiso   1.00
C151   C     0.74865   0.39993   0.15111   0.00000  Uiso   1.00
C152   C     0.75135   0.60007   0.18222   0.00000  Uiso   1.00
C153   C     0.51615   0.40624   0.11118   0.00000  Uiso   1.00
C154   C     0.98385   0.59375   0.22216   0.00000  Uiso   1.00
C155   C     0.74799   0.34396   0.14235   0.00000  Uiso   1.00
C156   C     0.75201   0.65604   0.19098   0.00000  Uiso   1.00
C157   C     0.66455   0.49965   0.16764   0.00000  Uiso   1.00
C158   C     0.83545   0.50035   0.16569   0.00000  Uiso   1.00
C159   C     0.90955   0.54620   0.19448   0.00000  Uiso   1.00
C160   C     0.59045   0.45380   0.13886   0.00000  Uiso   1.00
C161   C     0.88354   0.50122   0.16351   0.00000  Uiso   1.00
C162   C     0.61646   0.49878   0.16982   0.00000  Uiso   1.00
C163   C     0.90324   0.45658   0.13231   0.00000  Uiso   1.00
C164   C     0.59676   0.54342   0.20103   0.00000  Uiso   1.00
C165   C     0.94976   0.45555   0.13432   0.00000  Uiso   1.00
C166   C     0.55024   0.54446   0.19901   0.00000  Uiso   1.00
C167   C     0.97657   0.50087   0.16535   0.00000  Uiso   1.00
C168   C     0.52343   0.49913   0.16798   0.00000  Uiso   1.00
C169   C     0.95641   0.54775   0.19375   0.00000  Uiso   1.00
C170   C     0.54359   0.45225   0.13959   0.00000  Uiso   1.00
C171   C     0.96956   0.40917   0.10740   0.00000  Uiso   1.00
C172   C     0.53044   0.59083   0.22594   0.00000  Uiso   1.00
Cu173  Cu    0.75500   0.50579   0.22813   0.00000  Uiso   1.00
Cu174  Cu    0.74499   0.49421   0.10521   0.00000  Uiso   1.00
H175   H     0.89258   0.57911   0.21963   0.00000  Uiso   1.00
H176   H     0.60742   0.42088   0.11371   0.00000  Uiso   1.00
H177   H     0.88227   0.42194   0.10891   0.00000  Uiso   1.00
H178   H     0.61773   0.57806   0.22442   0.00000  Uiso   1.00
H179   H     0.94842   0.37431   0.08517   0.00000  Uiso   1.00
H180   H     0.55158   0.62569   0.24817   0.00000  Uiso   1.00
H181   H     0.74420   0.65346   0.09548   0.00000  Uiso   1.00
H182   H     0.75580   0.34654   0.23785   0.00000  Uiso   1.00
H183   H     0.71503   0.45927   0.31629   0.00000  Uiso   1.00
H184   H     0.78497   0.54073   0.01704   0.00000  Uiso   1.00
N185   N     0.73744   0.48547   0.01284   0.00000  Uiso   1.00
N186   N     0.76255   0.51453   0.32049   0.00000  Uiso   1.00
O187   O     0.75325   0.42871   0.20659   0.00000  Uiso   1.00
O188   O     0.74674   0.57129   0.12674   0.00000  Uiso   1.00
O189   O     0.74480   0.41892   0.10279   0.00000  Uiso   1.00
O190   O     0.75520   0.58108   0.23055   0.00000  Uiso   1.00
O191   O     0.68935   0.50488   0.21857   0.00000  Uiso   1.00
O192   O     0.81064   0.49512   0.11476   0.00000  Uiso   1.00
O193   O     0.68090   0.49510   0.11477   0.00000  Uiso   1.00
O194   O     0.81910   0.50490   0.21857   0.00000  Uiso   1.00
C195   C     0.53362   0.35360   0.08711   0.00000  Uiso   1.00
H196   H     0.51431   0.65871   0.05042   0.00000  Uiso   1.00
O197   O     0.56771   0.33962   0.11041   0.00000  Uiso   1.00
C198   C     0.96638   0.64640   0.24624   0.00000  Uiso   1.00
H199   H     0.98570   0.34128   0.28292   0.00000  Uiso   1.00
O200   O     0.93229   0.66038   0.22294   0.00000  Uiso   1.00
C201   C     0.24865   0.73326   0.15111   0.00000  Uiso   1.00
C202   C     0.25135   0.93340   0.18222   0.00000  Uiso   1.00
C203   C     0.01615   0.73958   0.11118   0.00000  Uiso   1.00
C204   C     0.48385   0.92709   0.22216   0.00000  Uiso   1.00
C205   C     0.24799   0.67729   0.14235   0.00000  Uiso   1.00
C206   C     0.25201   0.98938   0.19098   0.00000  Uiso   1.00
C207   C     0.16455   0.83299   0.16764   0.00000  Uiso   1.00
C208   C     0.33545   0.83368   0.16569   0.00000  Uiso   1.00
C209   C     0.40955   0.87954   0.19448   0.00000  Uiso   1.00
C210   C     0.09045   0.78713   0.13886   0.00000  Uiso   1.00
C211   C     0.38354   0.83455   0.16351   0.00000  Uiso   1.00
C212   C     0.11646   0.83211   0.16982   0.00000  Uiso   1.00
C213   C     0.40324   0.78991   0.13231   0.00000  Uiso   1.00
C214   C     0.09676   0.87675   0.20103   0.00000  Uiso   1.00
C215   C     0.44976   0.78888   0.13432   0.00000  Uiso   1.00
C216   C     0.05024   0.87779   0.19901   0.00000  Uiso   1.00
C217   C     0.47657   0.83420   0.16535   0.00000  Uiso   1.00
C218   C     0.02343   0.83247   0.16798   0.00000  Uiso   1.00
C219   C     0.45641   0.88108   0.19375   0.00000  Uiso   1.00
C220   C     0.04359   0.78559   0.13959   0.00000  Uiso   1.00
C221   C     0.46956   0.74250   0.10740   0.00000  Uiso   1.00
C222   C     0.03044   0.92416   0.22594   0.00000  Uiso   1.00
Cu223  Cu    0.25500   0.83913   0.22813   0.00000  Uiso   1.00
Cu224  Cu    0.24499   0.82754   0.10521   0.00000  Uiso   1.00
H225   H     0.39258   0.91245   0.21963   0.00000  Uiso   1.00
H226   H     0.10742   0.75422   0.11371   0.00000  Uiso   1.00
H227   H     0.38227   0.75527   0.10891   0.00000  Uiso   1.00
H228   H     0.11773   0.91139   0.22442   0.00000  Uiso   1.00
H229   H     0.44842   0.70764   0.08517   0.00000  Uiso   1.00
H230   H     0.05158   0.95902   0.24817   0.00000  Uiso   1.00
H231   H     0.24420   0.98679   0.09548   0.00000  Uiso   1.00
H232   H     0.25580   0.67987   0.23785   0.00000  Uiso   1.00
H233   H     0.21503   0.79261   0.31629   0.00000  Uiso   1.00
H234   H     0.28497   0.87406   0.01704   0.00000  Uiso   1.00
N235   N     0.23744   0.81881   0.01284   0.00000  Uiso   1.00
N236   N     0.26255   0.84786   0.32049   0.00000  Uiso   1.00
O237   O     0.25325   0.76204   0.20659   0.00000  Uiso   1.00
O238   O     0.24674   0.90462   0.12674   0.00000  Uiso   1.00
O239   O     0.24480   0.75226   0.10279   0.00000  Uiso   1.00
O240   O     0.25520   0.91441   0.23055   0.00000  Uiso   1.00
O241   O     0.18935   0.83821   0.21857   0.00000  Uiso   1.00
O242   O     0.31064   0.82845   0.11476   0.00000  Uiso   1.00
O243   O     0.18090   0.82843   0.11477   0.00000  Uiso   1.00
O244   O     0.31910   0.83824   0.21857   0.00000  Uiso   1.00
C245   C     0.03362   0.68693   0.08711   0.00000  Uiso   1.00
H246   H     0.01431   0.99205   0.05042   0.00000  Uiso   1.00
O247   O     0.06771   0.67295   0.11041   0.00000  Uiso   1.00
C248   C     0.46638   0.97974   0.24624   0.00000  Uiso   1.00
H249   H     0.48570   0.67462   0.28292   0.00000  Uiso   1.00
O250   O     0.43229   0.99372   0.22294   0.00000  Uiso   1.00
C251   C     0.74865   0.73326   0.15111   0.00000  Uiso   1.00
C252   C     0.75135   0.93340   0.18222   0.00000  Uiso   1.00
C253   C     0.51615   0.73958   0.11118   0.00000  Uiso   1.00
C254   C     0.98385   0.92709   0.22216   0.00000  Uiso   1.00
C255   C     0.74799   0.67729   0.14235   0.00000  Uiso   1.00
C256   C     0.75201   0.98938   0.19098   0.00000  Uiso   1.00
C257   C     0.66455   0.83299   0.16764   0.00000  Uiso   1.00
C258   C     0.83545   0.83368   0.16569   0.00000  Uiso   1.00
C259   C     0.90955   0.87954   0.19448   0.00000  Uiso   1.00
C260   C     0.59045   0.78713   0.13886   0.00000  Uiso   1.00
C261   C     0.88354   0.83455   0.16351   0.00000  Uiso   1.00
C262   C     0.61646   0.83211   0.16982   0.00000  Uiso   1.00
C263   C     0.90324   0.78991   0.13231   0.00000  Uiso   1.00
C264   C     0.59676   0.87675   0.20103   0.00000  Uiso   1.00
C265   C     0.94976   0.78888   0.13432   0.00000  Uiso   1.00
C266   C     0.55024   0.87779   0.19901   0.00000  Uiso   1.00
C267   C     0.97657   0.83420   0.16535   0.00000  Uiso   1.00
C268   C     0.52343   0.83247   0.16798   0.00000  Uiso   1.00
C269   C     0.95641   0.88108   0.19375   0.00000  Uiso   1.00
C270   C     0.54359   0.78559   0.13959   0.00000  Uiso   1.00
C271   C     0.96956   0.74250   0.10740   0.00000  Uiso   1.00
C272   C     0.53044   0.92416   0.22594   0.00000  Uiso   1.00
Cu273  Cu    0.75500   0.83913   0.22813   0.00000  Uiso   1.00
Cu274  Cu    0.74499   0.82754   0.10521   0.00000  Uiso   1.00
H275   H     0.89258   0.91245   0.21963   0.00000  Uiso   1.00
H276   H     0.60742   0.75422   0.11371   0.00000  Uiso   1.00
H277   H     0.88227   0.75527   0.10891   0.00000  Uiso   1.00
H278   H     0.61773   0.91139   0.22442   0.00000  Uiso   1.00
H279   H     0.94842   0.70764   0.08517   0.00000  Uiso   1.00
H280   H     0.55158   0.95902   0.24817   0.00000  Uiso   1.00
H281   H     0.74420   0.98679   0.09548   0.00000  Uiso   1.00
H282   H     0.75580   0.67987   0.23785   0.00000  Uiso   1.00
H283   H     0.71503   0.79261   0.31629   0.00000  Uiso   1.00
H284   H     0.78497   0.87406   0.01704   0.00000  Uiso   1.00
N285   N     0.73744   0.81881   0.01284   0.00000  Uiso   1.00
N286   N     0.76255   0.84786   0.32049   0.00000  Uiso   1.00
O287   O     0.75325   0.76204   0.20659   0.00000  Uiso   1.00
O288   O     0.74674   0.90462   0.12674   0.00000  Uiso   1.00
O289   O     0.74480   0.75226   0.10279   0.00000  Uiso   1.00
O290   O     0.75520   0.91441   0.23055   0.00000  Uiso   1.00
O291   O     0.68935   0.83821   0.21857   0.00000  Uiso   1.00
O292   O     0.81064   0.82845   0.11476   0.00000  Uiso   1.00
O293   O     0.68090   0.82843   0.11477   0.00000  Uiso   1.00
O294   O     0.81910   0.83824   0.21857   0.00000  Uiso   1.00
C295   C     0.53362   0.68693   0.08711   0.00000  Uiso   1.00
H296   H     0.51431   0.99205   0.05042   0.00000  Uiso   1.00
O297   O     0.56771   0.67295   0.11041   0.00000  Uiso   1.00
C298   C     0.96638   0.97974   0.24624   0.00000  Uiso   1.00
H299   H     0.98570   0.67462   0.28292   0.00000  Uiso   1.00
O300   O     0.93229   0.99372   0.22294   0.00000  Uiso   1.00
C301   C     0.24865   0.06660   0.48444   0.00000  Uiso   1.00
C302   C     0.25135   0.26674   0.51556   0.00000  Uiso   1.00
C303   C     0.01615   0.07291   0.44451   0.00000  Uiso   1.00
C304   C     0.48385   0.26042   0.55549   0.00000  Uiso   1.00
C305   C     0.24799   0.01062   0.47569   0.00000  Uiso   1.00
C306   C     0.25201   0.32271   0.52431   0.00000  Uiso   1.00
C307   C     0.16455   0.16632   0.50098   0.00000  Uiso   1.00
C308   C     0.33545   0.16701   0.49902   0.00000  Uiso   1.00
C309   C     0.40955   0.21287   0.52781   0.00000  Uiso   1.00
C310   C     0.09045   0.12046   0.47219   0.00000  Uiso   1.00
C311   C     0.38354   0.16789   0.49685   0.00000  Uiso   1.00
C312   C     0.11646   0.16545   0.50315   0.00000  Uiso   1.00
C313   C     0.40324   0.12325   0.46564   0.00000  Uiso   1.00
C314   C     0.09676   0.21009   0.53436   0.00000  Uiso   1.00
C315   C     0.44976   0.12221   0.46766   0.00000  Uiso   1.00
C316   C     0.05024   0.21112   0.53234   0.00000  Uiso   1.00
C317   C     0.47657   0.16753   0.49868   0.00000  Uiso   1.00
C318   C     0.02343   0.16580   0.50132   0.00000  Uiso   1.00
C319   C     0.45641   0.21441   0.52708   0.00000  Uiso   1.00
C320   C     0.04359   0.11892   0.47292   0.00000  Uiso   1.00
C321   C     0.46956   0.07584   0.44073   0.00000  Uiso   1.00
C322   C     0.03044   0.25750   0.55927   0.00000  Uiso   1.00
Cu323  Cu    0.25500   0.17246   0.56146   0.00000  Uiso   1.00
Cu324  Cu    0.24499   0.16087   0.43854   0.00000  Uiso   1.00
H325   H     0.39258   0.24578   0.55296   0.00000  Uiso   1.00
H326   H     0.10742   0.08755   0.44704   0.00000  Uiso   1.00
H327   H     0.38227   0.08861   0.44225   0.00000  Uiso   1.00
H328   H     0.11773   0.24473   0.55775   0.00000  Uiso   1.00
H329   H     0.44842   0.04098   0.41850   0.00000  Uiso   1.00
H330   H     0.05158   0.29235   0.58150   0.00000  Uiso   1.00
H331   H     0.24420   0.32013   0.42882   0.00000  Uiso   1.00
H332   H     0.25580   0.01321   0.57118   0.00000  Uiso   1.00
H333   H     0.21503   0.12594   0.64963   0.00000  Uiso   1.00
H334   H     0.28497   0.20739   0.35037   0.00000  Uiso   1.00
N335   N     0.23744   0.15214   0.34617   0.00000  Uiso   1.00
N336   N     0.26255   0.18119   0.65383   0.00000  Uiso   1.00
O337   O     0.25325   0.09538   0.53992   0.00000  Uiso   1.00
O338   O     0.24674   0.23796   0.46008   0.00000  Uiso   1.00
O339   O     0.24480   0.08559   0.43612   0.00000  Uiso   1.00
O340   O     0.25520   0.24774   0.56388   0.00000  Uiso   1.00
O341   O     0.18935   0.17155   0.55191   0.00000  Uiso   1.00
O342   O     0.31064   0.16179   0.44809   0.00000  Uiso   1.00
O343   O     0.18090   0.16176   0.44810   0.00000  Uiso   1.00
O344   O     0.31910   0.17157   0.55190   0.00000  Uiso   1.00
C345   C     0.03362   0.02026   0.42044   0.00000  Uiso   1.00
H346   H     0.01431   0.32538   0.38376   0.00000  Uiso   1.00
O347   O     0.06771   0.00628   0.44374   0.00000  Uiso   1.00
C348   C     0.46638   0.31307   0.57957   0.00000  Uiso   1.00
H349   H     0.48570   0.00795   0.61625   0.00000  Uiso   1.00
O350   O     0.43229   0.32705   0.55628   0.00000  Uiso   1.00
C351   C     0.74865   0.06660   0.48444   0.00000  Uiso   1.00
C352   C     0.75135   0.26674   0.51556   0.00000  Uiso   1.00
C353   C     0.51615   0.07291   0.44451   0.00000  Uiso   1.00
C354   C     0.98385   0.26042   0.55549   0.00000  Uiso   1.00
C355   C     0.74799   0.01062   0.47569   0.00000  Uiso   1.00
C356   C     0.75201   0.32271   0.52431   0.00000  Uiso   1.00
C357   C     0.66455   0.16632   0.50098   0.00000  Uiso   1.00
C358   C     0.83545   0.16701   0.49902   0.00000  Uiso   1.00
C359   C     0.90955   0.21287   0.52781   0.00000  Uiso   1.00
C360   C     0.59045   0.12046   0.47219   0.00000  Uiso   1.00
C361   C     0.88354   0.16789   0.49685   0.00000  Uiso   1.00
C362   C     0.61646   0.16545   0.50315   0.00000  Uiso   1.00
C363   C     0.90324   0.12325   0.46564   0.00000  Uiso   1.00
C364   C     0.59676   0.21009   0.53436   0.00000  Uiso   1.00
C365   C     0.94976   0.12221   0.46766   0.00000  Uiso   1.00
C366   C     0.55024   0.21112   0.53234   0.00000  Uiso   1.00
C367   C     0.97657   0.16753   0.49868   0.00000  Uiso   1.00
C368   C     0.52343   0.16580   0.50132   0.00000  Uiso   1.00
C369   C     0.95641   0.21441   0.52708   0.00000  Uiso   1.00
C370   C     0.54359   0.11892   0.47292   0.00000  Uiso   1.00
C371   C     0.96956   0.07584   0.44073   0.00000  Uiso   1.00
C372   C     0.53044   0.25750   0.55927   0.00000  Uiso   1.00
Cu373  Cu    0.75500   0.17246   0.56146   0.00000  Uiso   1.00
Cu374  Cu    0.74499   0.16087   0.43854   0.00000  Uiso   1.00
H375   H     0.89258   0.24578   0.55296   0.00000  Uiso   1.00
H376   H     0.60742   0.08755   0.44704   0.00000  Uiso   1.00
H377   H     0.88227   0.08861   0.44225   0.00000  Uiso   1.00
H378   H     0.61773   0.24473   0.55775   0.00000  Uiso   1.00
H379   H     0.94842   0.04098   0.41850   0.00000  Uiso   1.00
H380   H     0.55158   0.29235   0.58150   0.00000  Uiso   1.00
H381   H     0.74420   0.32013   0.42882   0.00000  Uiso   1.00
H382   H     0.75580   0.01321   0.57118   0.00000  Uiso   1.00
H383   H     0.71503   0.12594   0.64963   0.00000  Uiso   1.00
H384   H     0.78497   0.20739   0.35037   0.00000  Uiso   1.00
N385   N     0.73744   0.15214   0.34617   0.00000  Uiso   1.00
N386   N     0.76255   0.18119   0.65383   0.00000  Uiso   1.00
O387   O     0.75325   0.09538   0.53992   0.00000  Uiso   1.00
O388   O     0.74674   0.23796   0.46008   0.00000  Uiso   1.00
O389   O     0.74480   0.08559   0.43612   0.00000  Uiso   1.00
O390   O     0.75520   0.24774   0.56388   0.00000  Uiso   1.00
O391   O     0.68935   0.17155   0.55191   0.00000  Uiso   1.00
O392   O     0.81064   0.16179   0.44809   0.00000  Uiso   1.00
O393   O     0.68090   0.16176   0.44810   0.00000  Uiso   1.00
O394   O     0.81910   0.17157   0.55190   0.00000  Uiso   1.00
C395   C     0.53362   0.02026   0.42044   0.00000  Uiso   1.00
H396   H     0.51431   0.32538   0.38376   0.00000  Uiso   1.00
O397   O     0.56771   0.00628   0.44374   0.00000  Uiso   1.00
C398   C     0.96638   0.31307   0.57957   0.00000  Uiso   1.00
H399   H     0.98570   0.00795   0.61625   0.00000  Uiso   1.00
O400   O     0.93229   0.32705   0.55628   0.00000  Uiso   1.00
C401   C     0.24865   0.39993   0.48444   0.00000  Uiso   1.00
C402   C     0.25135   0.60007   0.51556   0.00000  Uiso   1.00
C403   C     0.01615   0.40624   0.44451   0.00000  Uiso   1.00
C404   C     0.48385   0.59375   0.55549   0.00000  Uiso   1.00
C405   C     0.24799   0.34396   0.47569   0.00000  Uiso   1.00
C406   C     0.25201   0.65604   0.52431   0.00000  Uiso   1.00
C407   C     0.16455   0.49965   0.50098   0.00000  Uiso   1.00
C408   C     0.33545   0.50035   0.49902   0.00000  Uiso   1.00
C409   C     0.40955   0.54620   0.52781   0.00000  Uiso   1.00
C410   C     0.09045   0.45380   0.47219   0.00000  Uiso   1.00
C411   C     0.38354   0.50122   0.49685   0.00000  Uiso   1.00
C412   C     0.11646   0.49878   0.50315   0.00000  Uiso   1.00
C413   C     0.40324   0.45658   0.46564   0.00000  Uiso   1.00
C414   C     0.09676   0.54342   0.53436   0.00000  Uiso   1.00
C415   C     0.44976   0.45555   0.46766   0.00000  Uiso   1.00
C416   C     0.05024   0.54446   0.53234   0.00000  Uiso   1.00
C417   C     0.47657   0.50087   0.49868   0.00000  Uiso   1.00
C418   C     0.02343   0.49913   0.50132   0.00000  Uiso   1.00
C419   C     0.45641   0.54775   0.52708   0.00000  Uiso   1.00
C420   C     0.04359   0.45225   0.47292   0.00000  Uiso   1.00
C421   C     0.46956   0.40917   0.44073   0.00000  Uiso   1.00
C422   C     0.03044   0.59083   0.55927   0.00000  Uiso   1.00
Cu423  Cu    0.25500   0.50579   0.56146   0.00000  Uiso   1.00
Cu424  Cu    0.24499   0.49421   0.43854   0.00000  Uiso   1.00
H425   H     0.39258   0.57911   0.55296   0.00000  Uiso   1.00
H426   H     0.10742   0.42088   0.44704   0.00000  Uiso   1.00
H427   H     0.38227   0.42194   0.44225   0.00000  Uiso   1.00
H428   H     0.11773   0.57806   0.55775   0.00000  Uiso   1.00
H429   H     0.44842   0.37431   0.41850   0.00000  Uiso   1.00
H430   H     0.05158   0.62569   0.58150   0.00000  Uiso   1.00
H431   H     0.24420   0.65346   0.42882   0.00000  Uiso   1.00
H432   H     0.25580   0.34654   0.57118   0.00000  Uiso   1.00
H433   H     0.21503   0.45927   0.64963   0.00000  Uiso   1.00
H434   H     0.28497   0.54073   0.35037   0.00000  Uiso   1.00
N435   N     0.23744   0.48547   0.34617   0.00000  Uiso   1.00
N436   N     0.26255   0.51453   0.65383   0.00000  Uiso   1.00
O437   O     0.25325   0.42871   0.53992   0.00000  Uiso   1.00
O438   O     0.24674   0.57129   0.46008   0.00000  Uiso   1.00
O439   O     0.24480   0.41892   0.43612   0.00000  Uiso   1.00
O440   O     0.25520   0.58108   0.56388   0.00000  Uiso   1.00
O441   O     0.18935   0.50488   0.55191   0.00000  Uiso   1.00
O442   O     0.31064   0.49512   0.44809   0.00000  Uiso   1.00
O443   O     0.18090   0.49510   0.44810   0.00000  Uiso   1.00
O444   O     0.31910   0.50490   0.55190   0.00000  Uiso   1.00
C445   C     0.03362   0.35360   0.42044   0.00000  Uiso   1.00
H446   H     0.01431   0.65871   0.38376   0.00000  Uiso   1.00
O447   O     0.06771   0.33962   0.44374   0.00000  Uiso   1.00
C448   C     0.46638   0.64640   0.57957   0.00000  Uiso   1.00
H449   H     0.48570   0.34128   0.61625   0.00000  Uiso   1.00
O450   O     0.43229   0.66038   0.55628   0.00000  Uiso   1.00
C451   C     0.74865   0.39993   0.48444   0.00000  Uiso   1.00
C452   C     0.75135   0.60007   0.51556   0.00000  Uiso   1.00
C453   C     0.51615   0.40624   0.44451   0.00000  Uiso   1.00
C454   C     0.98385   0.59375   0.55549   0.00000  Uiso   1.00
C455   C     0.74799   0.34396   0.47569   0.00000  Uiso   1.00
C456   C     0.75201   0.65604   0.52431   0.00000  Uiso   1.00
C457   C     0.66455   0.49965   0.50098   0.00000  Uiso   1.00
C458   C     0.83545   0.50035   0.49902   0.00000  Uiso   1.00
C459   C     0.90955   0.54620   0.52781   0.00000  Uiso   1.00
C460   C     0.59045   0.45380   0.47219   0.00000  Uiso   1.00
C461   C     0.88354   0.50122   0.49685   0.00000  Uiso   1.00
C462   C     0.61646   0.49878   0.50315   0.00000  Uiso   1.00
C463   C     0.90324   0.45658   0.46564   0.00000  Uiso   1.00
C464   C     0.59676   0.54342   0.53436   0.00000  Uiso   1.00
C465   C     0.94976   0.45555   0.46766   0.00000  Uiso   1.00
C466   C     0.55024   0.54446   0.53234   0.00000  Uiso   1.00
C467   C     0.97657   0.50087   0.49868   0.00000  Uiso   1.00
C468   C     0.52343   0.49913   0.50132   0.00000  Uiso   1.00
C469   C     0.95641   0.54775   0.52708   0.00000  Uiso   1.00
C470   C     0.54359   0.45225   0.47292   0.00000  Uiso   1.00
C471   C     0.96956   0.40917   0.44073   0.00000  Uiso   1.00
C472   C     0.53044   0.59083   0.55927   0.00000  Uiso   1.00
Cu473  Cu    0.75500   0.50579   0.56146   0.00000  Uiso   1.00
Cu474  Cu    0.74499   0.49421   0.43854   0.00000  Uiso   1.00
H475   H     0.89258   0.57911   0.55296   0.00000  Uiso   1.00
H476   H     0.60742   0.42088   0.44704   0.00000  Uiso   1.00
H477   H     0.88227   0.42194   0.44225   0.00000  Uiso   1.00
H478   H     0.61773   0.57806   0.55775   0.00000  Uiso   1.00
H479   H     0.94842   0.37431   0.41850   0.00000  Uiso   1.00
H480   H     0.55158   0.62569   0.58150   0.00000  Uiso   1.00
H481   H     0.74420   0.65346   0.42882   0.00000  Uiso   1.00
H482   H     0.75580   0.34654   0.57118   0.00000  Uiso   1.00
H483   H     0.71503   0.45927   0.64963   0.00000  Uiso   1.00
H484   H     0.78497   0.54073   0.35037   0.00000  Uiso   1.00
N485   N     0.73744   0.48547   0.34617   0.00000  Uiso   1.00
N486   N     0.76255   0.51453   0.65383   0.00000  Uiso   1.00
O487   O     0.75325   0.42871   0.53992   0.00000  Uiso   1.00
O488   O     0.74674   0.57129   0.46008   0.00000  Uiso   1.00
O489   O     0.74480   0.41892   0.43612   0.00000  Uiso   1.00
O490   O     0.75520   0.58108   0.56388   0.00000  Uiso   1.00
O491   O     0.68935   0.50488   0.55191   0.00000  Uiso   1.00
O492   O     0.81064   0.49512   0.44809   0.00000  Uiso   1.00
O493   O     0.68090   0.49510   0.44810   0.00000  Uiso   1.00
O494   O     0.81910   0.50490   0.55190   0.00000  Uiso   1.00
C495   C     0.53362   0.35360   0.42044   0.00000  Uiso   1.00
H496   H     0.51431   0.65871   0.38376   0.00000  Uiso   1.00
O497   O     0.56771   0.33962   0.44374   0.00000  Uiso   1.00
C498   C     0.96638   0.64640   0.57957   0.00000  Uiso   1.00
H499   H     0.98570   0.34128   0.61625   0.00000  Uiso   1.00
O500   O     0.93229   0.66038   0.55628   0.00000  Uiso   1.00
C501   C     0.24865   0.73326   0.48444   0.00000  Uiso   1.00
C502   C     0.25135   0.93340   0.51556   0.00000  Uiso   1.00
C503   C     0.01615   0.73958   0.44451   0.00000  Uiso   1.00
C504   C     0.48385   0.92709   0.55549   0.00000  Uiso   1.00
C505   C     0.24799   0.67729   0.47569   0.00000  Uiso   1.00
C506   C     0.25201   0.98938   0.52431   0.00000  Uiso   1.00
C507   C     0.16455   0.83299   0.50098   0.00000  Uiso   1.00
C508   C     0.33545   0.83368   0.49902   0.00000  Uiso   1.00
C509   C     0.40955   0.87954   0.52781   0.00000  Uiso   1.00
C510   C     0.09045   0.78713   0.47219   0.00000  Uiso   1.00
C511   C     0.38354   0.83455   0.49685   0.00000  Uiso   1.00
C512   C     0.11646   0.83211   0.50315   0.00000  Uiso   1.00
C513   C     0.40324   0.78991   0.46564   0.00000  Uiso   1.00
C514   C     0.09676   0.87675   0.53436   0.00000  Uiso   1.00
C515   C     0.44976   0.78888   0.46766   0.00000  Uiso   1.00
C516   C     0.05024   0.87779   0.53234   0.00000  Uiso   1.00
C517   C     0.47657   0.83420   0.49868   0.00000  Uiso   1.00
C518   C     0.02343   0.83247   0.50132   0.00000  Uiso   1.00
C519   C     0.45641   0.88108   0.52708   0.00000  Uiso   1.00
C520   C     0.04359   0.78559   0.47292   0.00000  Uiso   1.00
C521   C     0.46956   0.74250   0.44073   0.00000  Uiso   1.00
C522   C     0.03044   0.92416   0.55927   0.00000  Uiso   1.00
Cu523  Cu    0.25500   0.83913   0.56146   0.00000  Uiso   1.00
Cu524  Cu    0.24499   0.82754   0.43854   0.00000  Uiso   1.00
H525   H     0.39258   0.91245   0.55296   0.00000  Uiso   1.00
H526   H     0.10742   0.75422   0.44704   0.00000  Uiso   1.00
H527   H     0.38227   0.75527   0.44225   0.00000  Uiso   1.00
H528   H     0.11773   0.91139   0.55775   0.00000  Uiso   1.00
H529   H     0.44842   0.70764   0.41850   0.00000  Uiso   1.00
H530   H     0.05158   0.95902   0.58150   0.00000  Uiso   1.00
H531   H     0.24420   0.98679   0.42882   0.00000  Uiso   1.00
H532   H     0.25580   0.67987   0.57118   0.00000  Uiso   1.00
H533   H     0.21503   0.79261   0.64963   0.00000  Uiso   1.00
H534   H     0.28497   0.87406   0.35037   0.00000  Uiso   1.00
N535   N     0.23744   0.81881   0.34617   0.00000  Uiso   1.00
N536   N     0.26255   0.84786   0.65383   0.00000  Uiso   1.00
O537   O     0.25325   0.76204   0.53992   0.00000  Uiso   1.00
O538   O     0.24674   0.90462   0.46008   0.00000  Uiso   1.00
O539   O     0.24480   0.75226   0.43612   0.00000  Uiso   1.00
O540   O     0.25520   0.91441   0.56388   0.00000  Uiso   1.00
O541   O     0.18935   0.83821   0.55191   0.00000  Uiso   1.00
O542   O     0.31064   0.82845   0.44809   0.00000  Uiso   1.00
O543   O     0.18090   0.82843   0.44810   0.00000  Uiso   1.00
O544   O     0.31910   0.83824   0.55190   0.00000  Uiso   1.00
C545   C     0.03362   0.68693   0.42044   0.00000  Uiso   1.00
H546   H     0.01431   0.99205   0.38376   0.00000  Uiso   1.00
O547   O     0.06771   0.67295   0.44374   0.00000  Uiso   1.00
C548   C     0.46638   0.97974   0.57957   0.00000  Uiso   1.00
H549   H     0.48570   0.67462   0.61625   0.00000  Uiso   1.00
O550   O     0.43229   0.99372   0.55628   0.00000  Uiso   1.00
C551   C     0.74865   0.73326   0.48444   0.00000  Uiso   1.00
C552   C     0.75135   0.93340   0.51556   0.00000  Uiso   1.00
C553   C     0.51615   0.73958   0.44451   0.00000  Uiso   1.00
C554   C     0.98385   0.92709   0.55549   0.00000  Uiso   1.00
C555   C     0.74799   0.67729   0.47569   0.00000  Uiso   1.00
C556   C     0.75201   0.98938   0.52431   0.00000  Uiso   1.00
C557   C     0.66455   0.83299   0.50098   0.00000  Uiso   1.00
C558   C     0.83545   0.83368   0.49902   0.00000  Uiso   1.00
C559   C     0.90955   0.87954   0.52781   0.00000  Uiso   1.00
C560   C     0.59045   0.78713   0.47219   0.00000  Uiso   1.00
C561   C     0.88354   0.83455   0.49685   0.00000  Uiso   1.00
C562   C     0.61646   0.83211   0.50315   0.00000  Uiso   1.00
C563   C     0.90324   0.78991   0.46564   0.00000  Uiso   1.00
C564   C     0.59676   0.87675   0.53436   0.00000  Uiso   1.00
C565   C     0.94976   0.78888   0.46766   0.00000  Uiso   1.00
C566   C     0.55024   0.87779   0.53234   0.00000  Uiso   1.00
C567   C     0.97657   0.83420   0.49868   0.00000  Uiso   1.00
C568   C     0.52343   0.83247   0.50132   0.00000  Uiso   1.00
C569   C     0.95641   0.88108   0.52708   0.00000  Uiso   1.00
C570   C     0.54359   0.78559   0.47292   0.00000  Uiso   1.00
C571   C     0.96956   0.74250   0.44073   0.00000  Uiso   1.00
C572   C     0.53044   0.92416   0.55927   0.00000  Uiso   1.00
Cu573  Cu    0.75500   0.83913   0.56146   0.00000  Uiso   1.00
Cu574  Cu    0.74499   0.82754   0.43854   0.00000  Uiso   1.00
H575   H     0.89258   0.91245   0.55296   0.00000  Uiso   1.00
H576   H     0.60742   0.75422   0.44704   0.00000  Uiso   1.00
H577   H     0.88227   0.75527   0.44225   0.00000  Uiso   1.00
H578   H     0.61773   0.91139   0.55775   0.00000  Uiso   1.00
H579   H     0.94842   0.70764   0.41850   0.00000  Uiso   1.00
H580   H     0.55158   0.95902   0.58150   0.00000  Uiso   1.00
H581   H     0.74420   0.98679   0.42882   0.00000  Uiso   1.00
H582   H     0.75580   0.67987   0.57118   0.00000  Uiso   1.00
H583   H     0.71503   0.79261   0.64963   0.00000  Uiso   1.00
H584   H     0.78497   0.87406   0.35037   0.00000  Uiso   1.00
N585   N     0.73744   0.81881   0.34617   0.00000  Uiso   1.00
N586   N     0.76255   0.84786   0.65383   0.00000  Uiso   1.00
O587   O     0.75325   0.76204   0.53992   0.00000  Uiso   1.00
O588   O     0.74674   0.90462   0.46008   0.00000  Uiso   1.00
O589   O     0.74480   0.75226   0.43612   0.00000  Uiso   1.00
O590   O     0.75520   0.91441   0.56388   0.00000  Uiso   1.00
O591   O     0.68935   0.83821   0.55191   0.00000  Uiso   1.00
O592   O     0.81064   0.82845   0.44809   0.00000  Uiso   1.00
O593   O     0.68090   0.82843   0.44810   0.00000  Uiso   1.00
O594   O     0.81910   0.83824   0.55190   0.00000  Uiso   1.00
C595   C     0.53362   0.68693   0.42044   0.00000  Uiso   1.00
H596   H     0.51431   0.99205   0.38376   0.00000  Uiso   1.00
O597   O     0.56771   0.67295   0.44374   0.00000  Uiso   1.00
C598   C     0.96638   0.97974   0.57957   0.00000  Uiso   1.00
H599   H     0.98570   0.67462   0.61625   0.00000  Uiso   1.00
O600   O     0.93229   0.99372   0.55628   0.00000  Uiso   1.00
C601   C     0.24865   0.06660   0.81778   0.00000  Uiso   1.00
C602   C     0.25135   0.26674   0.84889   0.00000  Uiso   1.00
C603   C     0.01615   0.07291   0.77785   0.00000  Uiso   1.00
C604   C     0.48385   0.26042   0.88883   0.00000  Uiso   1.00
C605   C     0.24799   0.01062   0.80902   0.00000  Uiso   1.00
C606   C     0.25201   0.32271   0.85765   0.00000  Uiso   1.00
C607   C     0.16455   0.16632   0.83431   0.00000  Uiso   1.00
C608   C     0.33545   0.16701   0.83236   0.00000  Uiso   1.00
C609   C     0.40955   0.21287   0.86115   0.00000  Uiso   1.00
C610   C     0.09045   0.12046   0.80552   0.00000  Uiso   1.00
C611   C     0.38354   0.16789   0.83018   0.00000  Uiso   1.00
C612   C     0.11646   0.16545   0.83649   0.00000  Uiso   1.00
C613   C     0.40324   0.12325   0.79897   0.00000  Uiso   1.00
C614   C     0.09676   0.21009   0.86769   0.00000  Uiso   1.00
C615   C     0.44976   0.12221   0.80099   0.00000  Uiso   1.00
C616   C     0.05024   0.21112   0.86568   0.00000  Uiso   1.00
C617   C     0.47657   0.16753   0.83202   0.00000  Uiso   1.00
C618   C     0.02343   0.16580   0.83465   0.00000  Uiso   1.00
C619   C     0.45641   0.21441   0.86041   0.00000  Uiso   1.00
C620   C     0.04359   0.11892   0.80625   0.00000  Uiso   1.00
C621   C     0.46956   0.07584   0.77406   0.00000  Uiso   1.00
C622   C     0.03044   0.25750   0.89261   0.00000  Uiso   1.00
Cu623  Cu    0.25500   0.17246   0.89479   0.00000  Uiso   1.00
Cu624  Cu    0.24499   0.16087   0.77187   0.00000  Uiso   1.00
H625   H     0.39258   0.24578   0.88630   0.00000  Uiso   1.00
H626   H     0.10742   0.08755   0.78037   0.00000  Uiso   1.00
H627   H     0.38227   0.08861   0.77558   0.00000  Uiso   1.00
H628   H     0.11773   0.24473   0.89108   0.00000  Uiso   1.00
H629   H     0.44842   0.04098   0.75183   0.00000  Uiso   1.00
H630   H     0.05158   0.29235   0.91484   0.00000  Uiso   1.00
H631   H     0.24420   0.32013   0.76215   0.00000  Uiso   1.00
H632   H     0.25580   0.01321   0.90452   0.00000  Uiso   1.00
H633   H     0.21503   0.12594   0.98296   0.00000  Uiso   1.00
H634   H     0.28497   0.20739   0.68371   0.00000  Uiso   1.00
N635   N     0.23744   0.15214   0.67951   0.00000  Uiso   1.00
N636   N     0.26255   0.18119   0.98716   0.00000  Uiso   1.00
O637   O     0.25325   0.09538   0.87326   0.00000  Uiso   1.00
O638   O     0.24674   0.23796   0.79341   0.00000  Uiso   1.00
O639   O     0.24480   0.08559   0.76945   0.00000  Uiso   1.00
O640   O     0.25520   0.24774   0.89721   0.00000  Uiso   1.00
O641   O     0.18935   0.17155   0.88524   0.00000  Uiso   1.00
O642   O     0.31064   0.16179   0.78143   0.00000  Uiso   1.00
O643   O     0.18090   0.16176   0.78143   0.00000  Uiso   1.00
O644   O     0.31910   0.17157   0.88523   0.00000  Uiso   1.00
C645   C     0.03362   0.02026   0.75378   0.00000  Uiso   1.00
H646   H     0.01431   0.32538   0.71709   0.00000  Uiso   1.00
O647   O     0.06771   0.00628   0.77708   0.00000  Uiso   1.00
C648   C     0.46638   0.31307   0.91290   0.00000  Uiso   1.00
H649   H     0.48570   0.00795   0.94959   0.00000  Uiso   1.00
O650   O     0.43229   0.32705   0.88961   0.00000  Uiso   1.00
C651   C     0.74865   0.06660   0.81778   0.00000  Uiso   1.00
C652   C     0.75135   0.26674   0.84889   0.00000  Uiso   1.00
C653   C     0.51615   0.07291   0.77785   0.00000  Uiso   1.00
C654   C     0.98385   0.26042   0.88883   0.00000  Uiso   1.00
C655   C     0.74799   0.01062   0.80902   0.00000  Uiso   1.00
C656   C     0.75201   0.32271   0.85765   0.00000  Uiso   1.00
C657   C     0.66455   0.16632   0.83431   0.00000  Uiso   1.00
C658   C     0.83545   0.16701   0.83236   0.00000  Uiso   1.00
C659   C     0.90955   0.21287   0.86115   0.00000  Uiso   1.00
C660   C     0.59045   0.12046   0.80552   0.00000  Uiso   1.00
C661   C     0.88354   0.16789   0.83018   0.00000  Uiso   1.00
C662   C     0.61646   0.16545   0.83649   0.00000  Uiso   1.00
C663   C     0.90324   0.12325   0.79897   0.00000  Uiso   1.00
C664   C     0.59676   0.21009   0.86769   0.00000  Uiso   1.00
C665   C     0.94976   0.12221   0.80099   0.00000  Uiso   1.00
C666   C     0.55024   0.21112   0.86568   0.00000  Uiso   1.00
C667   C     0.97657   0.16753   0.83202   0.00000  Uiso   1.00
C668   C     0.52343   0.16580   0.83465   0.00000  Uiso   1.00
C669   C     0.95641   0.21441   0.86041   0.00000  Uiso   1.00
C670   C     0.54359   0.11892   0.80625   0.00000  Uiso   1.00
C671   C     0.96956   0.07584   0.77406   0.00000  Uiso   1.00
C672   C     0.53044   0.25750   0.89261   0.00000  Uiso   1.00
Cu673  Cu    0.75500   0.17246   0.89479   0.00000  Uiso   1.00
Cu674  Cu    0.74499   0.16087   0.77187   0.00000  Uiso   1.00
H675   H     0.89258   0.24578   0.88630   0.00000  Uiso   1.00
H676   H     0.60742   0.08755   0.78037   0.00000  Uiso   1.00
H677   H     0.88227   0.08861   0.77558   0.00000  Uiso   1.00
H678   H     0.61773   0.24473   0.89108   0.00000  Uiso   1.00
H679   H     0.94842   0.04098   0.75183   0.00000  Uiso   1.00
H680   H     0.55158   0.29235   0.91484   0.00000  Uiso   1.00
H681   H     0.74420   0.32013   0.76215   0.00000  Uiso   1.00
H682   H     0.75580   0.01321   0.90452   0.00000  Uiso   1.00
H683   H     0.71503   0.12594   0.98296   0.00000  Uiso   1.00
H684   H     0.78497   0.20739   0.68371   0.00000  Uiso   1.00
N685   N     0.73744   0.15214   0.67951   0.00000  Uiso   1.00
N686   N     0.76255   0.18119   0.98716   0.00000  Uiso   1.00
O687   O     0.75325   0.09538   0.87326   0.00000  Uiso   1.00
O688   O     0.74674   0.23796   0.79341   0.00000  Uiso   1.00
O689   O     0.74480   0.08559   0.76945   0.00000  Uiso   1.00
O690   O     0.75520   0.24774   0.89721   0.00000  Uiso   1.00
O691   O     0.68935   0.17155   0.88524   0.00000  Uiso   1.00
O692   O     0.81064   0.16179   0.78143   0.00000  Uiso   1.00
O693   O     0.68090   0.16176   0.78143   0.00000  Uiso   1.00
O694   O     0.81910   0.17157   0.88523   0.00000  Uiso   1.00
C695   C     0.53362   0.02026   0.75378   0.00000  Uiso   1.00
H696   H     0.51431   0.32538   0.71709   0.00000  Uiso   1.00
O697   O     0.56771   0.00628   0.77708   0.00000  Uiso   1.00
C698   C     0.96638   0.31307   0.91290   0.00000  Uiso   1.00
H699   H     0.98570   0.00795   0.94959   0.00000  Uiso   1.00
O700   O     0.93229   0.32705   0.88961   0.00000  Uiso   1.00
C701   C     0.24865   0.39993   0.81778   0.00000  Uiso   1.00
C702   C     0.25135   0.60007   0.84889   0.00000  Uiso   1.00
C703   C     0.01615   0.40624   0.77785   0.00000  Uiso   1.00
C704   C     0.48385   0.59375   0.88883   0.00000  Uiso   1.00
C705   C     0.24799   0.34396   0.80902   0.00000  Uiso   1.00
C706   C     0.25201   0.65604   0.85765   0.00000  Uiso   1.00
C707   C     0.16455   0.49965   0.83431   0.00000  Uiso   1.00
C708   C     0.33545   0.50035   0.83236   0.00000  Uiso   1.00
C709   C     0.40955   0.54620   0.86115   0.00000  Uiso   1.00
C710   C     0.09045   0.45380   0.80552   0.00000  Uiso   1.00
C711   C     0.38354   0.50122   0.83018   0.00000  Uiso   1.00
C712   C     0.11646   0.49878   0.83649   0.00000  Uiso   1.00
C713   C     0.40324   0.45658   0.79897   0.00000  Uiso   1.00
C714   C     0.09676   0.54342   0.86769   0.00000  Uiso   1.00
C715   C     0.44976   0.45555   0.80099   0.00000  Uiso   1.00
C716   C     0.05024   0.54446   0.86568   0.00000  Uiso   1.00
C717   C     0.47657   0.50087   0.83202   0.00000  Uiso   1.00
C718   C     0.02343   0.49913   0.83465   0.00000  Uiso   1.00
C719   C     0.45641   0.54775   0.86041   0.00000  Uiso   1.00
C720   C     0.04359   0.45225   0.80625   0.00000  Uiso   1.00
C721   C     0.46956   0.40917   0.77406   0.00000  Uiso   1.00
C722   C     0.03044   0.59083   0.89261   0.00000  Uiso   1.00
Cu723  Cu    0.25500   0.50579   0.89479   0.00000  Uiso   1.00
Cu724  Cu    0.24499   0.49421   0.77187   0.00000  Uiso   1.00
H725   H     0.39258   0.57911   0.88630   0.00000  Uiso   1.00
H726   H     0.10742   0.42088   0.78037   0.00000  Uiso   1.00
H727   H     0.38227   0.42194   0.77558   0.00000  Uiso   1.00
H728   H     0.11773   0.57806   0.89108   0.00000  Uiso   1.00
H729   H     0.44842   0.37431   0.75183   0.00000  Uiso   1.00
H730   H     0.05158   0.62569   0.91484   0.00000  Uiso   1.00
H731   H     0.24420   0.65346   0.76215   0.00000  Uiso   1.00
H732   H     0.25580   0.34654   0.90452   0.00000  Uiso   1.00
H733   H     0.21503   0.45927   0.98296   0.00000  Uiso   1.00
H734   H     0.28497   0.54073   0.68371   0.00000  Uiso   1.00
N735   N     0.23744   0.48547   0.67951   0.00000  Uiso   1.00
N736   N     0.26255   0.51453   0.98716   0.00000  Uiso   1.00
O737   O     0.25325   0.42871   0.87326   0.00000  Uiso   1.00
O738   O     0.24674   0.57129   0.79341   0.00000  Uiso   1.00
O739   O     0.24480   0.41892   0.76945   0.00000  Uiso   1.00
O740   O     0.25520   0.58108   0.89721   0.00000  Uiso   1.00
O741   O     0.18935   0.50488   0.88524   0.00000  Uiso   1.00
O742   O     0.31064   0.49512   0.78143   0.00000  Uiso   1.00
O743   O     0.18090   0.49510   0.78143   0.00000  Uiso   1.00
O744   O     0.31910   0.50490   0.88523   0.00000  Uiso   1.00
C745   C     0.03362   0.35360   0.75378   0.00000  Uiso   1.00
H746   H     0.01431   0.65871   0.71709   0.00000  Uiso   1.00
O747   O     0.06771   0.33962   0.77708   0.00000  Uiso   1.00
C748   C     0.46638   0.64640   0.91290   0.00000  Uiso   1.00
H749   H     0.48570   0.34128   0.94959   0.00000  Uiso   1.00
O750   O     0.43229   0.66038   0.88961   0.00000  Uiso   1.00
C751   C     0.74865   0.39993   0.81778   0.00000  Uiso   1.00
C752   C     0.75135   0.60007   0.84889   0.00000  Uiso   1.00
C753   C     0.51615   0.40624   0.77785   0.00000  Uiso   1.00
C754   C     0.98385   0.59375   0.88883   0.00000  Uiso   1.00
C755   C     0.74799   0.34396   0.80902   0.00000  Uiso   1.00
C756   C     0.75201   0.65604   0.85765   0.00000  Uiso   1.00
C757   C     0.66455   0.49965   0.83431   0.00000  Uiso   1.00
C758   C     0.83545   0.50035   0.83236   0.00000  Uiso   1.00
C759   C     0.90955   0.54620   0.86115   0.00000  Uiso   1.00
C760   C     0.59045   0.45380   0.80552   0.00000  Uiso   1.00
C761   C     0.88354   0.50122   0.83018   0.00000  Uiso   1.00
C762   C     0.61646   0.49878   0.83649   0.00000  Uiso   1.00
C763   C     0.90324   0.45658   0.79897   0.00000  Uiso   1.00
C764   C     0.59676   0.54342   0.86769   0.00000  Uiso   1.00
C765   C     0.94976   0.45555   0.80099   0.00000  Uiso   1.00
C766   C     0.55024   0.54446   0.86568   0.00000  Uiso   1.00
C767   C     0.97657   0.50087   0.83202   0.00000  Uiso   1.00
C768   C     0.52343   0.49913   0.83465   0.00000  Uiso   1.00
C769   C     0.95641   0.54775   0.86041   0.00000  Uiso   1.00
C770   C     0.54359   0.45225   0.80625   0.00000  Uiso   1.00
C771   C     0.96956   0.40917   0.77406   0.00000  Uiso   1.00
C772   C     0.53044   0.59083   0.89261   0.00000  Uiso   1.00
Cu773  Cu    0.75500   0.50579   0.89479   0.00000  Uiso   1.00
Cu774  Cu    0.74499   0.49421   0.77187   0.00000  Uiso   1.00
H775   H     0.89258   0.57911   0.88630   0.00000  Uiso   1.00
H776   H     0.60742   0.42088   0.78037   0.00000  Uiso   1.00
H777   H     0.88227   0.42194   0.77558   0.00000  Uiso   1.00
H778   H     0.61773   0.57806   0.89108   0.00000  Uiso   1.00
H779   H     0.94842   0.37431   0.75183   0.00000  Uiso   1.00
H780   H     0.55158   0.62569   0.91484   0.00000  Uiso   1.00
H781   H     0.74420   0.65346   0.76215   0.00000  Uiso   1.00
H782   H     0.75580   0.34654   0.90452   0.00000  Uiso   1.00
H783   H     0.71503   0.45927   0.98296   0.00000  Uiso   1.00
H784   H     0.78497   0.54073   0.68371   0.00000  Uiso   1.00
N785   N     0.73744   0.48547   0.67951   0.00000  Uiso   1.00
N786   N     0.76255   0.51453   0.98716   0.00000  Uiso   1.00
O787   O     0.75325   0.42871   0.87326   0.00000  Uiso   1.00
O788   O     0.74674   0.57129   0.79341   0.00000  Uiso   1.00
O789   O     0.74480   0.41892   0.76945   0.00000  Uiso   1.00
O790   O     0.75520   0.58108   0.89721   0.00000  Uiso   1.00
O791   O     0.68935   0.50488   0.88524   0.00000  Uiso   1.00
O792   O     0.81064   0.49512   0.78143   0.00000  Uiso   1.00
O793   O     0.68090   0.49510   0.78143   0.00000  Uiso   1.00
O794   O     0.81910   0.50490   0.88523   0.00000  Uiso   1.00
C795   C     0.53362   0.35360   0.75378   0.00000  Uiso   1.00
H796   H     0.51431   0.65871   0.71709   0.00000  Uiso   1.00
O797   O     0.56771   0.33962   0.77708   0.00000  Uiso   1.00
C798   C     0.96638   0.64640   0.91290   0.00000  Uiso   1.00
H799   H     0.98570   0.34128   0.94959   0.00000  Uiso   1.00
O800   O     0.93229   0.66038   0.88961   0.00000  Uiso   1.00
C801   C     0.24865   0.73326   0.81778   0.00000  Uiso   1.00
C802   C     0.25135   0.93340   0.84889   0.00000  Uiso   1.00
C803   C     0.01615   0.73958   0.77785   0.00000  Uiso   1.00
C804   C     0.48385   0.92709   0.88883   0.00000  Uiso   1.00
C805   C     0.24799   0.67729   0.80902   0.00000  Uiso   1.00
C806   C     0.25201   0.98938   0.85765   0.00000  Uiso   1.00
C807   C     0.16455   0.83299   0.83431   0.00000  Uiso   1.00
C808   C     0.33545   0.83368   0.83236   0.00000  Uiso   1.00
C809   C     0.40955   0.87954   0.86115   0.00000  Uiso   1.00
C810   C     0.09045   0.78713   0.80552   0.00000  Uiso   1.00
C811   C     0.38354   0.83455   0.83018   0.00000  Uiso   1.00
C812   C     0.11646   0.83211   0.83649   0.00000  Uiso   1.00
C813   C     0.40324   0.78991   0.79897   0.00000  Uiso   1.00
C814   C     0.09676   0.87675   0.86769   0.00000  Uiso   1.00
C815   C     0.44976   0.78888   0.80099   0.00000  Uiso   1.00
C816   C     0.05024   0.87779   0.86568   0.00000  Uiso   1.00
C817   C     0.47657   0.83420   0.83202   0.00000  Uiso   1.00
C818   C     0.02343   0.83247   0.83465   0.00000  Uiso   1.00
C819   C     0.45641   0.88108   0.86041   0.00000  Uiso   1.00
C820   C     0.04359   0.78559   0.80625   0.00000  Uiso   1.00
C821   C     0.46956   0.74250   0.77406   0.00000  Uiso   1.00
C822   C     0.03044   0.92416   0.89261   0.00000  Uiso   1.00
Cu823  Cu    0.25500   0.83913   0.89479   0.00000  Uiso   1.00
Cu824  Cu    0.24499   0.82754   0.77187   0.00000  Uiso   1.00
H825   H     0.39258   0.91245   0.88630   0.00000  Uiso   1.00
H826   H     0.10742   0.75422   0.78037   0.00000  Uiso   1.00
H827   H     0.38227   0.75527   0.77558   0.00000  Uiso   1.00
H828   H     0.11773   0.91139   0.89108   0.00000  Uiso   1.00
H829   H     0.44842   0.70764   0.75183   0.00000  Uiso   1.00
H830   H     0.05158   0.95902   0.91484   0.00000  Uiso   1.00
H831   H     0.24420   0.98679   0.76215   0.00000  Uiso   1.00
H832   H     0.25580   0.67987   0.90452   0.00000  Uiso   1.00
H833   H     0.21503   0.79261   0.98296   0.00000  Uiso   1.00
H834   H     0.28497   0.87406   0.68371   0.00000  Uiso   1.00
N835   N     0.23744   0.81881   0.67951   0.00000  Uiso   1.00
N836   N     0.26255   0.84786   0.98716   0.00000  Uiso   1.00
O837   O     0.25325   0.76204   0.87326   0.00000  Uiso   1.00
O838   O     0.24674   0.90462   0.79341   0.00000  Uiso   1.00
O839   O     0.24480   0.75226   0.76945   0.00000  Uiso   1.00
O840   O     0.25520   0.91441   0.89721   0.00000  Uiso   1.00
O841   O     0.18935   0.83821   0.88524   0.00000  Uiso   1.00
O842   O     0.31064   0.82845   0.78143   0.00000  Uiso   1.00
O843   O     0.18090   0.82843   0.78143   0.00000  Uiso   1.00
O844   O     0.31910   0.83824   0.88523   0.00000  Uiso   1.00
C845   C     0.03362   0.68693   0.75378   0.00000  Uiso   1.00
H846   H     0.01431   0.99205   0.71709   0.00000  Uiso   1.00
O847   O     0.06771   0.67295   0.77708   0.00000  Uiso   1.00
C848   C     0.46638   0.97974   0.91290   0.00000  Uiso   1.00
H849   H     0.48570   0.67462   0.94959   0.00000  Uiso   1.00
O850   O     0.43229   0.99372   0.88961   0.00000  Uiso   1.00
C851   C     0.74865   0.73326   0.81778   0.00000  Uiso   1.00
C852   C     0.75135   0.93340   0.84889   0.00000  Uiso   1.00
C853   C     0.51615   0.73958   0.77785   0.00000  Uiso   1.00
C854   C     0.98385   0.92709   0.88883   0.00000  Uiso   1.00
C855   C     0.74799   0.67729   0.80902   0.00000  Uiso   1.00
C856   C     0.75201   0.98938   0.85765   0.00000  Uiso   1.00
C857   C     0.66455   0.83299   0.83431   0.00000  Uiso   1.00
C858   C     0.83545   0.83368   0.83236   0.00000  Uiso   1.00
C859   C     0.90955   0.87954   0.86115   0.00000  Uiso   1.00
C860   C     0.59045   0.78713   0.80552   0.00000  Uiso   1.00
C861   C     0.88354   0.83455   0.83018   0.00000  Uiso   1.00
C862   C     0.61646   0.83211   0.83649   0.00000  Uiso   1.00
C863   C     0.90324   0.78991   0.79897   0.00000  Uiso   1.00
C864   C     0.59676   0.87675   0.86769   0.00000  Uiso   1.00
C865   C     0.94976   0.78888   0.80099   0.00000  Uiso   1.00
C866   C     0.55024   0.87779   0.86568   0.00000  Uiso   1.00
C867   C     0.97657   0.83420   0.83202   0.00000  Uiso   1.00
C868   C     0.52343   0.83247   0.83465   0.00000  Uiso   1.00
C869   C     0.95641   0.88108   0.86041   0.00000  Uiso   1.00
C870   C     0.54359   0.78559   0.80625   0.00000  Uiso   1.00
C871   C     0.96956   0.74250   0.77406   0.00000  Uiso   1.00
C872   C     0.53044   0.92416   0.89261   0.00000  Uiso   1.00
Cu873  Cu    0.75500   0.83913   0.89479   0.00000  Uiso   1.00
Cu874  Cu    0.74499   0.82754   0.77187   0.00000  Uiso   1.00
H875   H     0.89258   0.91245   0.88630   0.00000  Uiso   1.00
H876   H     0.60742   0.75422   0.78037   0.00000  Uiso   1.00
H877   H     0.88227   0.75527   0.77558   0.00000  Uiso   1.00
H878   H     0.61773   0.91139   0.89108   0.00000  Uiso   1.00
H879   H     0.94842   0.70764   0.75183   0.00000  Uiso   1.00
H880   H     0.55158   0.95902   0.91484   0.00000  Uiso   1.00
H881   H     0.74420   0.98679   0.76215   0.00000  Uiso   1.00
H882   H     0.75580   0.67987   0.90452   0.00000  Uiso   1.00
H883   H     0.71503   0.79261   0.98296   0.00000  Uiso   1.00
H884   H     0.78497   0.87406   0.68371   0.00000  Uiso   1.00
N885   N     0.73744   0.81881   0.67951   0.00000  Uiso   1.00
N886   N     0.76255   0.84786   0.98716   0.00000  Uiso   1.00
O887   O     0.75325   0.76204   0.87326   0.00000  Uiso   1.00
O888   O     0.74674   0.90462   0.79341   0.00000  Uiso   1.00
O889   O     0.74480   0.75226   0.76945   0.00000  Uiso   1.00
O890   O     0.75520   0.91441   0.89721   0.00000  Uiso   1.00
O891   O     0.68935   0.83821   0.88524   0.00000  Uiso   1.00
O892   O     0.81064   0.82845   0.78143   0.00000  Uiso   1.00
O893   O     0.68090   0.82843   0.78143   0.00000  Uiso   1.00
O894   O     0.81910   0.83824   0.88523   0.00000  Uiso   1.00
C895   C     0.53362   0.68693   0.75378   0.00000  Uiso   1.00
H896   H     0.51431   0.99205   0.71709   0.00000  Uiso   1.00
O897   O     0.56771   0.67295   0.77708   0.00000  Uiso   1.00
C898   C     0.96638   0.97974   0.91290   0.00000  Uiso   1.00
H899   H     0.98570   0.67462   0.94959   0.00000  Uiso   1.00
O900   O     0.93229   0.99372   0.88961   0.00000  Uiso   1.00
loop_
_geom_bond_atom_site_label_1
_geom_bond_atom_site_label_2
_geom_bond_distance
_geom_bond_site_symmetry_2
_ccdc_geom_bond_type
C1     O37     1.293   .     A
C1     C5      1.425   .     S
C1     O39     1.285   .     A
C2     O38     1.293   .     A
C2     C6      1.425   .     S
C2     O40     1.285   .     A
C3     C20     1.421   .     A
C3     C45     1.486   .     S
C3     C71     1.397   1_455 S
C4     C48     1.486   .     S
C4     C19     1.421   .     A
C4     C72     1.397   .     S
C5     C206    1.326   1_545 S
C5     H231    1.088   1_545 S
C6     C105    1.326   .     S
C6     H132    1.088   .     S
C7     O43     1.292   .     A
C7     C12     1.443   .     S
C7     O41     1.294   .     A
C8     C11     1.443   .     S
C8     O42     1.294   .     A
C8     O44     1.292   .     A
C9     C11     1.395   .     A
C9     H25     1.081   .     S
C9     C19     1.402   .     A
C10    H26     1.081   .     S
C10    C12     1.395   .     A
C10    C20     1.402   .     A
C11    C13     1.391   .     A
C12    C14     1.391   .     A
C13    C15     1.392   .     A
C13    H27     1.085   .     S
C14    H28     1.085   .     S
C14    C16     1.392   .     A
C15    C21     1.398   .     A
C15    C17     1.413   .     A
C16    C18     1.413   .     A
C16    C22     1.398   .     A
C17    C19     1.422   .     A
C17    C68     1.403   .     S
C18    C20     1.422   .     A
C18    C67     1.403   1_455 S
C21    H29     1.085   .     S
C21    C53     1.397   .     S
C22    H30     1.085   .     S
C22    C54     1.397   1_455 S
Cu23   Cu24    2.691   .     S
Cu23   O41     1.961   .     S
Cu23   O40     1.947   .     S
Cu23   N36     2.022   .     S
Cu23   O37     1.953   .     S
Cu23   O44     1.945   .     S
Cu24   O38     1.953   .     S
Cu24   N35     2.022   .     S
Cu24   O39     1.947   .     S
Cu24   O42     1.961   .     S
Cu24   O43     1.945   .     S
H31    C105    1.088   .     S
H32    C206    1.088   1_545 S
H33    N335    1.029   .     S
H34    N636    1.029   1_554 S
N35    H633    1.029   1_554 S
N35    N636    1.292   1_554 S
N36    N335    1.292   .     S
N36    H334    1.029   .     S
C45    O47     1.221   .     D
C45    H246    1.085   1_545 S
H46    C145    1.085   .     S
C48    O50     1.221   .     D
C48    H149    1.085   .     S
H49    C248    1.085   1_545 S
C51    O87     1.293   .     A
C51    C55     1.425   .     S
C51    O89     1.285   .     A
C52    O88     1.293   .     A
C52    C56     1.425   .     S
C52    O90     1.285   .     A
C53    C70     1.421   .     A
C53    C95     1.486   .     S
C54    C98     1.486   .     S
C54    C69     1.421   .     A
C54    C22     1.397   1_655 S
C55    C256    1.326   1_545 S
C55    H281    1.088   1_545 S
C56    C155    1.326   .     S
C56    H182    1.088   .     S
C57    O93     1.292   .     A
C57    C62     1.443   .     S
C57    O91     1.294   .     A
C58    C61     1.443   .     S
C58    O92     1.294   .     A
C58    O94     1.292   .     A
C59    C61     1.395   .     A
C59    H75     1.081   .     S
C59    C69     1.402   .     A
C60    H76     1.081   .     S
C60    C62     1.395   .     A
C60    C70     1.402   .     A
C61    C63     1.391   .     A
C62    C64     1.391   .     A
C63    C65     1.392   .     A
C63    H77     1.085   .     S
C64    H78     1.085   .     S
C64    C66     1.392   .     A
C65    C71     1.398   .     A
C65    C67     1.413   .     A
C66    C68     1.413   .     A
C66    C72     1.398   .     A
C67    C69     1.422   .     A
C67    C18     1.403   1_655 S
C68    C70     1.422   .     A
C71    H79     1.085   .     S
C71    C3      1.397   1_655 S
C72    H80     1.085   .     S
Cu73   Cu74    2.691   .     S
Cu73   O91     1.961   .     S
Cu73   O90     1.947   .     S
Cu73   N86     2.022   .     S
Cu73   O87     1.953   .     S
Cu73   O94     1.945   .     S
Cu74   O88     1.953   .     S
Cu74   N85     2.022   .     S
Cu74   O89     1.947   .     S
Cu74   O92     1.961   .     S
Cu74   O93     1.945   .     S
H81    C155    1.088   .     S
H82    C256    1.088   1_545 S
H83    N385    1.029   .     S
H84    N686    1.029   1_554 S
N85    H683    1.029   1_554 S
N85    N686    1.292   1_554 S
N86    N385    1.292   .     S
N86    H384    1.029   .     S
C95    O97     1.221   .     D
C95    H296    1.085   1_545 S
H96    C195    1.085   .     S
C98    O100    1.221   .     D
C98    H199    1.085   .     S
H99    C298    1.085   1_545 S
C101   O137    1.293   .     A
C101   C105    1.425   .     S
C101   O139    1.285   .     A
C102   O138    1.293   .     A
C102   C106    1.425   .     S
C102   O140    1.285   .     A
C103   C120    1.421   .     A
C103   C145    1.486   .     S
C103   C171    1.397   1_455 S
C104   C148    1.486   .     S
C104   C119    1.421   .     A
C104   C172    1.397   .     S
C106   C205    1.326   .     S
C106   H232    1.088   .     S
C107   O143    1.292   .     A
C107   C112    1.443   .     S
C107   O141    1.294   .     A
C108   C111    1.443   .     S
C108   O142    1.294   .     A
C108   O144    1.292   .     A
C109   C111    1.395   .     A
C109   H125    1.081   .     S
C109   C119    1.402   .     A
C110   H126    1.081   .     S
C110   C112    1.395   .     A
C110   C120    1.402   .     A
C111   C113    1.391   .     A
C112   C114    1.391   .     A
C113   C115    1.392   .     A
C113   H127    1.085   .     S
C114   H128    1.085   .     S
C114   C116    1.392   .     A
C115   C121    1.398   .     A
C115   C117    1.413   .     A
C116   C118    1.413   .     A
C116   C122    1.398   .     A
C117   C119    1.422   .     A
C117   C168    1.403   .     S
C118   C120    1.422   .     A
C118   C167    1.403   1_455 S
C121   H129    1.085   .     S
C121   C153    1.397   .     S
C122   H130    1.085   .     S
C122   C154    1.397   1_455 S
Cu123  Cu124   2.691   .     S
Cu123  O141    1.961   .     S
Cu123  O140    1.947   .     S
Cu123  N136    2.022   .     S
Cu123  O137    1.953   .     S
Cu123  O144    1.945   .     S
Cu124  O138    1.953   .     S
Cu124  N135    2.022   .     S
Cu124  O139    1.947   .     S
Cu124  O142    1.961   .     S
Cu124  O143    1.945   .     S
H131   C205    1.088   .     S
H133   N435    1.029   .     S
H134   N736    1.029   1_554 S
N135   H733    1.029   1_554 S
N135   N736    1.292   1_554 S
N136   N435    1.292   .     S
N136   H434    1.029   .     S
C145   O147    1.221   .     D
H146   C245    1.085   .     S
C148   O150    1.221   .     D
C148   H249    1.085   .     S
C151   O187    1.293   .     A
C151   C155    1.425   .     S
C151   O189    1.285   .     A
C152   O188    1.293   .     A
C152   C156    1.425   .     S
C152   O190    1.285   .     A
C153   C170    1.421   .     A
C153   C195    1.486   .     S
C154   C198    1.486   .     S
C154   C169    1.421   .     A
C154   C122    1.397   1_655 S
C156   C255    1.326   .     S
C156   H282    1.088   .     S
C157   O193    1.292   .     A
C157   C162    1.443   .     S
C157   O191    1.294   .     A
C158   C161    1.443   .     S
C158   O192    1.294   .     A
C158   O194    1.292   .     A
C159   C161    1.395   .     A
C159   H175    1.081   .     S
C159   C169    1.402   .     A
C160   H176    1.081   .     S
C160   C162    1.395   .     A
C160   C170    1.402   .     A
C161   C163    1.391   .     A
C162   C164    1.391   .     A
C163   C165    1.392   .     A
C163   H177    1.085   .     S
C164   H178    1.085   .     S
C164   C166    1.392   .     A
C165   C171    1.398   .     A
C165   C167    1.413   .     A
C166   C168    1.413   .     A
C166   C172    1.398   .     A
C167   C169    1.422   .     A
C167   C118    1.403   1_655 S
C168   C170    1.422   .     A
C171   H179    1.085   .     S
C171   C103    1.397   1_655 S
C172   H180    1.085   .     S
Cu173  Cu174   2.691   .     S
Cu173  O191    1.961   .     S
Cu173  O190    1.947   .     S
Cu173  N186    2.022   .     S
Cu173  O187    1.953   .     S
Cu173  O194    1.945   .     S
Cu174  O188    1.953   .     S
Cu174  N185    2.022   .     S
Cu174  O189    1.947   .     S
Cu174  O192    1.961   .     S
Cu174  O193    1.945   .     S
H181   C255    1.088   .     S
H183   N485    1.029   .     S
H184   N786    1.029   1_554 S
N185   H783    1.029   1_554 S
N185   N786    1.292   1_554 S
N186   N485    1.292   .     S
N186   H484    1.029   .     S
C195   O197    1.221   .     D
H196   C295    1.085   .     S
C198   O200    1.221   .     D
C198   H299    1.085   .     S
C201   O237    1.293   .     A
C201   C205    1.425   .     S
C201   O239    1.285   .     A
C202   O238    1.293   .     A
C202   C206    1.425   .     S
C202   O240    1.285   .     A
C203   C220    1.421   .     A
C203   C245    1.486   .     S
C203   C271    1.397   1_455 S
C204   C248    1.486   .     S
C204   C219    1.421   .     A
C204   C272    1.397   .     S
C206   C5      1.326   1_565 S
C206   H32     1.088   1_565 S
C207   O243    1.292   .     A
C207   C212    1.443   .     S
C207   O241    1.294   .     A
C208   C211    1.443   .     S
C208   O242    1.294   .     A
C208   O244    1.292   .     A
C209   C211    1.395   .     A
C209   H225    1.081   .     S
C209   C219    1.402   .     A
C210   H226    1.081   .     S
C210   C212    1.395   .     A
C210   C220    1.402   .     A
C211   C213    1.391   .     A
C212   C214    1.391   .     A
C213   C215    1.392   .     A
C213   H227    1.085   .     S
C214   H228    1.085   .     S
C214   C216    1.392   .     A
C215   C221    1.398   .     A
C215   C217    1.413   .     A
C216   C218    1.413   .     A
C216   C222    1.398   .     A
C217   C219    1.422   .     A
C217   C268    1.403   .     S
C218   C220    1.422   .     A
C218   C267    1.403   1_455 S
C221   H229    1.085   .     S
C221   C253    1.397   .     S
C222   H230    1.085   .     S
C222   C254    1.397   1_455 S
Cu223  Cu224   2.691   .     S
Cu223  O241    1.961   .     S
Cu223  O240    1.947   .     S
Cu223  N236    2.022   .     S
Cu223  O237    1.953   .     S
Cu223  O244    1.945   .     S
Cu224  O238    1.953   .     S
Cu224  N235    2.022   .     S
Cu224  O239    1.947   .     S
Cu224  O242    1.961   .     S
Cu224  O243    1.945   .     S
H231   C5      1.088   1_565 S
H233   N535    1.029   .     S
H234   N836    1.029   1_554 S
N235   H833    1.029   1_554 S
N235   N836    1.292   1_554 S
N236   N535    1.292   .     S
N236   H534    1.029   .     S
C245   O247    1.221   .     D
H246   C45     1.085   1_565 S
C248   O250    1.221   .     D
C248   H49     1.085   1_565 S
C251   O287    1.293   .     A
C251   C255    1.425   .     S
C251   O289    1.285   .     A
C252   O288    1.293   .     A
C252   C256    1.425   .     S
C252   O290    1.285   .     A
C253   C270    1.421   .     A
C253   C295    1.486   .     S
C254   C298    1.486   .     S
C254   C269    1.421   .     A
C254   C222    1.397   1_655 S
C256   C55     1.326   1_565 S
C256   H82     1.088   1_565 S
C257   O293    1.292   .     A
C257   C262    1.443   .     S
C257   O291    1.294   .     A
C258   C261    1.443   .     S
C258   O292    1.294   .     A
C258   O294    1.292   .     A
C259   C261    1.395   .     A
C259   H275    1.081   .     S
C259   C269    1.402   .     A
C260   H276    1.081   .     S
C260   C262    1.395   .     A
C260   C270    1.402   .     A
C261   C263    1.391   .     A
C262   C264    1.391   .     A
C263   C265    1.392   .     A
C263   H277    1.085   .     S
C264   H278    1.085   .     S
C264   C266    1.392   .     A
C265   C271    1.398   .     A
C265   C267    1.413   .     A
C266   C268    1.413   .     A
C266   C272    1.398   .     A
C267   C269    1.422   .     A
C267   C218    1.403   1_655 S
C268   C270    1.422   .     A
C271   H279    1.085   .     S
C271   C203    1.397   1_655 S
C272   H280    1.085   .     S
Cu273  Cu274   2.691   .     S
Cu273  O291    1.961   .     S
Cu273  O290    1.947   .     S
Cu273  N286    2.022   .     S
Cu273  O287    1.953   .     S
Cu273  O294    1.945   .     S
Cu274  O288    1.953   .     S
Cu274  N285    2.022   .     S
Cu274  O289    1.947   .     S
Cu274  O292    1.961   .     S
Cu274  O293    1.945   .     S
H281   C55     1.088   1_565 S
H283   N585    1.029   .     S
H284   N886    1.029   1_554 S
N285   H883    1.029   1_554 S
N285   N886    1.292   1_554 S
N286   N585    1.292   .     S
N286   H584    1.029   .     S
C295   O297    1.221   .     D
H296   C95     1.085   1_565 S
C298   O300    1.221   .     D
C298   H99     1.085   1_565 S
C301   O337    1.293   .     A
C301   C305    1.425   .     S
C301   O339    1.285   .     A
C302   O338    1.293   .     A
C302   C306    1.425   .     S
C302   O340    1.285   .     A
C303   C320    1.421   .     A
C303   C345    1.486   .     S
C303   C371    1.397   1_455 S
C304   C348    1.486   .     S
C304   C319    1.421   .     A
C304   C372    1.397   .     S
C305   C506    1.326   1_545 S
C305   H531    1.088   1_545 S
C306   C405    1.326   .     S
C306   H432    1.088   .     S
C307   O343    1.292   .     A
C307   C312    1.443   .     S
C307   O341    1.294   .     A
C308   C311    1.443   .     S
C308   O342    1.294   .     A
C308   O344    1.292   .     A
C309   C311    1.395   .     A
C309   H325    1.081   .     S
C309   C319    1.402   .     A
C310   H326    1.081   .     S
C310   C312    1.395   .     A
C310   C320    1.402   .     A
C311   C313    1.391   .     A
C312   C314    1.391   .     A
C313   C315    1.392   .     A
C313   H327    1.085   .     S
C314   H328    1.085   .     S
C314   C316    1.392   .     A
C315   C321    1.398   .     A
C315   C317    1.413   .     A
C316   C318    1.413   .     A
C316   C322    1.398   .     A
C317   C319    1.422   .     A
C317   C368    1.403   .     S
C318   C320    1.422   .     A
C318   C367    1.403   1_455 S
C321   H329    1.085   .     S
C321   C353    1.397   .     S
C322   H330    1.085   .     S
C322   C354    1.397   1_455 S
Cu323  Cu324   2.691   .     S
Cu323  O341    1.961   .     S
Cu323  O340    1.947   .     S
Cu323  N336    2.022   .     S
Cu323  O337    1.953   .     S
Cu323  O344    1.945   .     S
Cu324  O338    1.953   .     S
Cu324  N335    2.022   .     S
Cu324  O339    1.947   .     S
Cu324  O342    1.961   .     S
Cu324  O343    1.945   .     S
H331   C405    1.088   .     S
H332   C506    1.088   1_545 S
H333   N635    1.029   .     S
N336   N635    1.292   .     S
N336   H634    1.029   .     S
C345   O347    1.221   .     D
C345   H546    1.085   1_545 S
H346   C445    1.085   .     S
C348   O350    1.221   .     D
C348   H449    1.085   .     S
H349   C548    1.085   1_545 S
C351   O387    1.293   .     A
C351   C355    1.425   .     S
C351   O389    1.285   .     A
C352   O388    1.293   .     A
C352   C356    1.425   .     S
C352   O390    1.285   .     A
C353   C370    1.421   .     A
C353   C395    1.486   .     S
C354   C398    1.486   .     S
C354   C369    1.421   .     A
C354   C322    1.397   1_655 S
C355   C556    1.326   1_545 S
C355   H581    1.088   1_545 S
C356   C455    1.326   .     S
C356   H482    1.088   .     S
C357   O393    1.292   .     A
C357   C362    1.443   .     S
C357   O391    1.294   .     A
C358   C361    1.443   .     S
C358   O392    1.294   .     A
C358   O394    1.292   .     A
C359   C361    1.395   .     A
C359   H375    1.081   .     S
C359   C369    1.402   .     A
C360   H376    1.081   .     S
C360   C362    1.395   .     A
C360   C370    1.402   .     A
C361   C363    1.391   .     A
C362   C364    1.391   .     A
C363   C365    1.392   .     A
C363   H377    1.085   .     S
C364   H378    1.085   .     S
C364   C366    1.392   .     A
C365   C371    1.398   .     A
C365   C367    1.413   .     A
C366   C368    1.413   .     A
C366   C372    1.398   .     A
C367   C369    1.422   .     A
C367   C318    1.403   1_655 S
C368   C370    1.422   .     A
C371   H379    1.085   .     S
C371   C303    1.397   1_655 S
C372   H380    1.085   .     S
Cu373  Cu374   2.691   .     S
Cu373  O391    1.961   .     S
Cu373  O390    1.947   .     S
Cu373  N386    2.022   .     S
Cu373  O387    1.953   .     S
Cu373  O394    1.945   .     S
Cu374  O388    1.953   .     S
Cu374  N385    2.022   .     S
Cu374  O389    1.947   .     S
Cu374  O392    1.961   .     S
Cu374  O393    1.945   .     S
H381   C455    1.088   .     S
H382   C556    1.088   1_545 S
H383   N685    1.029   .     S
N386   N685    1.292   .     S
N386   H684    1.029   .     S
C395   O397    1.221   .     D
C395   H596    1.085   1_545 S
H396   C495    1.085   .     S
C398   O400    1.221   .     D
C398   H499    1.085   .     S
H399   C598    1.085   1_545 S
C401   O437    1.293   .     A
C401   C405    1.425   .     S
C401   O439    1.285   .     A
C402   O438    1.293   .     A
C402   C406    1.425   .     S
C402   O440    1.285   .     A
C403   C420    1.421   .     A
C403   C445    1.486   .     S
C403   C471    1.397   1_455 S
C404   C448    1.486   .     S
C404   C419    1.421   .     A
C404   C472    1.397   .     S
C406   C505    1.326   .     S
C406   H532    1.088   .     S
C407   O443    1.292   .     A
C407   C412    1.443   .     S
C407   O441    1.294   .     A
C408   C411    1.443   .     S
C408   O442    1.294   .     A
C408   O444    1.292   .     A
C409   C411    1.395   .     A
C409   H425    1.081   .     S
C409   C419    1.402   .     A
C410   H426    1.081   .     S
C410   C412    1.395   .     A
C410   C420    1.402   .     A
C411   C413    1.391   .     A
C412   C414    1.391   .     A
C413   C415    1.392   .     A
C413   H427    1.085   .     S
C414   H428    1.085   .     S
C414   C416    1.392   .     A
C415   C421    1.398   .     A
C415   C417    1.413   .     A
C416   C418    1.413   .     A
C416   C422    1.398   .     A
C417   C419    1.422   .     A
C417   C468    1.403   .     S
C418   C420    1.422   .     A
C418   C467    1.403   1_455 S
C421   H429    1.085   .     S
C421   C453    1.397   .     S
C422   H430    1.085   .     S
C422   C454    1.397   1_455 S
Cu423  Cu424   2.691   .     S
Cu423  O441    1.961   .     S
Cu423  O440    1.947   .     S
Cu423  N436    2.022   .     S
Cu423  O437    1.953   .     S
Cu423  O444    1.945   .     S
Cu424  O438    1.953   .     S
Cu424  N435    2.022   .     S
Cu424  O439    1.947   .     S
Cu424  O442    1.961   .     S
Cu424  O443    1.945   .     S
H431   C505    1.088   .     S
H433   N735    1.029   .     S
N436   N735    1.292   .     S
N436   H734    1.029   .     S
C445   O447    1.221   .     D
H446   C545    1.085   .     S
C448   O450    1.221   .     D
C448   H549    1.085   .     S
C451   O487    1.293   .     A
C451   C455    1.425   .     S
C451   O489    1.285   .     A
C452   O488    1.293   .     A
C452   C456    1.425   .     S
C452   O490    1.285   .     A
C453   C470    1.421   .     A
C453   C495    1.486   .     S
C454   C498    1.486   .     S
C454   C469    1.421   .     A
C454   C422    1.397   1_655 S
C456   C555    1.326   .     S
C456   H582    1.088   .     S
C457   O493    1.292   .     A
C457   C462    1.443   .     S
C457   O491    1.294   .     A
C458   C461    1.443   .     S
C458   O492    1.294   .     A
C458   O494    1.292   .     A
C459   C461    1.395   .     A
C459   H475    1.081   .     S
C459   C469    1.402   .     A
C460   H476    1.081   .     S
C460   C462    1.395   .     A
C460   C470    1.402   .     A
C461   C463    1.391   .     A
C462   C464    1.391   .     A
C463   C465    1.392   .     A
C463   H477    1.085   .     S
C464   H478    1.085   .     S
C464   C466    1.392   .     A
C465   C471    1.398   .     A
C465   C467    1.413   .     A
C466   C468    1.413   .     A
C466   C472    1.398   .     A
C467   C469    1.422   .     A
C467   C418    1.403   1_655 S
C468   C470    1.422   .     A
C471   H479    1.085   .     S
C471   C403    1.397   1_655 S
C472   H480    1.085   .     S
Cu473  Cu474   2.691   .     S
Cu473  O491    1.961   .     S
Cu473  O490    1.947   .     S
Cu473  N486    2.022   .     S
Cu473  O487    1.953   .     S
Cu473  O494    1.945   .     S
Cu474  O488    1.953   .     S
Cu474  N485    2.022   .     S
Cu474  O489    1.947   .     S
Cu474  O492    1.961   .     S
Cu474  O493    1.945   .     S
H481   C555    1.088   .     S
H483   N785    1.029   .     S
N486   N785    1.292   .     S
N486   H784    1.029   .     S
C495   O497    1.221   .     D
H496   C595    1.085   .     S
C498   O500    1.221   .     D
C498   H599    1.085   .     S
C501   O537    1.293   .     A
C501   C505    1.425   .     S
C501   O539    1.285   .     A
C502   O538    1.293   .     A
C502   C506    1.425   .     S
C502   O540    1.285   .     A
C503   C520    1.421   .     A
C503   C545    1.486   .     S
C503   C571    1.397   1_455 S
C504   C548    1.486   .     S
C504   C519    1.421   .     A
C504   C572    1.397   .     S
C506   C305    1.326   1_565 S
C506   H332    1.088   1_565 S
C507   O543    1.292   .     A
C507   C512    1.443   .     S
C507   O541    1.294   .     A
C508   C511    1.443   .     S
C508   O542    1.294   .     A
C508   O544    1.292   .     A
C509   C511    1.395   .     A
C509   H525    1.081   .     S
C509   C519    1.402   .     A
C510   H526    1.081   .     S
C510   C512    1.395   .     A
C510   C520    1.402   .     A
C511   C513    1.391   .     A
C512   C514    1.391   .     A
C513   C515    1.392   .     A
C513   H527    1.085   .     S
C514   H528    1.085   .     S
C514   C516    1.392   .     A
C515   C521    1.398   .     A
C515   C517    1.413   .     A
C516   C518    1.413   .     A
C516   C522    1.398   .     A
C517   C519    1.422   .     A
C517   C568    1.403   .     S
C518   C520    1.422   .     A
C518   C567    1.403   1_455 S
C521   H529    1.085   .     S
C521   C553    1.397   .     S
C522   H530    1.085   .     S
C522   C554    1.397   1_455 S
Cu523  Cu524   2.691   .     S
Cu523  O541    1.961   .     S
Cu523  O540    1.947   .     S
Cu523  N536    2.022   .     S
Cu523  O537    1.953   .     S
Cu523  O544    1.945   .     S
Cu524  O538    1.953   .     S
Cu524  N535    2.022   .     S
Cu524  O539    1.947   .     S
Cu524  O542    1.961   .     S
Cu524  O543    1.945   .     S
H531   C305    1.088   1_565 S
H533   N835    1.029   .     S
N536   N835    1.292   .     S
N536   H834    1.029   .     S
C545   O547    1.221   .     D
H546   C345    1.085   1_565 S
C548   O550    1.221   .     D
C548   H349    1.085   1_565 S
C551   O587    1.293   .     A
C551   C555    1.425   .     S
C551   O589    1.285   .     A
C552   O588    1.293   .     A
C552   C556    1.425   .     S
C552   O590    1.285   .     A
C553   C570    1.421   .     A
C553   C595    1.486   .     S
C554   C598    1.486   .     S
C554   C569    1.421   .     A
C554   C522    1.397   1_655 S
C556   C355    1.326   1_565 S
C556   H382    1.088   1_565 S
C557   O593    1.292   .     A
C557   C562    1.443   .     S
C557   O591    1.294   .     A
C558   C561    1.443   .     S
C558   O592    1.294   .     A
C558   O594    1.292   .     A
C559   C561    1.395   .     A
C559   H575    1.081   .     S
C559   C569    1.402   .     A
C560   H576    1.081   .     S
C560   C562    1.395   .     A
C560   C570    1.402   .     A
C561   C563    1.391   .     A
C562   C564    1.391   .     A
C563   C565    1.392   .     A
C563   H577    1.085   .     S
C564   H578    1.085   .     S
C564   C566    1.392   .     A
C565   C571    1.398   .     A
C565   C567    1.413   .     A
C566   C568    1.413   .     A
C566   C572    1.398   .     A
C567   C569    1.422   .     A
C567   C518    1.403   1_655 S
C568   C570    1.422   .     A
C571   H579    1.085   .     S
C571   C503    1.397   1_655 S
C572   H580    1.085   .     S
Cu573  Cu574   2.691   .     S
Cu573  O591    1.961   .     S
Cu573  O590    1.947   .     S
Cu573  N586    2.022   .     S
Cu573  O587    1.953   .     S
Cu573  O594    1.945   .     S
Cu574  O588    1.953   .     S
Cu574  N585    2.022   .     S
Cu574  O589    1.947   .     S
Cu574  O592    1.961   .     S
Cu574  O593    1.945   .     S
H581   C355    1.088   1_565 S
H583   N885    1.029   .     S
N586   N885    1.292   .     S
N586   H884    1.029   .     S
C595   O597    1.221   .     D
H596   C395    1.085   1_565 S
C598   O600    1.221   .     D
C598   H399    1.085   1_565 S
C601   O637    1.293   .     A
C601   C605    1.425   .     S
C601   O639    1.285   .     A
C602   O638    1.293   .     A
C602   C606    1.425   .     S
C602   O640    1.285   .     A
C603   C620    1.421   .     A
C603   C645    1.486   .     S
C603   C671    1.397   1_455 S
C604   C648    1.486   .     S
C604   C619    1.421   .     A
C604   C672    1.397   .     S
C605   C806    1.326   1_545 S
C605   H831    1.088   1_545 S
C606   C705    1.326   .     S
C606   H732    1.088   .     S
C607   O643    1.292   .     A
C607   C612    1.443   .     S
C607   O641    1.294   .     A
C608   C611    1.443   .     S
C608   O642    1.294   .     A
C608   O644    1.292   .     A
C609   C611    1.395   .     A
C609   H625    1.081   .     S
C609   C619    1.402   .     A
C610   H626    1.081   .     S
C610   C612    1.395   .     A
C610   C620    1.402   .     A
C611   C613    1.391   .     A
C612   C614    1.391   .     A
C613   C615    1.392   .     A
C613   H627    1.085   .     S
C614   H628    1.085   .     S
C614   C616    1.392   .     A
C615   C621    1.398   .     A
C615   C617    1.413   .     A
C616   C618    1.413   .     A
C616   C622    1.398   .     A
C617   C619    1.422   .     A
C617   C668    1.403   .     S
C618   C620    1.422   .     A
C618   C667    1.403   1_455 S
C621   H629    1.085   .     S
C621   C653    1.397   .     S
C622   H630    1.085   .     S
C622   C654    1.397   1_455 S
Cu623  Cu624   2.691   .     S
Cu623  O641    1.961   .     S
Cu623  O640    1.947   .     S
Cu623  N636    2.022   .     S
Cu623  O637    1.953   .     S
Cu623  O644    1.945   .     S
Cu624  O638    1.953   .     S
Cu624  N635    2.022   .     S
Cu624  O639    1.947   .     S
Cu624  O642    1.961   .     S
Cu624  O643    1.945   .     S
H631   C705    1.088   .     S
H632   C806    1.088   1_545 S
H633   N35     1.029   1_556 S
N636   N35     1.292   1_556 S
N636   H34     1.029   1_556 S
C645   O647    1.221   .     D
C645   H846    1.085   1_545 S
H646   C745    1.085   .     S
C648   O650    1.221   .     D
C648   H749    1.085   .     S
H649   C848    1.085   1_545 S
C651   O687    1.293   .     A
C651   C655    1.425   .     S
C651   O689    1.285   .     A
C652   O688    1.293   .     A
C652   C656    1.425   .     S
C652   O690    1.285   .     A
C653   C670    1.421   .     A
C653   C695    1.486   .     S
C654   C698    1.486   .     S
C654   C669    1.421   .     A
C654   C622    1.397   1_655 S
C655   C856    1.326   1_545 S
C655   H881    1.088   1_545 S
C656   C755    1.326   .     S
C656   H782    1.088   .     S
C657   O693    1.292   .     A
C657   C662    1.443   .     S
C657   O691    1.294   .     A
C658   C661    1.443   .     S
C658   O692    1.294   .     A
C658   O694    1.292   .     A
C659   C661    1.395   .     A
C659   H675    1.081   .     S
C659   C669    1.402   .     A
C660   H676    1.081   .     S
C660   C662    1.395   .     A
C660   C670    1.402   .     A
C661   C663    1.391   .     A
C662   C664    1.391   .     A
C663   C665    1.392   .     A
C663   H677    1.085   .     S
C664   H678    1.085   .     S
C664   C666    1.392   .     A
C665   C671    1.398   .     A
C665   C667    1.413   .     A
C666   C668    1.413   .     A
C666   C672    1.398   .     A
C667   C669    1.422   .     A
C667   C618    1.403   1_655 S
C668   C670    1.422   .     A
C671   H679    1.085   .     S
C671   C603    1.397   1_655 S
C672   H680    1.085   .     S
Cu673  Cu674   2.691   .     S
Cu673  O691    1.961   .     S
Cu673  O690    1.947   .     S
Cu673  N686    2.022   .     S
Cu673  O687    1.953   .     S
Cu673  O694    1.945   .     S
Cu674  O688    1.953   .     S
Cu674  N685    2.022   .     S
Cu674  O689    1.947   .     S
Cu674  O692    1.961   .     S
Cu674  O693    1.945   .     S
H681   C755    1.088   .     S
H682   C856    1.088   1_545 S
H683   N85     1.029   1_556 S
N686   N85     1.292   1_556 S
N686   H84     1.029   1_556 S
C695   O697    1.221   .     D
C695   H896    1.085   1_545 S
H696   C795    1.085   .     S
C698   O700    1.221   .     D
C698   H799    1.085   .     S
H699   C898    1.085   1_545 S
C701   O737    1.293   .     A
C701   C705    1.425   .     S
C701   O739    1.285   .     A
C702   O738    1.293   .     A
C702   C706    1.425   .     S
C702   O740    1.285   .     A
C703   C720    1.421   .     A
C703   C745    1.486   .     S
C703   C771    1.397   1_455 S
C704   C748    1.486   .     S
C704   C719    1.421   .     A
C704   C772    1.397   .     S
C706   C805    1.326   .     S
C706   H832    1.088   .     S
C707   O743    1.292   .     A
C707   C712    1.443   .     S
C707   O741    1.294   .     A
C708   C711    1.443   .     S
C708   O742    1.294   .     A
C708   O744    1.292   .     A
C709   C711    1.395   .     A
C709   H725    1.081   .     S
C709   C719    1.402   .     A
C710   H726    1.081   .     S
C710   C712    1.395   .     A
C710   C720    1.402   .     A
C711   C713    1.391   .     A
C712   C714    1.391   .     A
C713   C715    1.392   .     A
C713   H727    1.085   .     S
C714   H728    1.085   .     S
C714   C716    1.392   .     A
C715   C721    1.398   .     A
C715   C717    1.413   .     A
C716   C718    1.413   .     A
C716   C722    1.398   .     A
C717   C719    1.422   .     A
C717   C768    1.403   .     S
C718   C720    1.422   .     A
C718   C767    1.403   1_455 S
C721   H729    1.085   .     S
C721   C753    1.397   .     S
C722   H730    1.085   .     S
C722   C754    1.397   1_455 S
Cu723  Cu724   2.691   .     S
Cu723  O741    1.961   .     S
Cu723  O740    1.947   .     S
Cu723  N736    2.022   .     S
Cu723  O737    1.953   .     S
Cu723  O744    1.945   .     S
Cu724  O738    1.953   .     S
Cu724  N735    2.022   .     S
Cu724  O739    1.947   .     S
Cu724  O742    1.961   .     S
Cu724  O743    1.945   .     S
H731   C805    1.088   .     S
H733   N135    1.029   1_556 S
N736   N135    1.292   1_556 S
N736   H134    1.029   1_556 S
C745   O747    1.221   .     D
H746   C845    1.085   .     S
C748   O750    1.221   .     D
C748   H849    1.085   .     S
C751   O787    1.293   .     A
C751   C755    1.425   .     S
C751   O789    1.285   .     A
C752   O788    1.293   .     A
C752   C756    1.425   .     S
C752   O790    1.285   .     A
C753   C770    1.421   .     A
C753   C795    1.486   .     S
C754   C798    1.486   .     S
C754   C769    1.421   .     A
C754   C722    1.397   1_655 S
C756   C855    1.326   .     S
C756   H882    1.088   .     S
C757   O793    1.292   .     A
C757   C762    1.443   .     S
C757   O791    1.294   .     A
C758   C761    1.443   .     S
C758   O792    1.294   .     A
C758   O794    1.292   .     A
C759   C761    1.395   .     A
C759   H775    1.081   .     S
C759   C769    1.402   .     A
C760   H776    1.081   .     S
C760   C762    1.395   .     A
C760   C770    1.402   .     A
C761   C763    1.391   .     A
C762   C764    1.391   .     A
C763   C765    1.392   .     A
C763   H777    1.085   .     S
C764   H778    1.085   .     S
C764   C766    1.392   .     A
C765   C771    1.398   .     A
C765   C767    1.413   .     A
C766   C768    1.413   .     A
C766   C772    1.398   .     A
C767   C769    1.422   .     A
C767   C718    1.403   1_655 S
C768   C770    1.422   .     A
C771   H779    1.085   .     S
C771   C703    1.397   1_655 S
C772   H780    1.085   .     S
Cu773  Cu774   2.691   .     S
Cu773  O791    1.961   .     S
Cu773  O790    1.947   .     S
Cu773  N786    2.022   .     S
Cu773  O787    1.953   .     S
Cu773  O794    1.945   .     S
Cu774  O788    1.953   .     S
Cu774  N785    2.022   .     S
Cu774  O789    1.947   .     S
Cu774  O792    1.961   .     S
Cu774  O793    1.945   .     S
H781   C855    1.088   .     S
H783   N185    1.029   1_556 S
N786   N185    1.292   1_556 S
N786   H184    1.029   1_556 S
C795   O797    1.221   .     D
H796   C895    1.085   .     S
C798   O800    1.221   .     D
C798   H899    1.085   .     S
C801   O837    1.293   .     A
C801   C805    1.425   .     S
C801   O839    1.285   .     A
C802   O838    1.293   .     A
C802   C806    1.425   .     S
C802   O840    1.285   .     A
C803   C820    1.421   .     A
C803   C845    1.486   .     S
C803   C871    1.397   1_455 S
C804   C848    1.486   .     S
C804   C819    1.421   .     A
C804   C872    1.397   .     S
C806   C605    1.326   1_565 S
C806   H632    1.088   1_565 S
C807   O843    1.292   .     A
C807   C812    1.443   .     S
C807   O841    1.294   .     A
C808   C811    1.443   .     S
C808   O842    1.294   .     A
C808   O844    1.292   .     A
C809   C811    1.395   .     A
C809   H825    1.081   .     S
C809   C819    1.402   .     A
C810   H826    1.081   .     S
C810   C812    1.395   .     A
C810   C820    1.402   .     A
C811   C813    1.391   .     A
C812   C814    1.391   .     A
C813   C815    1.392   .     A
C813   H827    1.085   .     S
C814   H828    1.085   .     S
C814   C816    1.392   .     A
C815   C821    1.398   .     A
C815   C817    1.413   .     A
C816   C818    1.413   .     A
C816   C822    1.398   .     A
C817   C819    1.422   .     A
C817   C868    1.403   .     S
C818   C820    1.422   .     A
C818   C867    1.403   1_455 S
C821   H829    1.085   .     S
C821   C853    1.397   .     S
C822   H830    1.085   .     S
C822   C854    1.397   1_455 S
Cu823  Cu824   2.691   .     S
Cu823  O841    1.961   .     S
Cu823  O840    1.947   .     S
Cu823  N836    2.022   .     S
Cu823  O837    1.953   .     S
Cu823  O844    1.945   .     S
Cu824  O838    1.953   .     S
Cu824  N835    2.022   .     S
Cu824  O839    1.947   .     S
Cu824  O842    1.961   .     S
Cu824  O843    1.945   .     S
H831   C605    1.088   1_565 S
H833   N235    1.029   1_556 S
N836   N235    1.292   1_556 S
N836   H234    1.029   1_556 S
C845   O847    1.221   .     D
H846   C645    1.085   1_565 S
C848   O850    1.221   .     D
C848   H649    1.085   1_565 S
C851   O887    1.293   .     A
C851   C855    1.425   .     S
C851   O889    1.285   .     A
C852   O888    1.293   .     A
C852   C856    1.425   .     S
C852   O890    1.285   .     A
C853   C870    1.421   .     A
C853   C895    1.486   .     S
C854   C898    1.486   .     S
C854   C869    1.421   .     A
C854   C822    1.397   1_655 S
C856   C655    1.326   1_565 S
C856   H682    1.088   1_565 S
C857   O893    1.292   .     A
C857   C862    1.443   .     S
C857   O891    1.294   .     A
C858   C861    1.443   .     S
C858   O892    1.294   .     A
C858   O894    1.292   .     A
C859   C861    1.395   .     A
C859   H875    1.081   .     S
C859   C869    1.402   .     A
C860   H876    1.081   .     S
C860   C862    1.395   .     A
C860   C870    1.402   .     A
C861   C863    1.391   .     A
C862   C864    1.391   .     A
C863   C865    1.392   .     A
C863   H877    1.085   .     S
C864   H878    1.085   .     S
C864   C866    1.392   .     A
C865   C871    1.398   .     A
C865   C867    1.413   .     A
C866   C868    1.413   .     A
C866   C872    1.398   .     A
C867   C869    1.422   .     A
C867   C818    1.403   1_655 S
C868   C870    1.422   .     A
C871   H879    1.085   .     S
C871   C803    1.397   1_655 S
C872   H880    1.085   .     S
Cu873  Cu874   2.691   .     S
Cu873  O891    1.961   .     S
Cu873  O890    1.947   .     S
Cu873  N886    2.022   .     S
Cu873  O887    1.953   .     S
Cu873  O894    1.945   .     S
Cu874  O888    1.953   .     S
Cu874  N885    2.022   .     S
Cu874  O889    1.947   .     S
Cu874  O892    1.961   .     S
Cu874  O893    1.945   .     S
H881   C655    1.088   1_565 S
H883   N285    1.029   1_556 S
N886   N285    1.292   1_556 S
N886   H284    1.029   1_556 S
C895   O897    1.221   .     D
H896   C695    1.085   1_565 S
C898   O900    1.221   .     D
C898   H699    1.085   1_565 S
