data_str_m1_o10_o18_pcu_sym.58
_audit_creation_date              2020-01-03
_audit_creation_method            'Materials Studio'
_symmetry_space_group_name_H-M    'P1'
_symmetry_Int_Tables_number       1
_symmetry_cell_setting            triclinic
loop_
_symmetry_equiv_pos_as_xyz
  x,y,z
_cell_length_a                    32.5066
_cell_length_b                    32.4913
_cell_length_c                    35.8275
_cell_angle_alpha                 98.2859
_cell_angle_beta                  72.8436
_cell_angle_gamma                 98.6370
loop_
_atom_site_label
_atom_site_type_symbol
_atom_site_fract_x
_atom_site_fract_y
_atom_site_fract_z
_atom_site_U_iso_or_equiv
_atom_site_adp_type
_atom_site_occupancy
C1     C     0.05248   0.15999   0.25869   0.00000  Uiso   1.00
C2     C     0.18762   0.12635   0.46315   0.00000  Uiso   1.00
C3     C     0.21225   0.10960   0.48147   0.00000  Uiso   1.00
C4     C     0.28107   0.17361   0.24117   0.00000  Uiso   1.00
C5     C     0.20920   0.12182   0.02088   0.00000  Uiso   1.00
C6     C     0.17808   0.14870   0.04320   0.00000  Uiso   1.00
C7     C     0.23607   0.10623   0.03848   0.00000  Uiso   1.00
C8     C     0.23223   0.11666   0.07875   0.00000  Uiso   1.00
C9     C     0.16957   0.15216   0.08429   0.00000  Uiso   1.00
C10    C     0.32712   0.17647   0.23764   0.00000  Uiso   1.00
C11    C     0.00707   0.15765   0.26205   0.00000  Uiso   1.00
C12    C     0.10073   0.21887   0.42018   0.00000  Uiso   1.00
C13    C     0.18258   0.32280   0.23944   0.00000  Uiso   1.00
C14    C     0.15119   0.01196   0.26150   0.00000  Uiso   1.00
C15    C     0.15535   0.05621   0.25925   0.00000  Uiso   1.00
C16    C     0.17712   0.27779   0.24153   0.00000  Uiso   1.00
C17    C     0.18837   0.14518   0.14407   0.00000  Uiso   1.00
C18    C     0.14556   0.18801   0.35615   0.00000  Uiso   1.00
C19    C     0.13517   0.19619   0.39930   0.00000  Uiso   1.00
C20    C     0.19682   0.13733   0.10166   0.00000  Uiso   1.00
C21    C     0.09169   0.22858   0.46094   0.00000  Uiso   1.00
C22    C     0.03534   0.22231   0.06212   0.00000  Uiso   1.00
C23    C     0.15985   0.18159   0.41971   0.00000  Uiso   1.00
C24    C     0.00208   0.25308   0.08173   0.00000  Uiso   1.00
C25    C     0.29114   0.23033   0.10076   0.00000  Uiso   1.00
C26    C     0.22125   0.00474   0.17798   0.00000  Uiso   1.00
C27    C     0.26113   0.03031   0.15472   0.00000  Uiso   1.00
C28    C     0.30359   0.10967   0.07453   0.00000  Uiso   1.00
C29    C     0.33305   0.11564   0.10140   0.00000  Uiso   1.00
C30    C     0.07195   0.29559   0.47010   0.00000  Uiso   1.00
C31    C     0.09536   0.32189   0.49845   0.00000  Uiso   1.00
C32    C     0.10785   0.03377   0.48867   0.00000  Uiso   1.00
C33    C     0.23207   0.20316   0.40108   0.00000  Uiso   1.00
C34    C     0.14491   0.18247   0.46122   0.00000  Uiso   1.00
C35    C     0.27593   0.19058   0.37634   0.00000  Uiso   1.00
C36    C     0.16200   0.25451   0.07587   0.00000  Uiso   1.00
C37    C     0.16156   0.27656   0.11629   0.00000  Uiso   1.00
C38    C     0.11259   0.20891   0.48208   0.00000  Uiso   1.00
C39    C     0.16301   0.15954   0.48231   0.00000  Uiso   1.00
C40    C     0.15608   0.16965   0.02351   0.00000  Uiso   1.00
C41    C     0.12922   0.20165   0.04262   0.00000  Uiso   1.00
C42    C     0.10386   0.21685   0.02324   0.00000  Uiso   1.00
H43    H     0.26013   0.08633   0.02077   0.00000  Uiso   1.00
H44    H     0.02313   0.20051   0.03971   0.00000  Uiso   1.00
H45    H     0.01344   0.27477   0.10456   0.00000  Uiso   1.00
H46    H     0.33215   0.27191   0.05940   0.00000  Uiso   1.00
H47    H     0.27864   0.20919   0.07830   0.00000  Uiso   1.00
H48    H     0.26784   0.25354   0.11482   0.00000  Uiso   1.00
H49    H     0.29350   0.21175   0.12361   0.00000  Uiso   1.00
H50    H     0.19208   0.01647   0.17472   0.00000  Uiso   1.00
H51    H     0.22244   0.30486   0.16524   0.00000  Uiso   1.00
H52    H     0.29093   0.01936   0.15713   0.00000  Uiso   1.00
H53    H     0.26163   0.02664   0.12329   0.00000  Uiso   1.00
H54    H     0.01695   0.19389   0.21513   0.00000  Uiso   1.00
H55    H     0.26049   0.06391   0.16623   0.00000  Uiso   1.00
H56    H     0.31091   0.13776   0.05814   0.00000  Uiso   1.00
H57    H     0.31142   0.08143   0.05341   0.00000  Uiso   1.00
H58    H     0.33014   0.08676   0.11555   0.00000  Uiso   1.00
H59    H     0.03395   0.12257   0.08398   0.00000  Uiso   1.00
H60    H     0.32423   0.14211   0.12445   0.00000  Uiso   1.00
H61    H     0.04192   0.30954   0.47271   0.00000  Uiso   1.00
H62    H     0.09226   0.29766   0.43921   0.00000  Uiso   1.00
H63    H     0.07380   0.32184   0.02896   0.00000  Uiso   1.00
H64    H     0.12519   0.30807   0.49681   0.00000  Uiso   1.00
H65    H     0.31793   0.13994   0.28465   0.00000  Uiso   1.00
H66    H     0.13035   0.03490   0.45863   0.00000  Uiso   1.00
H67    H     0.12433   0.05193   0.00997   0.00000  Uiso   1.00
H68    H     0.07852   0.04853   0.49056   0.00000  Uiso   1.00
H69    H     0.23356   0.21190   0.43192   0.00000  Uiso   1.00
H70    H     0.22576   0.23091   0.38943   0.00000  Uiso   1.00
H71    H     0.27567   0.18256   0.34521   0.00000  Uiso   1.00
H72    H     0.30159   0.21693   0.37805   0.00000  Uiso   1.00
H73    H     0.28331   0.16302   0.38727   0.00000  Uiso   1.00
H74    H     0.15704   0.27776   0.05799   0.00000  Uiso   1.00
H75    H     0.19440   0.24329   0.06205   0.00000  Uiso   1.00
H76    H     0.12051   0.33068   0.27875   0.00000  Uiso   1.00
H77    H     0.16849   0.25484   0.13437   0.00000  Uiso   1.00
H78    H     0.18672   0.30397   0.11306   0.00000  Uiso   1.00
H79    H     0.12942   0.28760   0.13120   0.00000  Uiso   1.00
H80    H     0.14153   0.16543   0.10377   0.00000  Uiso   1.00
H81    H     0.23320   0.08633   0.46485   0.00000  Uiso   1.00
H82    H     0.08158   0.23060   0.40473   0.00000  Uiso   1.00
H83    H     0.18835   0.11277   0.43368   0.00000  Uiso   1.00
H84    H     0.03902   0.20425   0.08488   0.00000  Uiso   1.00
O85    O     0.16667   0.16667   0.25000   0.00000  Uiso   1.00
O86    O     0.15693   0.12393   0.16625   0.00000  Uiso   1.00
O87    O     0.12687   0.20646   0.33749   0.00000  Uiso   1.00
O88    O     0.21088   0.17493   0.15877   0.00000  Uiso   1.00
O89    O     0.17198   0.16135   0.33749   0.00000  Uiso   1.00
O90    O     0.07526   0.24496   0.04437   0.00000  Uiso   1.00
O91    O     0.22139   0.00902   0.21767   0.00000  Uiso   1.00
O92    O     0.25974   0.10406   0.09720   0.00000  Uiso   1.00
O93    O     0.05946   0.25399   0.48033   0.00000  Uiso   1.00
O94    O     0.19995   0.16915   0.39889   0.00000  Uiso   1.00
O95    O     0.12870   0.22073   0.07974   0.00000  Uiso   1.00
O96    O     0.17849   0.08101   0.27820   0.00000  Uiso   1.00
O97    O     0.14581   0.26136   0.26767   0.00000  Uiso   1.00
O98    O     0.07452   0.13251   0.23607   0.00000  Uiso   1.00
O99    O     0.26785   0.19179   0.21805   0.00000  Uiso   1.00
O100   O     0.06990   0.18960   0.27820   0.00000  Uiso   1.00
O101   O     0.25440   0.15277   0.26767   0.00000  Uiso   1.00
O102   O     0.13800   0.06903   0.23607   0.00000  Uiso   1.00
O103   O     0.20437   0.25527   0.21805   0.00000  Uiso   1.00
Zn104  Zn    0.19244   0.14090   0.28277   0.00000  Uiso   1.00
Zn105  Zn    0.13459   0.12378   0.22257   0.00000  Uiso   1.00
Zn106  Zn    0.21166   0.19664   0.21188   0.00000  Uiso   1.00
Zn107  Zn    0.12798   0.20535   0.28277   0.00000  Uiso   1.00
C108   C     0.38581   0.15999   0.25869   0.00000  Uiso   1.00
C109   C     0.52096   0.12635   0.46315   0.00000  Uiso   1.00
C110   C     0.54559   0.10960   0.48147   0.00000  Uiso   1.00
C111   C     0.61440   0.17361   0.24117   0.00000  Uiso   1.00
C112   C     0.54253   0.12182   0.02088   0.00000  Uiso   1.00
C113   C     0.51141   0.14870   0.04320   0.00000  Uiso   1.00
C114   C     0.56940   0.10623   0.03848   0.00000  Uiso   1.00
C115   C     0.56556   0.11666   0.07875   0.00000  Uiso   1.00
C116   C     0.50290   0.15216   0.08429   0.00000  Uiso   1.00
C117   C     0.66046   0.17647   0.23764   0.00000  Uiso   1.00
C118   C     0.34041   0.15765   0.26205   0.00000  Uiso   1.00
C119   C     0.43406   0.21887   0.42018   0.00000  Uiso   1.00
C120   C     0.51592   0.32280   0.23944   0.00000  Uiso   1.00
C121   C     0.48452   0.01196   0.26150   0.00000  Uiso   1.00
C122   C     0.48868   0.05621   0.25925   0.00000  Uiso   1.00
C123   C     0.51045   0.27779   0.24153   0.00000  Uiso   1.00
C124   C     0.52170   0.14518   0.14407   0.00000  Uiso   1.00
C125   C     0.47889   0.18801   0.35615   0.00000  Uiso   1.00
C126   C     0.46851   0.19619   0.39930   0.00000  Uiso   1.00
C127   C     0.53015   0.13733   0.10166   0.00000  Uiso   1.00
C128   C     0.42502   0.22858   0.46094   0.00000  Uiso   1.00
C129   C     0.36867   0.22231   0.06212   0.00000  Uiso   1.00
C130   C     0.49318   0.18159   0.41971   0.00000  Uiso   1.00
C131   C     0.33541   0.25308   0.08173   0.00000  Uiso   1.00
C132   C     0.62447   0.23033   0.10076   0.00000  Uiso   1.00
C133   C     0.55458   0.00474   0.17798   0.00000  Uiso   1.00
C134   C     0.59446   0.03031   0.15472   0.00000  Uiso   1.00
C135   C     0.63692   0.10967   0.07453   0.00000  Uiso   1.00
C136   C     0.66638   0.11564   0.10140   0.00000  Uiso   1.00
C137   C     0.40528   0.29559   0.47010   0.00000  Uiso   1.00
C138   C     0.42869   0.32189   0.49845   0.00000  Uiso   1.00
C139   C     0.44119   0.03377   0.48867   0.00000  Uiso   1.00
C140   C     0.56540   0.20316   0.40108   0.00000  Uiso   1.00
C141   C     0.47824   0.18247   0.46122   0.00000  Uiso   1.00
C142   C     0.60927   0.19058   0.37634   0.00000  Uiso   1.00
C143   C     0.49533   0.25451   0.07587   0.00000  Uiso   1.00
C144   C     0.49489   0.27656   0.11629   0.00000  Uiso   1.00
C145   C     0.44593   0.20891   0.48208   0.00000  Uiso   1.00
C146   C     0.49634   0.15954   0.48231   0.00000  Uiso   1.00
C147   C     0.48941   0.16965   0.02351   0.00000  Uiso   1.00
C148   C     0.46255   0.20165   0.04262   0.00000  Uiso   1.00
C149   C     0.43719   0.21685   0.02324   0.00000  Uiso   1.00
H150   H     0.59346   0.08633   0.02077   0.00000  Uiso   1.00
H151   H     0.35646   0.20051   0.03971   0.00000  Uiso   1.00
H152   H     0.34677   0.27477   0.10456   0.00000  Uiso   1.00
H153   H     0.66549   0.27191   0.05940   0.00000  Uiso   1.00
H154   H     0.61197   0.20919   0.07830   0.00000  Uiso   1.00
H155   H     0.60117   0.25354   0.11482   0.00000  Uiso   1.00
H156   H     0.62684   0.21175   0.12361   0.00000  Uiso   1.00
H157   H     0.52542   0.01647   0.17472   0.00000  Uiso   1.00
H158   H     0.55577   0.30486   0.16524   0.00000  Uiso   1.00
H159   H     0.62426   0.01936   0.15713   0.00000  Uiso   1.00
H160   H     0.59497   0.02664   0.12329   0.00000  Uiso   1.00
H161   H     0.35028   0.19389   0.21513   0.00000  Uiso   1.00
H162   H     0.59382   0.06391   0.16623   0.00000  Uiso   1.00
H163   H     0.64425   0.13776   0.05814   0.00000  Uiso   1.00
H164   H     0.64475   0.08143   0.05341   0.00000  Uiso   1.00
H165   H     0.66348   0.08676   0.11555   0.00000  Uiso   1.00
H166   H     0.36728   0.12257   0.08398   0.00000  Uiso   1.00
H167   H     0.65756   0.14211   0.12445   0.00000  Uiso   1.00
H168   H     0.37525   0.30954   0.47271   0.00000  Uiso   1.00
H169   H     0.42559   0.29766   0.43921   0.00000  Uiso   1.00
H170   H     0.40713   0.32184   0.02896   0.00000  Uiso   1.00
H171   H     0.45852   0.30807   0.49681   0.00000  Uiso   1.00
H172   H     0.65127   0.13994   0.28465   0.00000  Uiso   1.00
H173   H     0.46369   0.03490   0.45863   0.00000  Uiso   1.00
H174   H     0.45766   0.05193   0.00997   0.00000  Uiso   1.00
H175   H     0.41186   0.04853   0.49056   0.00000  Uiso   1.00
H176   H     0.56689   0.21190   0.43192   0.00000  Uiso   1.00
H177   H     0.55909   0.23091   0.38943   0.00000  Uiso   1.00
H178   H     0.60900   0.18256   0.34521   0.00000  Uiso   1.00
H179   H     0.63493   0.21693   0.37805   0.00000  Uiso   1.00
H180   H     0.61664   0.16302   0.38727   0.00000  Uiso   1.00
H181   H     0.49037   0.27776   0.05799   0.00000  Uiso   1.00
H182   H     0.52773   0.24329   0.06205   0.00000  Uiso   1.00
H183   H     0.45384   0.33068   0.27875   0.00000  Uiso   1.00
H184   H     0.50182   0.25484   0.13437   0.00000  Uiso   1.00
H185   H     0.52005   0.30397   0.11306   0.00000  Uiso   1.00
H186   H     0.46275   0.28760   0.13120   0.00000  Uiso   1.00
H187   H     0.47486   0.16543   0.10377   0.00000  Uiso   1.00
H188   H     0.56653   0.08633   0.46485   0.00000  Uiso   1.00
H189   H     0.41491   0.23060   0.40473   0.00000  Uiso   1.00
H190   H     0.52168   0.11277   0.43368   0.00000  Uiso   1.00
H191   H     0.37236   0.20425   0.08488   0.00000  Uiso   1.00
O192   O     0.50000   0.16667   0.25000   0.00000  Uiso   1.00
O193   O     0.49027   0.12393   0.16625   0.00000  Uiso   1.00
O194   O     0.46020   0.20646   0.33749   0.00000  Uiso   1.00
O195   O     0.54421   0.17493   0.15877   0.00000  Uiso   1.00
O196   O     0.50532   0.16135   0.33749   0.00000  Uiso   1.00
O197   O     0.40859   0.24496   0.04437   0.00000  Uiso   1.00
O198   O     0.55472   0.00902   0.21767   0.00000  Uiso   1.00
O199   O     0.59307   0.10406   0.09720   0.00000  Uiso   1.00
O200   O     0.39279   0.25399   0.48033   0.00000  Uiso   1.00
O201   O     0.53328   0.16915   0.39889   0.00000  Uiso   1.00
O202   O     0.46204   0.22073   0.07974   0.00000  Uiso   1.00
O203   O     0.51182   0.08101   0.27820   0.00000  Uiso   1.00
O204   O     0.47914   0.26136   0.26767   0.00000  Uiso   1.00
O205   O     0.40785   0.13251   0.23607   0.00000  Uiso   1.00
O206   O     0.60119   0.19179   0.21805   0.00000  Uiso   1.00
O207   O     0.40323   0.18960   0.27820   0.00000  Uiso   1.00
O208   O     0.58773   0.15277   0.26767   0.00000  Uiso   1.00
O209   O     0.47133   0.06903   0.23607   0.00000  Uiso   1.00
O210   O     0.53771   0.25527   0.21805   0.00000  Uiso   1.00
Zn211  Zn    0.52577   0.14090   0.28277   0.00000  Uiso   1.00
Zn212  Zn    0.46792   0.12378   0.22257   0.00000  Uiso   1.00
Zn213  Zn    0.54500   0.19664   0.21188   0.00000  Uiso   1.00
Zn214  Zn    0.46131   0.20535   0.28277   0.00000  Uiso   1.00
C215   C     0.71915   0.15999   0.25869   0.00000  Uiso   1.00
C216   C     0.85429   0.12635   0.46315   0.00000  Uiso   1.00
C217   C     0.87892   0.10960   0.48147   0.00000  Uiso   1.00
C218   C     0.94774   0.17361   0.24117   0.00000  Uiso   1.00
C219   C     0.87587   0.12182   0.02088   0.00000  Uiso   1.00
C220   C     0.84474   0.14870   0.04320   0.00000  Uiso   1.00
C221   C     0.90273   0.10623   0.03848   0.00000  Uiso   1.00
C222   C     0.89890   0.11666   0.07875   0.00000  Uiso   1.00
C223   C     0.83623   0.15216   0.08429   0.00000  Uiso   1.00
C224   C     0.99379   0.17647   0.23764   0.00000  Uiso   1.00
C225   C     0.67374   0.15765   0.26205   0.00000  Uiso   1.00
C226   C     0.76739   0.21887   0.42018   0.00000  Uiso   1.00
C227   C     0.84925   0.32280   0.23944   0.00000  Uiso   1.00
C228   C     0.81785   0.01196   0.26150   0.00000  Uiso   1.00
C229   C     0.82202   0.05621   0.25925   0.00000  Uiso   1.00
C230   C     0.84379   0.27779   0.24153   0.00000  Uiso   1.00
C231   C     0.85504   0.14518   0.14407   0.00000  Uiso   1.00
C232   C     0.81222   0.18801   0.35615   0.00000  Uiso   1.00
C233   C     0.80184   0.19619   0.39930   0.00000  Uiso   1.00
C234   C     0.86349   0.13733   0.10166   0.00000  Uiso   1.00
C235   C     0.75835   0.22858   0.46094   0.00000  Uiso   1.00
C236   C     0.70201   0.22231   0.06212   0.00000  Uiso   1.00
C237   C     0.82651   0.18159   0.41971   0.00000  Uiso   1.00
C238   C     0.66874   0.25308   0.08173   0.00000  Uiso   1.00
C239   C     0.95780   0.23033   0.10076   0.00000  Uiso   1.00
C240   C     0.88791   0.00474   0.17798   0.00000  Uiso   1.00
C241   C     0.92780   0.03031   0.15472   0.00000  Uiso   1.00
C242   C     0.97025   0.10967   0.07453   0.00000  Uiso   1.00
C243   C     0.99971   0.11564   0.10140   0.00000  Uiso   1.00
C244   C     0.73862   0.29559   0.47010   0.00000  Uiso   1.00
C245   C     0.76202   0.32189   0.49845   0.00000  Uiso   1.00
C246   C     0.77452   0.03377   0.48867   0.00000  Uiso   1.00
C247   C     0.89873   0.20316   0.40108   0.00000  Uiso   1.00
C248   C     0.81158   0.18247   0.46122   0.00000  Uiso   1.00
C249   C     0.94260   0.19058   0.37634   0.00000  Uiso   1.00
C250   C     0.82866   0.25451   0.07587   0.00000  Uiso   1.00
C251   C     0.82823   0.27656   0.11629   0.00000  Uiso   1.00
C252   C     0.77926   0.20891   0.48208   0.00000  Uiso   1.00
C253   C     0.82968   0.15954   0.48231   0.00000  Uiso   1.00
C254   C     0.82275   0.16965   0.02351   0.00000  Uiso   1.00
C255   C     0.79589   0.20165   0.04262   0.00000  Uiso   1.00
C256   C     0.77052   0.21685   0.02324   0.00000  Uiso   1.00
H257   H     0.92679   0.08633   0.02077   0.00000  Uiso   1.00
H258   H     0.68980   0.20051   0.03971   0.00000  Uiso   1.00
H259   H     0.68011   0.27477   0.10456   0.00000  Uiso   1.00
H260   H     0.99882   0.27191   0.05940   0.00000  Uiso   1.00
H261   H     0.94531   0.20919   0.07830   0.00000  Uiso   1.00
H262   H     0.93450   0.25354   0.11482   0.00000  Uiso   1.00
H263   H     0.96017   0.21175   0.12361   0.00000  Uiso   1.00
H264   H     0.85875   0.01647   0.17472   0.00000  Uiso   1.00
H265   H     0.88910   0.30486   0.16524   0.00000  Uiso   1.00
H266   H     0.95759   0.01936   0.15713   0.00000  Uiso   1.00
H267   H     0.92830   0.02664   0.12329   0.00000  Uiso   1.00
H268   H     0.68362   0.19389   0.21513   0.00000  Uiso   1.00
H269   H     0.92716   0.06391   0.16623   0.00000  Uiso   1.00
H270   H     0.97758   0.13776   0.05814   0.00000  Uiso   1.00
H271   H     0.97808   0.08143   0.05341   0.00000  Uiso   1.00
H272   H     0.99681   0.08676   0.11555   0.00000  Uiso   1.00
H273   H     0.70062   0.12257   0.08398   0.00000  Uiso   1.00
H274   H     0.99089   0.14211   0.12445   0.00000  Uiso   1.00
H275   H     0.70859   0.30954   0.47271   0.00000  Uiso   1.00
H276   H     0.75892   0.29766   0.43921   0.00000  Uiso   1.00
H277   H     0.74046   0.32184   0.02896   0.00000  Uiso   1.00
H278   H     0.79185   0.30807   0.49681   0.00000  Uiso   1.00
H279   H     0.98460   0.13994   0.28465   0.00000  Uiso   1.00
H280   H     0.79702   0.03490   0.45863   0.00000  Uiso   1.00
H281   H     0.79099   0.05193   0.00997   0.00000  Uiso   1.00
H282   H     0.74519   0.04853   0.49056   0.00000  Uiso   1.00
H283   H     0.90022   0.21190   0.43192   0.00000  Uiso   1.00
H284   H     0.89243   0.23091   0.38943   0.00000  Uiso   1.00
H285   H     0.94234   0.18256   0.34521   0.00000  Uiso   1.00
H286   H     0.96826   0.21693   0.37805   0.00000  Uiso   1.00
H287   H     0.94997   0.16302   0.38727   0.00000  Uiso   1.00
H288   H     0.82371   0.27776   0.05799   0.00000  Uiso   1.00
H289   H     0.86107   0.24329   0.06205   0.00000  Uiso   1.00
H290   H     0.78717   0.33068   0.27875   0.00000  Uiso   1.00
H291   H     0.83516   0.25484   0.13437   0.00000  Uiso   1.00
H292   H     0.85339   0.30397   0.11306   0.00000  Uiso   1.00
H293   H     0.79609   0.28760   0.13120   0.00000  Uiso   1.00
H294   H     0.80820   0.16543   0.10377   0.00000  Uiso   1.00
H295   H     0.89987   0.08633   0.46485   0.00000  Uiso   1.00
H296   H     0.74824   0.23060   0.40473   0.00000  Uiso   1.00
H297   H     0.85501   0.11277   0.43368   0.00000  Uiso   1.00
H298   H     0.70569   0.20425   0.08488   0.00000  Uiso   1.00
O299   O     0.83333   0.16667   0.25000   0.00000  Uiso   1.00
O300   O     0.82360   0.12393   0.16625   0.00000  Uiso   1.00
O301   O     0.79354   0.20646   0.33749   0.00000  Uiso   1.00
O302   O     0.87755   0.17493   0.15877   0.00000  Uiso   1.00
O303   O     0.83865   0.16135   0.33749   0.00000  Uiso   1.00
O304   O     0.74193   0.24496   0.04437   0.00000  Uiso   1.00
O305   O     0.88805   0.00902   0.21767   0.00000  Uiso   1.00
O306   O     0.92640   0.10406   0.09720   0.00000  Uiso   1.00
O307   O     0.72612   0.25399   0.48033   0.00000  Uiso   1.00
O308   O     0.86662   0.16915   0.39889   0.00000  Uiso   1.00
O309   O     0.79537   0.22073   0.07974   0.00000  Uiso   1.00
O310   O     0.84515   0.08101   0.27820   0.00000  Uiso   1.00
O311   O     0.81247   0.26136   0.26767   0.00000  Uiso   1.00
O312   O     0.74119   0.13251   0.23607   0.00000  Uiso   1.00
O313   O     0.93452   0.19179   0.21805   0.00000  Uiso   1.00
O314   O     0.73656   0.18960   0.27820   0.00000  Uiso   1.00
O315   O     0.92106   0.15277   0.26767   0.00000  Uiso   1.00
O316   O     0.80467   0.06903   0.23607   0.00000  Uiso   1.00
O317   O     0.87104   0.25527   0.21805   0.00000  Uiso   1.00
Zn318  Zn    0.85910   0.14090   0.28277   0.00000  Uiso   1.00
Zn319  Zn    0.80125   0.12378   0.22257   0.00000  Uiso   1.00
Zn320  Zn    0.87833   0.19664   0.21188   0.00000  Uiso   1.00
Zn321  Zn    0.79465   0.20535   0.28277   0.00000  Uiso   1.00
C322   C     0.05248   0.49333   0.25869   0.00000  Uiso   1.00
C323   C     0.18762   0.45969   0.46315   0.00000  Uiso   1.00
C324   C     0.21225   0.44294   0.48147   0.00000  Uiso   1.00
C325   C     0.28107   0.50695   0.24117   0.00000  Uiso   1.00
C326   C     0.20920   0.45516   0.02088   0.00000  Uiso   1.00
C327   C     0.17808   0.48203   0.04320   0.00000  Uiso   1.00
C328   C     0.23607   0.43956   0.03848   0.00000  Uiso   1.00
C329   C     0.23223   0.44999   0.07875   0.00000  Uiso   1.00
C330   C     0.16957   0.48549   0.08429   0.00000  Uiso   1.00
C331   C     0.32712   0.50980   0.23764   0.00000  Uiso   1.00
C332   C     0.00707   0.49098   0.26205   0.00000  Uiso   1.00
C333   C     0.10073   0.55220   0.42018   0.00000  Uiso   1.00
C334   C     0.18258   0.65613   0.23944   0.00000  Uiso   1.00
C335   C     0.15119   0.34529   0.26150   0.00000  Uiso   1.00
C336   C     0.15535   0.38954   0.25925   0.00000  Uiso   1.00
C337   C     0.17712   0.61112   0.24153   0.00000  Uiso   1.00
C338   C     0.18837   0.47851   0.14407   0.00000  Uiso   1.00
C339   C     0.14556   0.52134   0.35615   0.00000  Uiso   1.00
C340   C     0.13517   0.52952   0.39930   0.00000  Uiso   1.00
C341   C     0.19682   0.47067   0.10166   0.00000  Uiso   1.00
C342   C     0.09169   0.56191   0.46094   0.00000  Uiso   1.00
C343   C     0.03534   0.55564   0.06212   0.00000  Uiso   1.00
C344   C     0.15985   0.51493   0.41971   0.00000  Uiso   1.00
C345   C     0.00208   0.58641   0.08173   0.00000  Uiso   1.00
C346   C     0.29114   0.56367   0.10076   0.00000  Uiso   1.00
C347   C     0.22125   0.33808   0.17798   0.00000  Uiso   1.00
C348   C     0.26113   0.36364   0.15472   0.00000  Uiso   1.00
C349   C     0.30359   0.44300   0.07453   0.00000  Uiso   1.00
C350   C     0.33305   0.44897   0.10140   0.00000  Uiso   1.00
C351   C     0.07195   0.62892   0.47010   0.00000  Uiso   1.00
C352   C     0.09536   0.65522   0.49845   0.00000  Uiso   1.00
C353   C     0.10785   0.36710   0.48867   0.00000  Uiso   1.00
C354   C     0.23207   0.53650   0.40108   0.00000  Uiso   1.00
C355   C     0.14491   0.51580   0.46122   0.00000  Uiso   1.00
C356   C     0.27593   0.52391   0.37634   0.00000  Uiso   1.00
C357   C     0.16200   0.58785   0.07587   0.00000  Uiso   1.00
C358   C     0.16156   0.60990   0.11629   0.00000  Uiso   1.00
C359   C     0.11259   0.54224   0.48208   0.00000  Uiso   1.00
C360   C     0.16301   0.49287   0.48231   0.00000  Uiso   1.00
C361   C     0.15608   0.50298   0.02351   0.00000  Uiso   1.00
C362   C     0.12922   0.53499   0.04262   0.00000  Uiso   1.00
C363   C     0.10386   0.55018   0.02324   0.00000  Uiso   1.00
H364   H     0.26013   0.41966   0.02077   0.00000  Uiso   1.00
H365   H     0.02313   0.53385   0.03971   0.00000  Uiso   1.00
H366   H     0.01344   0.60810   0.10456   0.00000  Uiso   1.00
H367   H     0.33215   0.60524   0.05940   0.00000  Uiso   1.00
H368   H     0.27864   0.54252   0.07830   0.00000  Uiso   1.00
H369   H     0.26784   0.58687   0.11482   0.00000  Uiso   1.00
H370   H     0.29350   0.54509   0.12361   0.00000  Uiso   1.00
H371   H     0.19208   0.34980   0.17472   0.00000  Uiso   1.00
H372   H     0.22244   0.63819   0.16524   0.00000  Uiso   1.00
H373   H     0.29093   0.35269   0.15713   0.00000  Uiso   1.00
H374   H     0.26163   0.35998   0.12329   0.00000  Uiso   1.00
H375   H     0.01695   0.52722   0.21513   0.00000  Uiso   1.00
H376   H     0.26049   0.39724   0.16623   0.00000  Uiso   1.00
H377   H     0.31091   0.47109   0.05814   0.00000  Uiso   1.00
H378   H     0.31142   0.41476   0.05341   0.00000  Uiso   1.00
H379   H     0.33014   0.42010   0.11555   0.00000  Uiso   1.00
H380   H     0.03395   0.45590   0.08398   0.00000  Uiso   1.00
H381   H     0.32423   0.47544   0.12445   0.00000  Uiso   1.00
H382   H     0.04192   0.64287   0.47271   0.00000  Uiso   1.00
H383   H     0.09226   0.63100   0.43921   0.00000  Uiso   1.00
H384   H     0.07380   0.65517   0.02896   0.00000  Uiso   1.00
H385   H     0.12519   0.64140   0.49681   0.00000  Uiso   1.00
H386   H     0.31793   0.47327   0.28465   0.00000  Uiso   1.00
H387   H     0.13035   0.36824   0.45863   0.00000  Uiso   1.00
H388   H     0.12433   0.38526   0.00997   0.00000  Uiso   1.00
H389   H     0.07852   0.38187   0.49056   0.00000  Uiso   1.00
H390   H     0.23356   0.54524   0.43192   0.00000  Uiso   1.00
H391   H     0.22576   0.56424   0.38943   0.00000  Uiso   1.00
H392   H     0.27567   0.51589   0.34521   0.00000  Uiso   1.00
H393   H     0.30159   0.55027   0.37805   0.00000  Uiso   1.00
H394   H     0.28331   0.49635   0.38727   0.00000  Uiso   1.00
H395   H     0.15704   0.61109   0.05799   0.00000  Uiso   1.00
H396   H     0.19440   0.57663   0.06205   0.00000  Uiso   1.00
H397   H     0.12051   0.66401   0.27875   0.00000  Uiso   1.00
H398   H     0.16849   0.58818   0.13437   0.00000  Uiso   1.00
H399   H     0.18672   0.63731   0.11306   0.00000  Uiso   1.00
H400   H     0.12942   0.62094   0.13120   0.00000  Uiso   1.00
H401   H     0.14153   0.49877   0.10377   0.00000  Uiso   1.00
H402   H     0.23320   0.41967   0.46485   0.00000  Uiso   1.00
H403   H     0.08158   0.56393   0.40473   0.00000  Uiso   1.00
H404   H     0.18835   0.44610   0.43368   0.00000  Uiso   1.00
H405   H     0.03902   0.53758   0.08488   0.00000  Uiso   1.00
O406   O     0.16667   0.50000   0.25000   0.00000  Uiso   1.00
O407   O     0.15693   0.45726   0.16625   0.00000  Uiso   1.00
O408   O     0.12687   0.53979   0.33749   0.00000  Uiso   1.00
O409   O     0.21088   0.50826   0.15877   0.00000  Uiso   1.00
O410   O     0.17198   0.49468   0.33749   0.00000  Uiso   1.00
O411   O     0.07526   0.57829   0.04437   0.00000  Uiso   1.00
O412   O     0.22139   0.34235   0.21767   0.00000  Uiso   1.00
O413   O     0.25974   0.43740   0.09720   0.00000  Uiso   1.00
O414   O     0.05946   0.58732   0.48033   0.00000  Uiso   1.00
O415   O     0.19995   0.50248   0.39889   0.00000  Uiso   1.00
O416   O     0.12870   0.55407   0.07974   0.00000  Uiso   1.00
O417   O     0.17849   0.41434   0.27820   0.00000  Uiso   1.00
O418   O     0.14581   0.59469   0.26767   0.00000  Uiso   1.00
O419   O     0.07452   0.46584   0.23607   0.00000  Uiso   1.00
O420   O     0.26785   0.52512   0.21805   0.00000  Uiso   1.00
O421   O     0.06990   0.52293   0.27820   0.00000  Uiso   1.00
O422   O     0.25440   0.48610   0.26767   0.00000  Uiso   1.00
O423   O     0.13800   0.40236   0.23607   0.00000  Uiso   1.00
O424   O     0.20437   0.58860   0.21805   0.00000  Uiso   1.00
Zn425  Zn    0.19244   0.47423   0.28277   0.00000  Uiso   1.00
Zn426  Zn    0.13459   0.45711   0.22257   0.00000  Uiso   1.00
Zn427  Zn    0.21166   0.52997   0.21188   0.00000  Uiso   1.00
Zn428  Zn    0.12798   0.53868   0.28277   0.00000  Uiso   1.00
C429   C     0.38581   0.49333   0.25869   0.00000  Uiso   1.00
C430   C     0.52096   0.45969   0.46315   0.00000  Uiso   1.00
C431   C     0.54559   0.44294   0.48147   0.00000  Uiso   1.00
C432   C     0.61440   0.50695   0.24117   0.00000  Uiso   1.00
C433   C     0.54253   0.45516   0.02088   0.00000  Uiso   1.00
C434   C     0.51141   0.48203   0.04320   0.00000  Uiso   1.00
C435   C     0.56940   0.43956   0.03848   0.00000  Uiso   1.00
C436   C     0.56556   0.44999   0.07875   0.00000  Uiso   1.00
C437   C     0.50290   0.48549   0.08429   0.00000  Uiso   1.00
C438   C     0.66046   0.50980   0.23764   0.00000  Uiso   1.00
C439   C     0.34041   0.49098   0.26205   0.00000  Uiso   1.00
C440   C     0.43406   0.55220   0.42018   0.00000  Uiso   1.00
C441   C     0.51592   0.65613   0.23944   0.00000  Uiso   1.00
C442   C     0.48452   0.34529   0.26150   0.00000  Uiso   1.00
C443   C     0.48868   0.38954   0.25925   0.00000  Uiso   1.00
C444   C     0.51045   0.61112   0.24153   0.00000  Uiso   1.00
C445   C     0.52170   0.47851   0.14407   0.00000  Uiso   1.00
C446   C     0.47889   0.52134   0.35615   0.00000  Uiso   1.00
C447   C     0.46851   0.52952   0.39930   0.00000  Uiso   1.00
C448   C     0.53015   0.47067   0.10166   0.00000  Uiso   1.00
C449   C     0.42502   0.56191   0.46094   0.00000  Uiso   1.00
C450   C     0.36867   0.55564   0.06212   0.00000  Uiso   1.00
C451   C     0.49318   0.51493   0.41971   0.00000  Uiso   1.00
C452   C     0.33541   0.58641   0.08173   0.00000  Uiso   1.00
C453   C     0.62447   0.56367   0.10076   0.00000  Uiso   1.00
C454   C     0.55458   0.33808   0.17798   0.00000  Uiso   1.00
C455   C     0.59446   0.36364   0.15472   0.00000  Uiso   1.00
C456   C     0.63692   0.44300   0.07453   0.00000  Uiso   1.00
C457   C     0.66638   0.44897   0.10140   0.00000  Uiso   1.00
C458   C     0.40528   0.62892   0.47010   0.00000  Uiso   1.00
C459   C     0.42869   0.65522   0.49845   0.00000  Uiso   1.00
C460   C     0.44119   0.36710   0.48867   0.00000  Uiso   1.00
C461   C     0.56540   0.53650   0.40108   0.00000  Uiso   1.00
C462   C     0.47824   0.51580   0.46122   0.00000  Uiso   1.00
C463   C     0.60927   0.52391   0.37634   0.00000  Uiso   1.00
C464   C     0.49533   0.58785   0.07587   0.00000  Uiso   1.00
C465   C     0.49489   0.60990   0.11629   0.00000  Uiso   1.00
C466   C     0.44593   0.54224   0.48208   0.00000  Uiso   1.00
C467   C     0.49634   0.49287   0.48231   0.00000  Uiso   1.00
C468   C     0.48941   0.50298   0.02351   0.00000  Uiso   1.00
C469   C     0.46255   0.53499   0.04262   0.00000  Uiso   1.00
C470   C     0.43719   0.55018   0.02324   0.00000  Uiso   1.00
H471   H     0.59346   0.41966   0.02077   0.00000  Uiso   1.00
H472   H     0.35646   0.53385   0.03971   0.00000  Uiso   1.00
H473   H     0.34677   0.60810   0.10456   0.00000  Uiso   1.00
H474   H     0.66549   0.60524   0.05940   0.00000  Uiso   1.00
H475   H     0.61197   0.54252   0.07830   0.00000  Uiso   1.00
H476   H     0.60117   0.58687   0.11482   0.00000  Uiso   1.00
H477   H     0.62684   0.54509   0.12361   0.00000  Uiso   1.00
H478   H     0.52542   0.34980   0.17472   0.00000  Uiso   1.00
H479   H     0.55577   0.63819   0.16524   0.00000  Uiso   1.00
H480   H     0.62426   0.35269   0.15713   0.00000  Uiso   1.00
H481   H     0.59497   0.35998   0.12329   0.00000  Uiso   1.00
H482   H     0.35028   0.52722   0.21513   0.00000  Uiso   1.00
H483   H     0.59382   0.39724   0.16623   0.00000  Uiso   1.00
H484   H     0.64425   0.47109   0.05814   0.00000  Uiso   1.00
H485   H     0.64475   0.41476   0.05341   0.00000  Uiso   1.00
H486   H     0.66348   0.42010   0.11555   0.00000  Uiso   1.00
H487   H     0.36728   0.45590   0.08398   0.00000  Uiso   1.00
H488   H     0.65756   0.47544   0.12445   0.00000  Uiso   1.00
H489   H     0.37525   0.64287   0.47271   0.00000  Uiso   1.00
H490   H     0.42559   0.63100   0.43921   0.00000  Uiso   1.00
H491   H     0.40713   0.65517   0.02896   0.00000  Uiso   1.00
H492   H     0.45852   0.64140   0.49681   0.00000  Uiso   1.00
H493   H     0.65127   0.47327   0.28465   0.00000  Uiso   1.00
H494   H     0.46369   0.36824   0.45863   0.00000  Uiso   1.00
H495   H     0.45766   0.38526   0.00997   0.00000  Uiso   1.00
H496   H     0.41186   0.38187   0.49056   0.00000  Uiso   1.00
H497   H     0.56689   0.54524   0.43192   0.00000  Uiso   1.00
H498   H     0.55909   0.56424   0.38943   0.00000  Uiso   1.00
H499   H     0.60900   0.51589   0.34521   0.00000  Uiso   1.00
H500   H     0.63493   0.55027   0.37805   0.00000  Uiso   1.00
H501   H     0.61664   0.49635   0.38727   0.00000  Uiso   1.00
H502   H     0.49037   0.61109   0.05799   0.00000  Uiso   1.00
H503   H     0.52773   0.57663   0.06205   0.00000  Uiso   1.00
H504   H     0.45384   0.66401   0.27875   0.00000  Uiso   1.00
H505   H     0.50182   0.58818   0.13437   0.00000  Uiso   1.00
H506   H     0.52005   0.63731   0.11306   0.00000  Uiso   1.00
H507   H     0.46275   0.62094   0.13120   0.00000  Uiso   1.00
H508   H     0.47486   0.49877   0.10377   0.00000  Uiso   1.00
H509   H     0.56653   0.41967   0.46485   0.00000  Uiso   1.00
H510   H     0.41491   0.56393   0.40473   0.00000  Uiso   1.00
H511   H     0.52168   0.44610   0.43368   0.00000  Uiso   1.00
H512   H     0.37236   0.53758   0.08488   0.00000  Uiso   1.00
O513   O     0.50000   0.50000   0.25000   0.00000  Uiso   1.00
O514   O     0.49027   0.45726   0.16625   0.00000  Uiso   1.00
O515   O     0.46020   0.53979   0.33749   0.00000  Uiso   1.00
O516   O     0.54421   0.50826   0.15877   0.00000  Uiso   1.00
O517   O     0.50532   0.49468   0.33749   0.00000  Uiso   1.00
O518   O     0.40859   0.57829   0.04437   0.00000  Uiso   1.00
O519   O     0.55472   0.34235   0.21767   0.00000  Uiso   1.00
O520   O     0.59307   0.43740   0.09720   0.00000  Uiso   1.00
O521   O     0.39279   0.58732   0.48033   0.00000  Uiso   1.00
O522   O     0.53328   0.50248   0.39889   0.00000  Uiso   1.00
O523   O     0.46204   0.55407   0.07974   0.00000  Uiso   1.00
O524   O     0.51182   0.41434   0.27820   0.00000  Uiso   1.00
O525   O     0.47914   0.59469   0.26767   0.00000  Uiso   1.00
O526   O     0.40785   0.46584   0.23607   0.00000  Uiso   1.00
O527   O     0.60119   0.52512   0.21805   0.00000  Uiso   1.00
O528   O     0.40323   0.52293   0.27820   0.00000  Uiso   1.00
O529   O     0.58773   0.48610   0.26767   0.00000  Uiso   1.00
O530   O     0.47133   0.40236   0.23607   0.00000  Uiso   1.00
O531   O     0.53771   0.58860   0.21805   0.00000  Uiso   1.00
Zn532  Zn    0.52577   0.47423   0.28277   0.00000  Uiso   1.00
Zn533  Zn    0.46792   0.45711   0.22257   0.00000  Uiso   1.00
Zn534  Zn    0.54500   0.52997   0.21188   0.00000  Uiso   1.00
Zn535  Zn    0.46131   0.53868   0.28277   0.00000  Uiso   1.00
C536   C     0.71915   0.49333   0.25869   0.00000  Uiso   1.00
C537   C     0.85429   0.45969   0.46315   0.00000  Uiso   1.00
C538   C     0.87892   0.44294   0.48147   0.00000  Uiso   1.00
C539   C     0.94774   0.50695   0.24117   0.00000  Uiso   1.00
C540   C     0.87587   0.45516   0.02088   0.00000  Uiso   1.00
C541   C     0.84474   0.48203   0.04320   0.00000  Uiso   1.00
C542   C     0.90273   0.43956   0.03848   0.00000  Uiso   1.00
C543   C     0.89890   0.44999   0.07875   0.00000  Uiso   1.00
C544   C     0.83623   0.48549   0.08429   0.00000  Uiso   1.00
C545   C     0.99379   0.50980   0.23764   0.00000  Uiso   1.00
C546   C     0.67374   0.49098   0.26205   0.00000  Uiso   1.00
C547   C     0.76739   0.55220   0.42018   0.00000  Uiso   1.00
C548   C     0.84925   0.65613   0.23944   0.00000  Uiso   1.00
C549   C     0.81785   0.34529   0.26150   0.00000  Uiso   1.00
C550   C     0.82202   0.38954   0.25925   0.00000  Uiso   1.00
C551   C     0.84379   0.61112   0.24153   0.00000  Uiso   1.00
C552   C     0.85504   0.47851   0.14407   0.00000  Uiso   1.00
C553   C     0.81222   0.52134   0.35615   0.00000  Uiso   1.00
C554   C     0.80184   0.52952   0.39930   0.00000  Uiso   1.00
C555   C     0.86349   0.47067   0.10166   0.00000  Uiso   1.00
C556   C     0.75835   0.56191   0.46094   0.00000  Uiso   1.00
C557   C     0.70201   0.55564   0.06212   0.00000  Uiso   1.00
C558   C     0.82651   0.51493   0.41971   0.00000  Uiso   1.00
C559   C     0.66874   0.58641   0.08173   0.00000  Uiso   1.00
C560   C     0.95780   0.56367   0.10076   0.00000  Uiso   1.00
C561   C     0.88791   0.33808   0.17798   0.00000  Uiso   1.00
C562   C     0.92780   0.36364   0.15472   0.00000  Uiso   1.00
C563   C     0.97025   0.44300   0.07453   0.00000  Uiso   1.00
C564   C     0.99971   0.44897   0.10140   0.00000  Uiso   1.00
C565   C     0.73862   0.62892   0.47010   0.00000  Uiso   1.00
C566   C     0.76202   0.65522   0.49845   0.00000  Uiso   1.00
C567   C     0.77452   0.36710   0.48867   0.00000  Uiso   1.00
C568   C     0.89873   0.53650   0.40108   0.00000  Uiso   1.00
C569   C     0.81158   0.51580   0.46122   0.00000  Uiso   1.00
C570   C     0.94260   0.52391   0.37634   0.00000  Uiso   1.00
C571   C     0.82866   0.58785   0.07587   0.00000  Uiso   1.00
C572   C     0.82823   0.60990   0.11629   0.00000  Uiso   1.00
C573   C     0.77926   0.54224   0.48208   0.00000  Uiso   1.00
C574   C     0.82968   0.49287   0.48231   0.00000  Uiso   1.00
C575   C     0.82275   0.50298   0.02351   0.00000  Uiso   1.00
C576   C     0.79589   0.53499   0.04262   0.00000  Uiso   1.00
C577   C     0.77052   0.55018   0.02324   0.00000  Uiso   1.00
H578   H     0.92679   0.41966   0.02077   0.00000  Uiso   1.00
H579   H     0.68980   0.53385   0.03971   0.00000  Uiso   1.00
H580   H     0.68011   0.60810   0.10456   0.00000  Uiso   1.00
H581   H     0.99882   0.60524   0.05940   0.00000  Uiso   1.00
H582   H     0.94531   0.54252   0.07830   0.00000  Uiso   1.00
H583   H     0.93450   0.58687   0.11482   0.00000  Uiso   1.00
H584   H     0.96017   0.54509   0.12361   0.00000  Uiso   1.00
H585   H     0.85875   0.34980   0.17472   0.00000  Uiso   1.00
H586   H     0.88910   0.63819   0.16524   0.00000  Uiso   1.00
H587   H     0.95759   0.35269   0.15713   0.00000  Uiso   1.00
H588   H     0.92830   0.35998   0.12329   0.00000  Uiso   1.00
H589   H     0.68362   0.52722   0.21513   0.00000  Uiso   1.00
H590   H     0.92716   0.39724   0.16623   0.00000  Uiso   1.00
H591   H     0.97758   0.47109   0.05814   0.00000  Uiso   1.00
H592   H     0.97808   0.41476   0.05341   0.00000  Uiso   1.00
H593   H     0.99681   0.42010   0.11555   0.00000  Uiso   1.00
H594   H     0.70062   0.45590   0.08398   0.00000  Uiso   1.00
H595   H     0.99089   0.47544   0.12445   0.00000  Uiso   1.00
H596   H     0.70859   0.64287   0.47271   0.00000  Uiso   1.00
H597   H     0.75892   0.63100   0.43921   0.00000  Uiso   1.00
H598   H     0.74046   0.65517   0.02896   0.00000  Uiso   1.00
H599   H     0.79185   0.64140   0.49681   0.00000  Uiso   1.00
H600   H     0.98460   0.47327   0.28465   0.00000  Uiso   1.00
H601   H     0.79702   0.36824   0.45863   0.00000  Uiso   1.00
H602   H     0.79099   0.38526   0.00997   0.00000  Uiso   1.00
H603   H     0.74519   0.38187   0.49056   0.00000  Uiso   1.00
H604   H     0.90022   0.54524   0.43192   0.00000  Uiso   1.00
H605   H     0.89243   0.56424   0.38943   0.00000  Uiso   1.00
H606   H     0.94234   0.51589   0.34521   0.00000  Uiso   1.00
H607   H     0.96826   0.55027   0.37805   0.00000  Uiso   1.00
H608   H     0.94997   0.49635   0.38727   0.00000  Uiso   1.00
H609   H     0.82371   0.61109   0.05799   0.00000  Uiso   1.00
H610   H     0.86107   0.57663   0.06205   0.00000  Uiso   1.00
H611   H     0.78717   0.66401   0.27875   0.00000  Uiso   1.00
H612   H     0.83516   0.58818   0.13437   0.00000  Uiso   1.00
H613   H     0.85339   0.63731   0.11306   0.00000  Uiso   1.00
H614   H     0.79609   0.62094   0.13120   0.00000  Uiso   1.00
H615   H     0.80820   0.49877   0.10377   0.00000  Uiso   1.00
H616   H     0.89987   0.41967   0.46485   0.00000  Uiso   1.00
H617   H     0.74824   0.56393   0.40473   0.00000  Uiso   1.00
H618   H     0.85501   0.44610   0.43368   0.00000  Uiso   1.00
H619   H     0.70569   0.53758   0.08488   0.00000  Uiso   1.00
O620   O     0.83333   0.50000   0.25000   0.00000  Uiso   1.00
O621   O     0.82360   0.45726   0.16625   0.00000  Uiso   1.00
O622   O     0.79354   0.53979   0.33749   0.00000  Uiso   1.00
O623   O     0.87755   0.50826   0.15877   0.00000  Uiso   1.00
O624   O     0.83865   0.49468   0.33749   0.00000  Uiso   1.00
O625   O     0.74193   0.57829   0.04437   0.00000  Uiso   1.00
O626   O     0.88805   0.34235   0.21767   0.00000  Uiso   1.00
O627   O     0.92640   0.43740   0.09720   0.00000  Uiso   1.00
O628   O     0.72612   0.58732   0.48033   0.00000  Uiso   1.00
O629   O     0.86662   0.50248   0.39889   0.00000  Uiso   1.00
O630   O     0.79537   0.55407   0.07974   0.00000  Uiso   1.00
O631   O     0.84515   0.41434   0.27820   0.00000  Uiso   1.00
O632   O     0.81247   0.59469   0.26767   0.00000  Uiso   1.00
O633   O     0.74119   0.46584   0.23607   0.00000  Uiso   1.00
O634   O     0.93452   0.52512   0.21805   0.00000  Uiso   1.00
O635   O     0.73656   0.52293   0.27820   0.00000  Uiso   1.00
O636   O     0.92106   0.48610   0.26767   0.00000  Uiso   1.00
O637   O     0.80467   0.40236   0.23607   0.00000  Uiso   1.00
O638   O     0.87104   0.58860   0.21805   0.00000  Uiso   1.00
Zn639  Zn    0.85910   0.47423   0.28277   0.00000  Uiso   1.00
Zn640  Zn    0.80125   0.45711   0.22257   0.00000  Uiso   1.00
Zn641  Zn    0.87833   0.52997   0.21188   0.00000  Uiso   1.00
Zn642  Zn    0.79465   0.53868   0.28277   0.00000  Uiso   1.00
C643   C     0.05248   0.82666   0.25869   0.00000  Uiso   1.00
C644   C     0.18762   0.79302   0.46315   0.00000  Uiso   1.00
C645   C     0.21225   0.77627   0.48147   0.00000  Uiso   1.00
C646   C     0.28107   0.84028   0.24117   0.00000  Uiso   1.00
C647   C     0.20920   0.78849   0.02088   0.00000  Uiso   1.00
C648   C     0.17808   0.81536   0.04320   0.00000  Uiso   1.00
C649   C     0.23607   0.77290   0.03848   0.00000  Uiso   1.00
C650   C     0.23223   0.78333   0.07875   0.00000  Uiso   1.00
C651   C     0.16957   0.81883   0.08429   0.00000  Uiso   1.00
C652   C     0.32712   0.84313   0.23764   0.00000  Uiso   1.00
C653   C     0.00707   0.82432   0.26205   0.00000  Uiso   1.00
C654   C     0.10073   0.88554   0.42018   0.00000  Uiso   1.00
C655   C     0.18258   0.98947   0.23944   0.00000  Uiso   1.00
C656   C     0.15119   0.67863   0.26150   0.00000  Uiso   1.00
C657   C     0.15535   0.72288   0.25925   0.00000  Uiso   1.00
C658   C     0.17712   0.94445   0.24153   0.00000  Uiso   1.00
C659   C     0.18837   0.81185   0.14407   0.00000  Uiso   1.00
C660   C     0.14556   0.85467   0.35615   0.00000  Uiso   1.00
C661   C     0.13517   0.86285   0.39930   0.00000  Uiso   1.00
C662   C     0.19682   0.80400   0.10166   0.00000  Uiso   1.00
C663   C     0.09169   0.89524   0.46094   0.00000  Uiso   1.00
C664   C     0.03534   0.88898   0.06212   0.00000  Uiso   1.00
C665   C     0.15985   0.84826   0.41971   0.00000  Uiso   1.00
C666   C     0.00208   0.91975   0.08173   0.00000  Uiso   1.00
C667   C     0.29114   0.89700   0.10076   0.00000  Uiso   1.00
C668   C     0.22125   0.67141   0.17798   0.00000  Uiso   1.00
C669   C     0.26113   0.69697   0.15472   0.00000  Uiso   1.00
C670   C     0.30359   0.77634   0.07453   0.00000  Uiso   1.00
C671   C     0.33305   0.78231   0.10140   0.00000  Uiso   1.00
C672   C     0.07195   0.96225   0.47010   0.00000  Uiso   1.00
C673   C     0.09536   0.98855   0.49845   0.00000  Uiso   1.00
C674   C     0.10785   0.70043   0.48867   0.00000  Uiso   1.00
C675   C     0.23207   0.86983   0.40108   0.00000  Uiso   1.00
C676   C     0.14491   0.84913   0.46122   0.00000  Uiso   1.00
C677   C     0.27593   0.85725   0.37634   0.00000  Uiso   1.00
C678   C     0.16200   0.92118   0.07587   0.00000  Uiso   1.00
C679   C     0.16156   0.94323   0.11629   0.00000  Uiso   1.00
C680   C     0.11259   0.87558   0.48208   0.00000  Uiso   1.00
C681   C     0.16301   0.82620   0.48231   0.00000  Uiso   1.00
C682   C     0.15608   0.83632   0.02351   0.00000  Uiso   1.00
C683   C     0.12922   0.86832   0.04262   0.00000  Uiso   1.00
C684   C     0.10386   0.88352   0.02324   0.00000  Uiso   1.00
H685   H     0.26013   0.75300   0.02077   0.00000  Uiso   1.00
H686   H     0.02313   0.86718   0.03971   0.00000  Uiso   1.00
H687   H     0.01344   0.94143   0.10456   0.00000  Uiso   1.00
H688   H     0.33215   0.93857   0.05940   0.00000  Uiso   1.00
H689   H     0.27864   0.87585   0.07830   0.00000  Uiso   1.00
H690   H     0.26784   0.92020   0.11482   0.00000  Uiso   1.00
H691   H     0.29350   0.87842   0.12361   0.00000  Uiso   1.00
H692   H     0.19208   0.68313   0.17472   0.00000  Uiso   1.00
H693   H     0.22244   0.97152   0.16524   0.00000  Uiso   1.00
H694   H     0.29093   0.68603   0.15713   0.00000  Uiso   1.00
H695   H     0.26163   0.69331   0.12329   0.00000  Uiso   1.00
H696   H     0.01695   0.86056   0.21513   0.00000  Uiso   1.00
H697   H     0.26049   0.73058   0.16623   0.00000  Uiso   1.00
H698   H     0.31091   0.80443   0.05814   0.00000  Uiso   1.00
H699   H     0.31142   0.74810   0.05341   0.00000  Uiso   1.00
H700   H     0.33014   0.75343   0.11555   0.00000  Uiso   1.00
H701   H     0.03395   0.78923   0.08398   0.00000  Uiso   1.00
H702   H     0.32423   0.80878   0.12445   0.00000  Uiso   1.00
H703   H     0.04192   0.97620   0.47271   0.00000  Uiso   1.00
H704   H     0.09226   0.96433   0.43921   0.00000  Uiso   1.00
H705   H     0.07380   0.98850   0.02896   0.00000  Uiso   1.00
H706   H     0.12519   0.97473   0.49681   0.00000  Uiso   1.00
H707   H     0.31793   0.80660   0.28465   0.00000  Uiso   1.00
H708   H     0.13035   0.70157   0.45863   0.00000  Uiso   1.00
H709   H     0.12433   0.71860   0.00997   0.00000  Uiso   1.00
H710   H     0.07852   0.71520   0.49056   0.00000  Uiso   1.00
H711   H     0.23356   0.87857   0.43192   0.00000  Uiso   1.00
H712   H     0.22576   0.89758   0.38943   0.00000  Uiso   1.00
H713   H     0.27567   0.84922   0.34521   0.00000  Uiso   1.00
H714   H     0.30159   0.88360   0.37805   0.00000  Uiso   1.00
H715   H     0.28331   0.82969   0.38727   0.00000  Uiso   1.00
H716   H     0.15704   0.94442   0.05799   0.00000  Uiso   1.00
H717   H     0.19440   0.90996   0.06205   0.00000  Uiso   1.00
H718   H     0.12051   0.99734   0.27875   0.00000  Uiso   1.00
H719   H     0.16849   0.92151   0.13437   0.00000  Uiso   1.00
H720   H     0.18672   0.97064   0.11306   0.00000  Uiso   1.00
H721   H     0.12942   0.95427   0.13120   0.00000  Uiso   1.00
H722   H     0.14153   0.83210   0.10377   0.00000  Uiso   1.00
H723   H     0.23320   0.75300   0.46485   0.00000  Uiso   1.00
H724   H     0.08158   0.89726   0.40473   0.00000  Uiso   1.00
H725   H     0.18835   0.77944   0.43368   0.00000  Uiso   1.00
H726   H     0.03902   0.87091   0.08488   0.00000  Uiso   1.00
O727   O     0.16667   0.83333   0.25000   0.00000  Uiso   1.00
O728   O     0.15693   0.79060   0.16625   0.00000  Uiso   1.00
O729   O     0.12687   0.87313   0.33749   0.00000  Uiso   1.00
O730   O     0.21088   0.84159   0.15877   0.00000  Uiso   1.00
O731   O     0.17198   0.82802   0.33749   0.00000  Uiso   1.00
O732   O     0.07526   0.91162   0.04437   0.00000  Uiso   1.00
O733   O     0.22139   0.67569   0.21767   0.00000  Uiso   1.00
O734   O     0.25974   0.77073   0.09720   0.00000  Uiso   1.00
O735   O     0.05946   0.92066   0.48033   0.00000  Uiso   1.00
O736   O     0.19995   0.83582   0.39889   0.00000  Uiso   1.00
O737   O     0.12870   0.88740   0.07974   0.00000  Uiso   1.00
O738   O     0.17849   0.74768   0.27820   0.00000  Uiso   1.00
O739   O     0.14581   0.92803   0.26767   0.00000  Uiso   1.00
O740   O     0.07452   0.79917   0.23607   0.00000  Uiso   1.00
O741   O     0.26785   0.85845   0.21805   0.00000  Uiso   1.00
O742   O     0.06990   0.85627   0.27820   0.00000  Uiso   1.00
O743   O     0.25440   0.81944   0.26767   0.00000  Uiso   1.00
O744   O     0.13800   0.73570   0.23607   0.00000  Uiso   1.00
O745   O     0.20437   0.92193   0.21805   0.00000  Uiso   1.00
Zn746  Zn    0.19244   0.80756   0.28277   0.00000  Uiso   1.00
Zn747  Zn    0.13459   0.79044   0.22257   0.00000  Uiso   1.00
Zn748  Zn    0.21166   0.86331   0.21188   0.00000  Uiso   1.00
Zn749  Zn    0.12798   0.87202   0.28277   0.00000  Uiso   1.00
C750   C     0.38581   0.82666   0.25869   0.00000  Uiso   1.00
C751   C     0.52096   0.79302   0.46315   0.00000  Uiso   1.00
C752   C     0.54559   0.77627   0.48147   0.00000  Uiso   1.00
C753   C     0.61440   0.84028   0.24117   0.00000  Uiso   1.00
C754   C     0.54253   0.78849   0.02088   0.00000  Uiso   1.00
C755   C     0.51141   0.81536   0.04320   0.00000  Uiso   1.00
C756   C     0.56940   0.77290   0.03848   0.00000  Uiso   1.00
C757   C     0.56556   0.78333   0.07875   0.00000  Uiso   1.00
C758   C     0.50290   0.81883   0.08429   0.00000  Uiso   1.00
C759   C     0.66046   0.84313   0.23764   0.00000  Uiso   1.00
C760   C     0.34041   0.82432   0.26205   0.00000  Uiso   1.00
C761   C     0.43406   0.88554   0.42018   0.00000  Uiso   1.00
C762   C     0.51592   0.98947   0.23944   0.00000  Uiso   1.00
C763   C     0.48452   0.67863   0.26150   0.00000  Uiso   1.00
C764   C     0.48868   0.72288   0.25925   0.00000  Uiso   1.00
C765   C     0.51045   0.94445   0.24153   0.00000  Uiso   1.00
C766   C     0.52170   0.81185   0.14407   0.00000  Uiso   1.00
C767   C     0.47889   0.85467   0.35615   0.00000  Uiso   1.00
C768   C     0.46851   0.86285   0.39930   0.00000  Uiso   1.00
C769   C     0.53015   0.80400   0.10166   0.00000  Uiso   1.00
C770   C     0.42502   0.89524   0.46094   0.00000  Uiso   1.00
C771   C     0.36867   0.88898   0.06212   0.00000  Uiso   1.00
C772   C     0.49318   0.84826   0.41971   0.00000  Uiso   1.00
C773   C     0.33541   0.91975   0.08173   0.00000  Uiso   1.00
C774   C     0.62447   0.89700   0.10076   0.00000  Uiso   1.00
C775   C     0.55458   0.67141   0.17798   0.00000  Uiso   1.00
C776   C     0.59446   0.69697   0.15472   0.00000  Uiso   1.00
C777   C     0.63692   0.77634   0.07453   0.00000  Uiso   1.00
C778   C     0.66638   0.78231   0.10140   0.00000  Uiso   1.00
C779   C     0.40528   0.96225   0.47010   0.00000  Uiso   1.00
C780   C     0.42869   0.98855   0.49845   0.00000  Uiso   1.00
C781   C     0.44119   0.70043   0.48867   0.00000  Uiso   1.00
C782   C     0.56540   0.86983   0.40108   0.00000  Uiso   1.00
C783   C     0.47824   0.84913   0.46122   0.00000  Uiso   1.00
C784   C     0.60927   0.85725   0.37634   0.00000  Uiso   1.00
C785   C     0.49533   0.92118   0.07587   0.00000  Uiso   1.00
C786   C     0.49489   0.94323   0.11629   0.00000  Uiso   1.00
C787   C     0.44593   0.87558   0.48208   0.00000  Uiso   1.00
C788   C     0.49634   0.82620   0.48231   0.00000  Uiso   1.00
C789   C     0.48941   0.83632   0.02351   0.00000  Uiso   1.00
C790   C     0.46255   0.86832   0.04262   0.00000  Uiso   1.00
C791   C     0.43719   0.88352   0.02324   0.00000  Uiso   1.00
H792   H     0.59346   0.75300   0.02077   0.00000  Uiso   1.00
H793   H     0.35646   0.86718   0.03971   0.00000  Uiso   1.00
H794   H     0.34677   0.94143   0.10456   0.00000  Uiso   1.00
H795   H     0.66549   0.93857   0.05940   0.00000  Uiso   1.00
H796   H     0.61197   0.87585   0.07830   0.00000  Uiso   1.00
H797   H     0.60117   0.92020   0.11482   0.00000  Uiso   1.00
H798   H     0.62684   0.87842   0.12361   0.00000  Uiso   1.00
H799   H     0.52542   0.68313   0.17472   0.00000  Uiso   1.00
H800   H     0.55577   0.97152   0.16524   0.00000  Uiso   1.00
H801   H     0.62426   0.68603   0.15713   0.00000  Uiso   1.00
H802   H     0.59497   0.69331   0.12329   0.00000  Uiso   1.00
H803   H     0.35028   0.86056   0.21513   0.00000  Uiso   1.00
H804   H     0.59382   0.73058   0.16623   0.00000  Uiso   1.00
H805   H     0.64425   0.80443   0.05814   0.00000  Uiso   1.00
H806   H     0.64475   0.74810   0.05341   0.00000  Uiso   1.00
H807   H     0.66348   0.75343   0.11555   0.00000  Uiso   1.00
H808   H     0.36728   0.78923   0.08398   0.00000  Uiso   1.00
H809   H     0.65756   0.80878   0.12445   0.00000  Uiso   1.00
H810   H     0.37525   0.97620   0.47271   0.00000  Uiso   1.00
H811   H     0.42559   0.96433   0.43921   0.00000  Uiso   1.00
H812   H     0.40713   0.98850   0.02896   0.00000  Uiso   1.00
H813   H     0.45852   0.97473   0.49681   0.00000  Uiso   1.00
H814   H     0.65127   0.80660   0.28465   0.00000  Uiso   1.00
H815   H     0.46369   0.70157   0.45863   0.00000  Uiso   1.00
H816   H     0.45766   0.71860   0.00997   0.00000  Uiso   1.00
H817   H     0.41186   0.71520   0.49056   0.00000  Uiso   1.00
H818   H     0.56689   0.87857   0.43192   0.00000  Uiso   1.00
H819   H     0.55909   0.89758   0.38943   0.00000  Uiso   1.00
H820   H     0.60900   0.84922   0.34521   0.00000  Uiso   1.00
H821   H     0.63493   0.88360   0.37805   0.00000  Uiso   1.00
H822   H     0.61664   0.82969   0.38727   0.00000  Uiso   1.00
H823   H     0.49037   0.94442   0.05799   0.00000  Uiso   1.00
H824   H     0.52773   0.90996   0.06205   0.00000  Uiso   1.00
H825   H     0.45384   0.99734   0.27875   0.00000  Uiso   1.00
H826   H     0.50182   0.92151   0.13437   0.00000  Uiso   1.00
H827   H     0.52005   0.97064   0.11306   0.00000  Uiso   1.00
H828   H     0.46275   0.95427   0.13120   0.00000  Uiso   1.00
H829   H     0.47486   0.83210   0.10377   0.00000  Uiso   1.00
H830   H     0.56653   0.75300   0.46485   0.00000  Uiso   1.00
H831   H     0.41491   0.89726   0.40473   0.00000  Uiso   1.00
H832   H     0.52168   0.77944   0.43368   0.00000  Uiso   1.00
H833   H     0.37236   0.87091   0.08488   0.00000  Uiso   1.00
O834   O     0.50000   0.83333   0.25000   0.00000  Uiso   1.00
O835   O     0.49027   0.79060   0.16625   0.00000  Uiso   1.00
O836   O     0.46020   0.87313   0.33749   0.00000  Uiso   1.00
O837   O     0.54421   0.84159   0.15877   0.00000  Uiso   1.00
O838   O     0.50532   0.82802   0.33749   0.00000  Uiso   1.00
O839   O     0.40859   0.91162   0.04437   0.00000  Uiso   1.00
O840   O     0.55472   0.67569   0.21767   0.00000  Uiso   1.00
O841   O     0.59307   0.77073   0.09720   0.00000  Uiso   1.00
O842   O     0.39279   0.92066   0.48033   0.00000  Uiso   1.00
O843   O     0.53328   0.83582   0.39889   0.00000  Uiso   1.00
O844   O     0.46204   0.88740   0.07974   0.00000  Uiso   1.00
O845   O     0.51182   0.74768   0.27820   0.00000  Uiso   1.00
O846   O     0.47914   0.92803   0.26767   0.00000  Uiso   1.00
O847   O     0.40785   0.79917   0.23607   0.00000  Uiso   1.00
O848   O     0.60119   0.85845   0.21805   0.00000  Uiso   1.00
O849   O     0.40323   0.85627   0.27820   0.00000  Uiso   1.00
O850   O     0.58773   0.81944   0.26767   0.00000  Uiso   1.00
O851   O     0.47133   0.73570   0.23607   0.00000  Uiso   1.00
O852   O     0.53771   0.92193   0.21805   0.00000  Uiso   1.00
Zn853  Zn    0.52577   0.80756   0.28277   0.00000  Uiso   1.00
Zn854  Zn    0.46792   0.79044   0.22257   0.00000  Uiso   1.00
Zn855  Zn    0.54500   0.86331   0.21188   0.00000  Uiso   1.00
Zn856  Zn    0.46131   0.87202   0.28277   0.00000  Uiso   1.00
C857   C     0.71915   0.82666   0.25869   0.00000  Uiso   1.00
C858   C     0.85429   0.79302   0.46315   0.00000  Uiso   1.00
C859   C     0.87892   0.77627   0.48147   0.00000  Uiso   1.00
C860   C     0.94774   0.84028   0.24117   0.00000  Uiso   1.00
C861   C     0.87587   0.78849   0.02088   0.00000  Uiso   1.00
C862   C     0.84474   0.81536   0.04320   0.00000  Uiso   1.00
C863   C     0.90273   0.77290   0.03848   0.00000  Uiso   1.00
C864   C     0.89890   0.78333   0.07875   0.00000  Uiso   1.00
C865   C     0.83623   0.81883   0.08429   0.00000  Uiso   1.00
C866   C     0.99379   0.84313   0.23764   0.00000  Uiso   1.00
C867   C     0.67374   0.82432   0.26205   0.00000  Uiso   1.00
C868   C     0.76739   0.88554   0.42018   0.00000  Uiso   1.00
C869   C     0.84925   0.98947   0.23944   0.00000  Uiso   1.00
C870   C     0.81785   0.67863   0.26150   0.00000  Uiso   1.00
C871   C     0.82202   0.72288   0.25925   0.00000  Uiso   1.00
C872   C     0.84379   0.94445   0.24153   0.00000  Uiso   1.00
C873   C     0.85504   0.81185   0.14407   0.00000  Uiso   1.00
C874   C     0.81222   0.85467   0.35615   0.00000  Uiso   1.00
C875   C     0.80184   0.86285   0.39930   0.00000  Uiso   1.00
C876   C     0.86349   0.80400   0.10166   0.00000  Uiso   1.00
C877   C     0.75835   0.89524   0.46094   0.00000  Uiso   1.00
C878   C     0.70201   0.88898   0.06212   0.00000  Uiso   1.00
C879   C     0.82651   0.84826   0.41971   0.00000  Uiso   1.00
C880   C     0.66874   0.91975   0.08173   0.00000  Uiso   1.00
C881   C     0.95780   0.89700   0.10076   0.00000  Uiso   1.00
C882   C     0.88791   0.67141   0.17798   0.00000  Uiso   1.00
C883   C     0.92780   0.69697   0.15472   0.00000  Uiso   1.00
C884   C     0.97025   0.77634   0.07453   0.00000  Uiso   1.00
C885   C     0.99971   0.78231   0.10140   0.00000  Uiso   1.00
C886   C     0.73862   0.96225   0.47010   0.00000  Uiso   1.00
C887   C     0.76202   0.98855   0.49845   0.00000  Uiso   1.00
C888   C     0.77452   0.70043   0.48867   0.00000  Uiso   1.00
C889   C     0.89873   0.86983   0.40108   0.00000  Uiso   1.00
C890   C     0.81158   0.84913   0.46122   0.00000  Uiso   1.00
C891   C     0.94260   0.85725   0.37634   0.00000  Uiso   1.00
C892   C     0.82866   0.92118   0.07587   0.00000  Uiso   1.00
C893   C     0.82823   0.94323   0.11629   0.00000  Uiso   1.00
C894   C     0.77926   0.87558   0.48208   0.00000  Uiso   1.00
C895   C     0.82968   0.82620   0.48231   0.00000  Uiso   1.00
C896   C     0.82275   0.83632   0.02351   0.00000  Uiso   1.00
C897   C     0.79589   0.86832   0.04262   0.00000  Uiso   1.00
C898   C     0.77052   0.88352   0.02324   0.00000  Uiso   1.00
H899   H     0.92679   0.75300   0.02077   0.00000  Uiso   1.00
H900   H     0.68980   0.86718   0.03971   0.00000  Uiso   1.00
H901   H     0.68011   0.94143   0.10456   0.00000  Uiso   1.00
H902   H     0.99882   0.93857   0.05940   0.00000  Uiso   1.00
H903   H     0.94531   0.87585   0.07830   0.00000  Uiso   1.00
H904   H     0.93450   0.92020   0.11482   0.00000  Uiso   1.00
H905   H     0.96017   0.87842   0.12361   0.00000  Uiso   1.00
H906   H     0.85875   0.68313   0.17472   0.00000  Uiso   1.00
H907   H     0.88910   0.97152   0.16524   0.00000  Uiso   1.00
H908   H     0.95759   0.68603   0.15713   0.00000  Uiso   1.00
H909   H     0.92830   0.69331   0.12329   0.00000  Uiso   1.00
H910   H     0.68362   0.86056   0.21513   0.00000  Uiso   1.00
H911   H     0.92716   0.73058   0.16623   0.00000  Uiso   1.00
H912   H     0.97758   0.80443   0.05814   0.00000  Uiso   1.00
H913   H     0.97808   0.74810   0.05341   0.00000  Uiso   1.00
H914   H     0.99681   0.75343   0.11555   0.00000  Uiso   1.00
H915   H     0.70062   0.78923   0.08398   0.00000  Uiso   1.00
H916   H     0.99089   0.80878   0.12445   0.00000  Uiso   1.00
H917   H     0.70859   0.97620   0.47271   0.00000  Uiso   1.00
H918   H     0.75892   0.96433   0.43921   0.00000  Uiso   1.00
H919   H     0.74046   0.98850   0.02896   0.00000  Uiso   1.00
H920   H     0.79185   0.97473   0.49681   0.00000  Uiso   1.00
H921   H     0.98460   0.80660   0.28465   0.00000  Uiso   1.00
H922   H     0.79702   0.70157   0.45863   0.00000  Uiso   1.00
H923   H     0.79099   0.71860   0.00997   0.00000  Uiso   1.00
H924   H     0.74519   0.71520   0.49056   0.00000  Uiso   1.00
H925   H     0.90022   0.87857   0.43192   0.00000  Uiso   1.00
H926   H     0.89243   0.89758   0.38943   0.00000  Uiso   1.00
H927   H     0.94234   0.84922   0.34521   0.00000  Uiso   1.00
H928   H     0.96826   0.88360   0.37805   0.00000  Uiso   1.00
H929   H     0.94997   0.82969   0.38727   0.00000  Uiso   1.00
H930   H     0.82371   0.94442   0.05799   0.00000  Uiso   1.00
H931   H     0.86107   0.90996   0.06205   0.00000  Uiso   1.00
H932   H     0.78717   0.99734   0.27875   0.00000  Uiso   1.00
H933   H     0.83516   0.92151   0.13437   0.00000  Uiso   1.00
H934   H     0.85339   0.97064   0.11306   0.00000  Uiso   1.00
H935   H     0.79609   0.95427   0.13120   0.00000  Uiso   1.00
H936   H     0.80820   0.83210   0.10377   0.00000  Uiso   1.00
H937   H     0.89987   0.75300   0.46485   0.00000  Uiso   1.00
H938   H     0.74824   0.89726   0.40473   0.00000  Uiso   1.00
H939   H     0.85501   0.77944   0.43368   0.00000  Uiso   1.00
H940   H     0.70569   0.87091   0.08488   0.00000  Uiso   1.00
O941   O     0.83333   0.83333   0.25000   0.00000  Uiso   1.00
O942   O     0.82360   0.79060   0.16625   0.00000  Uiso   1.00
O943   O     0.79354   0.87313   0.33749   0.00000  Uiso   1.00
O944   O     0.87755   0.84159   0.15877   0.00000  Uiso   1.00
O945   O     0.83865   0.82802   0.33749   0.00000  Uiso   1.00
O946   O     0.74193   0.91162   0.04437   0.00000  Uiso   1.00
O947   O     0.88805   0.67569   0.21767   0.00000  Uiso   1.00
O948   O     0.92640   0.77073   0.09720   0.00000  Uiso   1.00
O949   O     0.72612   0.92066   0.48033   0.00000  Uiso   1.00
O950   O     0.86662   0.83582   0.39889   0.00000  Uiso   1.00
O951   O     0.79537   0.88740   0.07974   0.00000  Uiso   1.00
O952   O     0.84515   0.74768   0.27820   0.00000  Uiso   1.00
O953   O     0.81247   0.92803   0.26767   0.00000  Uiso   1.00
O954   O     0.74119   0.79917   0.23607   0.00000  Uiso   1.00
O955   O     0.93452   0.85845   0.21805   0.00000  Uiso   1.00
O956   O     0.73656   0.85627   0.27820   0.00000  Uiso   1.00
O957   O     0.92106   0.81944   0.26767   0.00000  Uiso   1.00
O958   O     0.80467   0.73570   0.23607   0.00000  Uiso   1.00
O959   O     0.87104   0.92193   0.21805   0.00000  Uiso   1.00
Zn960  Zn    0.85910   0.80756   0.28277   0.00000  Uiso   1.00
Zn961  Zn    0.80125   0.79044   0.22257   0.00000  Uiso   1.00
Zn962  Zn    0.87833   0.86331   0.21188   0.00000  Uiso   1.00
Zn963  Zn    0.79465   0.87202   0.28277   0.00000  Uiso   1.00
C964   C     0.05248   0.15999   0.75869   0.00000  Uiso   1.00
C965   C     0.18762   0.12635   0.96315   0.00000  Uiso   1.00
C966   C     0.21225   0.10960   0.98147   0.00000  Uiso   1.00
C967   C     0.28107   0.17361   0.74117   0.00000  Uiso   1.00
C968   C     0.20920   0.12182   0.52088   0.00000  Uiso   1.00
C969   C     0.17808   0.14870   0.54320   0.00000  Uiso   1.00
C970   C     0.23607   0.10623   0.53848   0.00000  Uiso   1.00
C971   C     0.23223   0.11666   0.57875   0.00000  Uiso   1.00
C972   C     0.16957   0.15216   0.58429   0.00000  Uiso   1.00
C973   C     0.32712   0.17647   0.73764   0.00000  Uiso   1.00
C974   C     0.00707   0.15765   0.76205   0.00000  Uiso   1.00
C975   C     0.10073   0.21887   0.92018   0.00000  Uiso   1.00
C976   C     0.18258   0.32280   0.73944   0.00000  Uiso   1.00
C977   C     0.15119   0.01196   0.76150   0.00000  Uiso   1.00
C978   C     0.15535   0.05621   0.75925   0.00000  Uiso   1.00
C979   C     0.17712   0.27779   0.74153   0.00000  Uiso   1.00
C980   C     0.18837   0.14518   0.64407   0.00000  Uiso   1.00
C981   C     0.14556   0.18801   0.85615   0.00000  Uiso   1.00
C982   C     0.13517   0.19619   0.89930   0.00000  Uiso   1.00
C983   C     0.19682   0.13733   0.60166   0.00000  Uiso   1.00
C984   C     0.09169   0.22858   0.96094   0.00000  Uiso   1.00
C985   C     0.03534   0.22231   0.56212   0.00000  Uiso   1.00
C986   C     0.15985   0.18159   0.91971   0.00000  Uiso   1.00
C987   C     0.00208   0.25308   0.58173   0.00000  Uiso   1.00
C988   C     0.29114   0.23033   0.60076   0.00000  Uiso   1.00
C989   C     0.22125   0.00474   0.67798   0.00000  Uiso   1.00
C990   C     0.26113   0.03031   0.65472   0.00000  Uiso   1.00
C991   C     0.30359   0.10967   0.57453   0.00000  Uiso   1.00
C992   C     0.33305   0.11564   0.60140   0.00000  Uiso   1.00
C993   C     0.07195   0.29559   0.97010   0.00000  Uiso   1.00
C994   C     0.09536   0.32189   0.99845   0.00000  Uiso   1.00
C995   C     0.10785   0.03377   0.98867   0.00000  Uiso   1.00
C996   C     0.23207   0.20316   0.90108   0.00000  Uiso   1.00
C997   C     0.14491   0.18247   0.96122   0.00000  Uiso   1.00
C998   C     0.27593   0.19058   0.87634   0.00000  Uiso   1.00
C999   C     0.16200   0.25451   0.57587   0.00000  Uiso   1.00
C1000  C     0.16156   0.27656   0.61629   0.00000  Uiso   1.00
C1001  C     0.11259   0.20891   0.98208   0.00000  Uiso   1.00
C1002  C     0.16301   0.15954   0.98231   0.00000  Uiso   1.00
C1003  C     0.15608   0.16965   0.52351   0.00000  Uiso   1.00
C1004  C     0.12922   0.20165   0.54262   0.00000  Uiso   1.00
C1005  C     0.10386   0.21685   0.52324   0.00000  Uiso   1.00
H1006  H     0.26013   0.08633   0.52077   0.00000  Uiso   1.00
H1007  H     0.02313   0.20051   0.53971   0.00000  Uiso   1.00
H1008  H     0.01344   0.27477   0.60456   0.00000  Uiso   1.00
H1009  H     0.33215   0.27191   0.55940   0.00000  Uiso   1.00
H1010  H     0.27864   0.20919   0.57830   0.00000  Uiso   1.00
H1011  H     0.26784   0.25354   0.61482   0.00000  Uiso   1.00
H1012  H     0.29350   0.21175   0.62361   0.00000  Uiso   1.00
H1013  H     0.19208   0.01647   0.67472   0.00000  Uiso   1.00
H1014  H     0.22244   0.30486   0.66524   0.00000  Uiso   1.00
H1015  H     0.29093   0.01936   0.65713   0.00000  Uiso   1.00
H1016  H     0.26163   0.02664   0.62329   0.00000  Uiso   1.00
H1017  H     0.01695   0.19389   0.71513   0.00000  Uiso   1.00
H1018  H     0.26049   0.06391   0.66623   0.00000  Uiso   1.00
H1019  H     0.31091   0.13776   0.55814   0.00000  Uiso   1.00
H1020  H     0.31142   0.08143   0.55341   0.00000  Uiso   1.00
H1021  H     0.33014   0.08676   0.61555   0.00000  Uiso   1.00
H1022  H     0.03395   0.12257   0.58398   0.00000  Uiso   1.00
H1023  H     0.32423   0.14211   0.62445   0.00000  Uiso   1.00
H1024  H     0.04192   0.30954   0.97271   0.00000  Uiso   1.00
H1025  H     0.09226   0.29766   0.93921   0.00000  Uiso   1.00
H1026  H     0.07380   0.32184   0.52896   0.00000  Uiso   1.00
H1027  H     0.12519   0.30807   0.99681   0.00000  Uiso   1.00
H1028  H     0.31793   0.13994   0.78465   0.00000  Uiso   1.00
H1029  H     0.13035   0.03490   0.95863   0.00000  Uiso   1.00
H1030  H     0.12433   0.05193   0.50997   0.00000  Uiso   1.00
H1031  H     0.07852   0.04853   0.99056   0.00000  Uiso   1.00
H1032  H     0.23356   0.21190   0.93192   0.00000  Uiso   1.00
H1033  H     0.22576   0.23091   0.88943   0.00000  Uiso   1.00
H1034  H     0.27567   0.18256   0.84521   0.00000  Uiso   1.00
H1035  H     0.30159   0.21693   0.87805   0.00000  Uiso   1.00
H1036  H     0.28331   0.16302   0.88727   0.00000  Uiso   1.00
H1037  H     0.15704   0.27776   0.55799   0.00000  Uiso   1.00
H1038  H     0.19440   0.24329   0.56205   0.00000  Uiso   1.00
H1039  H     0.12051   0.33068   0.77875   0.00000  Uiso   1.00
H1040  H     0.16849   0.25484   0.63437   0.00000  Uiso   1.00
H1041  H     0.18672   0.30397   0.61306   0.00000  Uiso   1.00
H1042  H     0.12942   0.28760   0.63120   0.00000  Uiso   1.00
H1043  H     0.14153   0.16543   0.60377   0.00000  Uiso   1.00
H1044  H     0.23320   0.08633   0.96485   0.00000  Uiso   1.00
H1045  H     0.08158   0.23060   0.90473   0.00000  Uiso   1.00
H1046  H     0.18835   0.11277   0.93368   0.00000  Uiso   1.00
H1047  H     0.03902   0.20425   0.58488   0.00000  Uiso   1.00
O1048  O     0.16667   0.16667   0.75000   0.00000  Uiso   1.00
O1049  O     0.15693   0.12393   0.66625   0.00000  Uiso   1.00
O1050  O     0.12687   0.20646   0.83749   0.00000  Uiso   1.00
O1051  O     0.21088   0.17493   0.65877   0.00000  Uiso   1.00
O1052  O     0.17198   0.16135   0.83749   0.00000  Uiso   1.00
O1053  O     0.07526   0.24496   0.54437   0.00000  Uiso   1.00
O1054  O     0.22139   0.00902   0.71767   0.00000  Uiso   1.00
O1055  O     0.25974   0.10406   0.59720   0.00000  Uiso   1.00
O1056  O     0.05946   0.25399   0.98033   0.00000  Uiso   1.00
O1057  O     0.19995   0.16915   0.89889   0.00000  Uiso   1.00
O1058  O     0.12870   0.22073   0.57974   0.00000  Uiso   1.00
O1059  O     0.17849   0.08101   0.77820   0.00000  Uiso   1.00
O1060  O     0.14581   0.26136   0.76767   0.00000  Uiso   1.00
O1061  O     0.07452   0.13251   0.73607   0.00000  Uiso   1.00
O1062  O     0.26785   0.19179   0.71805   0.00000  Uiso   1.00
O1063  O     0.06990   0.18960   0.77820   0.00000  Uiso   1.00
O1064  O     0.25440   0.15277   0.76767   0.00000  Uiso   1.00
O1065  O     0.13800   0.06903   0.73607   0.00000  Uiso   1.00
O1066  O     0.20437   0.25527   0.71805   0.00000  Uiso   1.00
Zn1067 Zn    0.19244   0.14090   0.78277   0.00000  Uiso   1.00
Zn1068 Zn    0.13459   0.12378   0.72257   0.00000  Uiso   1.00
Zn1069 Zn    0.21166   0.19664   0.71188   0.00000  Uiso   1.00
Zn1070 Zn    0.12798   0.20535   0.78277   0.00000  Uiso   1.00
C1071  C     0.38581   0.15999   0.75869   0.00000  Uiso   1.00
C1072  C     0.52096   0.12635   0.96315   0.00000  Uiso   1.00
C1073  C     0.54559   0.10960   0.98147   0.00000  Uiso   1.00
C1074  C     0.61440   0.17361   0.74117   0.00000  Uiso   1.00
C1075  C     0.54253   0.12182   0.52088   0.00000  Uiso   1.00
C1076  C     0.51141   0.14870   0.54320   0.00000  Uiso   1.00
C1077  C     0.56940   0.10623   0.53848   0.00000  Uiso   1.00
C1078  C     0.56556   0.11666   0.57875   0.00000  Uiso   1.00
C1079  C     0.50290   0.15216   0.58429   0.00000  Uiso   1.00
C1080  C     0.66046   0.17647   0.73764   0.00000  Uiso   1.00
C1081  C     0.34041   0.15765   0.76205   0.00000  Uiso   1.00
C1082  C     0.43406   0.21887   0.92018   0.00000  Uiso   1.00
C1083  C     0.51592   0.32280   0.73944   0.00000  Uiso   1.00
C1084  C     0.48452   0.01196   0.76150   0.00000  Uiso   1.00
C1085  C     0.48868   0.05621   0.75925   0.00000  Uiso   1.00
C1086  C     0.51045   0.27779   0.74153   0.00000  Uiso   1.00
C1087  C     0.52170   0.14518   0.64407   0.00000  Uiso   1.00
C1088  C     0.47889   0.18801   0.85615   0.00000  Uiso   1.00
C1089  C     0.46851   0.19619   0.89930   0.00000  Uiso   1.00
C1090  C     0.53015   0.13733   0.60166   0.00000  Uiso   1.00
C1091  C     0.42502   0.22858   0.96094   0.00000  Uiso   1.00
C1092  C     0.36867   0.22231   0.56212   0.00000  Uiso   1.00
C1093  C     0.49318   0.18159   0.91971   0.00000  Uiso   1.00
C1094  C     0.33541   0.25308   0.58173   0.00000  Uiso   1.00
C1095  C     0.62447   0.23033   0.60076   0.00000  Uiso   1.00
C1096  C     0.55458   0.00474   0.67798   0.00000  Uiso   1.00
C1097  C     0.59446   0.03031   0.65472   0.00000  Uiso   1.00
C1098  C     0.63692   0.10967   0.57453   0.00000  Uiso   1.00
C1099  C     0.66638   0.11564   0.60140   0.00000  Uiso   1.00
C1100  C     0.40528   0.29559   0.97010   0.00000  Uiso   1.00
C1101  C     0.42869   0.32189   0.99845   0.00000  Uiso   1.00
C1102  C     0.44119   0.03377   0.98867   0.00000  Uiso   1.00
C1103  C     0.56540   0.20316   0.90108   0.00000  Uiso   1.00
C1104  C     0.47824   0.18247   0.96122   0.00000  Uiso   1.00
C1105  C     0.60927   0.19058   0.87634   0.00000  Uiso   1.00
C1106  C     0.49533   0.25451   0.57587   0.00000  Uiso   1.00
C1107  C     0.49489   0.27656   0.61629   0.00000  Uiso   1.00
C1108  C     0.44593   0.20891   0.98208   0.00000  Uiso   1.00
C1109  C     0.49634   0.15954   0.98231   0.00000  Uiso   1.00
C1110  C     0.48941   0.16965   0.52351   0.00000  Uiso   1.00
C1111  C     0.46255   0.20165   0.54262   0.00000  Uiso   1.00
C1112  C     0.43719   0.21685   0.52324   0.00000  Uiso   1.00
H1113  H     0.59346   0.08633   0.52077   0.00000  Uiso   1.00
H1114  H     0.35646   0.20051   0.53971   0.00000  Uiso   1.00
H1115  H     0.34677   0.27477   0.60456   0.00000  Uiso   1.00
H1116  H     0.66549   0.27191   0.55940   0.00000  Uiso   1.00
H1117  H     0.61197   0.20919   0.57830   0.00000  Uiso   1.00
H1118  H     0.60117   0.25354   0.61482   0.00000  Uiso   1.00
H1119  H     0.62684   0.21175   0.62361   0.00000  Uiso   1.00
H1120  H     0.52542   0.01647   0.67472   0.00000  Uiso   1.00
H1121  H     0.55577   0.30486   0.66524   0.00000  Uiso   1.00
H1122  H     0.62426   0.01936   0.65713   0.00000  Uiso   1.00
H1123  H     0.59497   0.02664   0.62329   0.00000  Uiso   1.00
H1124  H     0.35028   0.19389   0.71513   0.00000  Uiso   1.00
H1125  H     0.59382   0.06391   0.66623   0.00000  Uiso   1.00
H1126  H     0.64425   0.13776   0.55814   0.00000  Uiso   1.00
H1127  H     0.64475   0.08143   0.55341   0.00000  Uiso   1.00
H1128  H     0.66348   0.08676   0.61555   0.00000  Uiso   1.00
H1129  H     0.36728   0.12257   0.58398   0.00000  Uiso   1.00
H1130  H     0.65756   0.14211   0.62445   0.00000  Uiso   1.00
H1131  H     0.37525   0.30954   0.97271   0.00000  Uiso   1.00
H1132  H     0.42559   0.29766   0.93921   0.00000  Uiso   1.00
H1133  H     0.40713   0.32184   0.52896   0.00000  Uiso   1.00
H1134  H     0.45852   0.30807   0.99681   0.00000  Uiso   1.00
H1135  H     0.65127   0.13994   0.78465   0.00000  Uiso   1.00
H1136  H     0.46369   0.03490   0.95863   0.00000  Uiso   1.00
H1137  H     0.45766   0.05193   0.50997   0.00000  Uiso   1.00
H1138  H     0.41186   0.04853   0.99056   0.00000  Uiso   1.00
H1139  H     0.56689   0.21190   0.93192   0.00000  Uiso   1.00
H1140  H     0.55909   0.23091   0.88943   0.00000  Uiso   1.00
H1141  H     0.60900   0.18256   0.84521   0.00000  Uiso   1.00
H1142  H     0.63493   0.21693   0.87805   0.00000  Uiso   1.00
H1143  H     0.61664   0.16302   0.88727   0.00000  Uiso   1.00
H1144  H     0.49037   0.27776   0.55799   0.00000  Uiso   1.00
H1145  H     0.52773   0.24329   0.56205   0.00000  Uiso   1.00
H1146  H     0.45384   0.33068   0.77875   0.00000  Uiso   1.00
H1147  H     0.50182   0.25484   0.63437   0.00000  Uiso   1.00
H1148  H     0.52005   0.30397   0.61306   0.00000  Uiso   1.00
H1149  H     0.46275   0.28760   0.63120   0.00000  Uiso   1.00
H1150  H     0.47486   0.16543   0.60377   0.00000  Uiso   1.00
H1151  H     0.56653   0.08633   0.96485   0.00000  Uiso   1.00
H1152  H     0.41491   0.23060   0.90473   0.00000  Uiso   1.00
H1153  H     0.52168   0.11277   0.93368   0.00000  Uiso   1.00
H1154  H     0.37236   0.20425   0.58488   0.00000  Uiso   1.00
O1155  O     0.50000   0.16667   0.75000   0.00000  Uiso   1.00
O1156  O     0.49027   0.12393   0.66625   0.00000  Uiso   1.00
O1157  O     0.46020   0.20646   0.83749   0.00000  Uiso   1.00
O1158  O     0.54421   0.17493   0.65877   0.00000  Uiso   1.00
O1159  O     0.50532   0.16135   0.83749   0.00000  Uiso   1.00
O1160  O     0.40859   0.24496   0.54437   0.00000  Uiso   1.00
O1161  O     0.55472   0.00902   0.71767   0.00000  Uiso   1.00
O1162  O     0.59307   0.10406   0.59720   0.00000  Uiso   1.00
O1163  O     0.39279   0.25399   0.98033   0.00000  Uiso   1.00
O1164  O     0.53328   0.16915   0.89889   0.00000  Uiso   1.00
O1165  O     0.46204   0.22073   0.57974   0.00000  Uiso   1.00
O1166  O     0.51182   0.08101   0.77820   0.00000  Uiso   1.00
O1167  O     0.47914   0.26136   0.76767   0.00000  Uiso   1.00
O1168  O     0.40785   0.13251   0.73607   0.00000  Uiso   1.00
O1169  O     0.60119   0.19179   0.71805   0.00000  Uiso   1.00
O1170  O     0.40323   0.18960   0.77820   0.00000  Uiso   1.00
O1171  O     0.58773   0.15277   0.76767   0.00000  Uiso   1.00
O1172  O     0.47133   0.06903   0.73607   0.00000  Uiso   1.00
O1173  O     0.53771   0.25527   0.71805   0.00000  Uiso   1.00
Zn1174 Zn    0.52577   0.14090   0.78277   0.00000  Uiso   1.00
Zn1175 Zn    0.46792   0.12378   0.72257   0.00000  Uiso   1.00
Zn1176 Zn    0.54500   0.19664   0.71188   0.00000  Uiso   1.00
Zn1177 Zn    0.46131   0.20535   0.78277   0.00000  Uiso   1.00
C1178  C     0.71915   0.15999   0.75869   0.00000  Uiso   1.00
C1179  C     0.85429   0.12635   0.96315   0.00000  Uiso   1.00
C1180  C     0.87892   0.10960   0.98147   0.00000  Uiso   1.00
C1181  C     0.94774   0.17361   0.74117   0.00000  Uiso   1.00
C1182  C     0.87587   0.12182   0.52088   0.00000  Uiso   1.00
C1183  C     0.84474   0.14870   0.54320   0.00000  Uiso   1.00
C1184  C     0.90273   0.10623   0.53848   0.00000  Uiso   1.00
C1185  C     0.89890   0.11666   0.57875   0.00000  Uiso   1.00
C1186  C     0.83623   0.15216   0.58429   0.00000  Uiso   1.00
C1187  C     0.99379   0.17647   0.73764   0.00000  Uiso   1.00
C1188  C     0.67374   0.15765   0.76205   0.00000  Uiso   1.00
C1189  C     0.76739   0.21887   0.92018   0.00000  Uiso   1.00
C1190  C     0.84925   0.32280   0.73944   0.00000  Uiso   1.00
C1191  C     0.81785   0.01196   0.76150   0.00000  Uiso   1.00
C1192  C     0.82202   0.05621   0.75925   0.00000  Uiso   1.00
C1193  C     0.84379   0.27779   0.74153   0.00000  Uiso   1.00
C1194  C     0.85504   0.14518   0.64407   0.00000  Uiso   1.00
C1195  C     0.81222   0.18801   0.85615   0.00000  Uiso   1.00
C1196  C     0.80184   0.19619   0.89930   0.00000  Uiso   1.00
C1197  C     0.86349   0.13733   0.60166   0.00000  Uiso   1.00
C1198  C     0.75835   0.22858   0.96094   0.00000  Uiso   1.00
C1199  C     0.70201   0.22231   0.56212   0.00000  Uiso   1.00
C1200  C     0.82651   0.18159   0.91971   0.00000  Uiso   1.00
C1201  C     0.66874   0.25308   0.58173   0.00000  Uiso   1.00
C1202  C     0.95780   0.23033   0.60076   0.00000  Uiso   1.00
C1203  C     0.88791   0.00474   0.67798   0.00000  Uiso   1.00
C1204  C     0.92780   0.03031   0.65472   0.00000  Uiso   1.00
C1205  C     0.97025   0.10967   0.57453   0.00000  Uiso   1.00
C1206  C     0.99971   0.11564   0.60140   0.00000  Uiso   1.00
C1207  C     0.73862   0.29559   0.97010   0.00000  Uiso   1.00
C1208  C     0.76202   0.32189   0.99845   0.00000  Uiso   1.00
C1209  C     0.77452   0.03377   0.98867   0.00000  Uiso   1.00
C1210  C     0.89873   0.20316   0.90108   0.00000  Uiso   1.00
C1211  C     0.81158   0.18247   0.96122   0.00000  Uiso   1.00
C1212  C     0.94260   0.19058   0.87634   0.00000  Uiso   1.00
C1213  C     0.82866   0.25451   0.57587   0.00000  Uiso   1.00
C1214  C     0.82823   0.27656   0.61629   0.00000  Uiso   1.00
C1215  C     0.77926   0.20891   0.98208   0.00000  Uiso   1.00
C1216  C     0.82968   0.15954   0.98231   0.00000  Uiso   1.00
C1217  C     0.82275   0.16965   0.52351   0.00000  Uiso   1.00
C1218  C     0.79589   0.20165   0.54262   0.00000  Uiso   1.00
C1219  C     0.77052   0.21685   0.52324   0.00000  Uiso   1.00
H1220  H     0.92679   0.08633   0.52077   0.00000  Uiso   1.00
H1221  H     0.68980   0.20051   0.53971   0.00000  Uiso   1.00
H1222  H     0.68011   0.27477   0.60456   0.00000  Uiso   1.00
H1223  H     0.99882   0.27191   0.55940   0.00000  Uiso   1.00
H1224  H     0.94531   0.20919   0.57830   0.00000  Uiso   1.00
H1225  H     0.93450   0.25354   0.61482   0.00000  Uiso   1.00
H1226  H     0.96017   0.21175   0.62361   0.00000  Uiso   1.00
H1227  H     0.85875   0.01647   0.67472   0.00000  Uiso   1.00
H1228  H     0.88910   0.30486   0.66524   0.00000  Uiso   1.00
H1229  H     0.95759   0.01936   0.65713   0.00000  Uiso   1.00
H1230  H     0.92830   0.02664   0.62329   0.00000  Uiso   1.00
H1231  H     0.68362   0.19389   0.71513   0.00000  Uiso   1.00
H1232  H     0.92716   0.06391   0.66623   0.00000  Uiso   1.00
H1233  H     0.97758   0.13776   0.55814   0.00000  Uiso   1.00
H1234  H     0.97808   0.08143   0.55341   0.00000  Uiso   1.00
H1235  H     0.99681   0.08676   0.61555   0.00000  Uiso   1.00
H1236  H     0.70062   0.12257   0.58398   0.00000  Uiso   1.00
H1237  H     0.99089   0.14211   0.62445   0.00000  Uiso   1.00
H1238  H     0.70859   0.30954   0.97271   0.00000  Uiso   1.00
H1239  H     0.75892   0.29766   0.93921   0.00000  Uiso   1.00
H1240  H     0.74046   0.32184   0.52896   0.00000  Uiso   1.00
H1241  H     0.79185   0.30807   0.99681   0.00000  Uiso   1.00
H1242  H     0.98460   0.13994   0.78465   0.00000  Uiso   1.00
H1243  H     0.79702   0.03490   0.95863   0.00000  Uiso   1.00
H1244  H     0.79099   0.05193   0.50997   0.00000  Uiso   1.00
H1245  H     0.74519   0.04853   0.99056   0.00000  Uiso   1.00
H1246  H     0.90022   0.21190   0.93192   0.00000  Uiso   1.00
H1247  H     0.89243   0.23091   0.88943   0.00000  Uiso   1.00
H1248  H     0.94234   0.18256   0.84521   0.00000  Uiso   1.00
H1249  H     0.96826   0.21693   0.87805   0.00000  Uiso   1.00
H1250  H     0.94997   0.16302   0.88727   0.00000  Uiso   1.00
H1251  H     0.82371   0.27776   0.55799   0.00000  Uiso   1.00
H1252  H     0.86107   0.24329   0.56205   0.00000  Uiso   1.00
H1253  H     0.78717   0.33068   0.77875   0.00000  Uiso   1.00
H1254  H     0.83516   0.25484   0.63437   0.00000  Uiso   1.00
H1255  H     0.85339   0.30397   0.61306   0.00000  Uiso   1.00
H1256  H     0.79609   0.28760   0.63120   0.00000  Uiso   1.00
H1257  H     0.80820   0.16543   0.60377   0.00000  Uiso   1.00
H1258  H     0.89987   0.08633   0.96485   0.00000  Uiso   1.00
H1259  H     0.74824   0.23060   0.90473   0.00000  Uiso   1.00
H1260  H     0.85501   0.11277   0.93368   0.00000  Uiso   1.00
H1261  H     0.70569   0.20425   0.58488   0.00000  Uiso   1.00
O1262  O     0.83333   0.16667   0.75000   0.00000  Uiso   1.00
O1263  O     0.82360   0.12393   0.66625   0.00000  Uiso   1.00
O1264  O     0.79354   0.20646   0.83749   0.00000  Uiso   1.00
O1265  O     0.87755   0.17493   0.65877   0.00000  Uiso   1.00
O1266  O     0.83865   0.16135   0.83749   0.00000  Uiso   1.00
O1267  O     0.74193   0.24496   0.54437   0.00000  Uiso   1.00
O1268  O     0.88805   0.00902   0.71767   0.00000  Uiso   1.00
O1269  O     0.92640   0.10406   0.59720   0.00000  Uiso   1.00
O1270  O     0.72612   0.25399   0.98033   0.00000  Uiso   1.00
O1271  O     0.86662   0.16915   0.89889   0.00000  Uiso   1.00
O1272  O     0.79537   0.22073   0.57974   0.00000  Uiso   1.00
O1273  O     0.84515   0.08101   0.77820   0.00000  Uiso   1.00
O1274  O     0.81247   0.26136   0.76767   0.00000  Uiso   1.00
O1275  O     0.74119   0.13251   0.73607   0.00000  Uiso   1.00
O1276  O     0.93452   0.19179   0.71805   0.00000  Uiso   1.00
O1277  O     0.73656   0.18960   0.77820   0.00000  Uiso   1.00
O1278  O     0.92106   0.15277   0.76767   0.00000  Uiso   1.00
O1279  O     0.80467   0.06903   0.73607   0.00000  Uiso   1.00
O1280  O     0.87104   0.25527   0.71805   0.00000  Uiso   1.00
Zn1281 Zn    0.85910   0.14090   0.78277   0.00000  Uiso   1.00
Zn1282 Zn    0.80125   0.12378   0.72257   0.00000  Uiso   1.00
Zn1283 Zn    0.87833   0.19664   0.71188   0.00000  Uiso   1.00
Zn1284 Zn    0.79465   0.20535   0.78277   0.00000  Uiso   1.00
C1285  C     0.05248   0.49333   0.75869   0.00000  Uiso   1.00
C1286  C     0.18762   0.45969   0.96315   0.00000  Uiso   1.00
C1287  C     0.21225   0.44294   0.98147   0.00000  Uiso   1.00
C1288  C     0.28107   0.50695   0.74117   0.00000  Uiso   1.00
C1289  C     0.20920   0.45516   0.52088   0.00000  Uiso   1.00
C1290  C     0.17808   0.48203   0.54320   0.00000  Uiso   1.00
C1291  C     0.23607   0.43956   0.53848   0.00000  Uiso   1.00
C1292  C     0.23223   0.44999   0.57875   0.00000  Uiso   1.00
C1293  C     0.16957   0.48549   0.58429   0.00000  Uiso   1.00
C1294  C     0.32712   0.50980   0.73764   0.00000  Uiso   1.00
C1295  C     0.00707   0.49098   0.76205   0.00000  Uiso   1.00
C1296  C     0.10073   0.55220   0.92018   0.00000  Uiso   1.00
C1297  C     0.18258   0.65613   0.73944   0.00000  Uiso   1.00
C1298  C     0.15119   0.34529   0.76150   0.00000  Uiso   1.00
C1299  C     0.15535   0.38954   0.75925   0.00000  Uiso   1.00
C1300  C     0.17712   0.61112   0.74153   0.00000  Uiso   1.00
C1301  C     0.18837   0.47851   0.64407   0.00000  Uiso   1.00
C1302  C     0.14556   0.52134   0.85615   0.00000  Uiso   1.00
C1303  C     0.13517   0.52952   0.89930   0.00000  Uiso   1.00
C1304  C     0.19682   0.47067   0.60166   0.00000  Uiso   1.00
C1305  C     0.09169   0.56191   0.96094   0.00000  Uiso   1.00
C1306  C     0.03534   0.55564   0.56212   0.00000  Uiso   1.00
C1307  C     0.15985   0.51493   0.91971   0.00000  Uiso   1.00
C1308  C     0.00208   0.58641   0.58173   0.00000  Uiso   1.00
C1309  C     0.29114   0.56367   0.60076   0.00000  Uiso   1.00
C1310  C     0.22125   0.33808   0.67798   0.00000  Uiso   1.00
C1311  C     0.26113   0.36364   0.65472   0.00000  Uiso   1.00
C1312  C     0.30359   0.44300   0.57453   0.00000  Uiso   1.00
C1313  C     0.33305   0.44897   0.60140   0.00000  Uiso   1.00
C1314  C     0.07195   0.62892   0.97010   0.00000  Uiso   1.00
C1315  C     0.09536   0.65522   0.99845   0.00000  Uiso   1.00
C1316  C     0.10785   0.36710   0.98867   0.00000  Uiso   1.00
C1317  C     0.23207   0.53650   0.90108   0.00000  Uiso   1.00
C1318  C     0.14491   0.51580   0.96122   0.00000  Uiso   1.00
C1319  C     0.27593   0.52391   0.87634   0.00000  Uiso   1.00
C1320  C     0.16200   0.58785   0.57587   0.00000  Uiso   1.00
C1321  C     0.16156   0.60990   0.61629   0.00000  Uiso   1.00
C1322  C     0.11259   0.54224   0.98208   0.00000  Uiso   1.00
C1323  C     0.16301   0.49287   0.98231   0.00000  Uiso   1.00
C1324  C     0.15608   0.50298   0.52351   0.00000  Uiso   1.00
C1325  C     0.12922   0.53499   0.54262   0.00000  Uiso   1.00
C1326  C     0.10386   0.55018   0.52324   0.00000  Uiso   1.00
H1327  H     0.26013   0.41966   0.52077   0.00000  Uiso   1.00
H1328  H     0.02313   0.53385   0.53971   0.00000  Uiso   1.00
H1329  H     0.01344   0.60810   0.60456   0.00000  Uiso   1.00
H1330  H     0.33215   0.60524   0.55940   0.00000  Uiso   1.00
H1331  H     0.27864   0.54252   0.57830   0.00000  Uiso   1.00
H1332  H     0.26784   0.58687   0.61482   0.00000  Uiso   1.00
H1333  H     0.29350   0.54509   0.62361   0.00000  Uiso   1.00
H1334  H     0.19208   0.34980   0.67472   0.00000  Uiso   1.00
H1335  H     0.22244   0.63819   0.66524   0.00000  Uiso   1.00
H1336  H     0.29093   0.35269   0.65713   0.00000  Uiso   1.00
H1337  H     0.26163   0.35998   0.62329   0.00000  Uiso   1.00
H1338  H     0.01695   0.52722   0.71513   0.00000  Uiso   1.00
H1339  H     0.26049   0.39724   0.66623   0.00000  Uiso   1.00
H1340  H     0.31091   0.47109   0.55814   0.00000  Uiso   1.00
H1341  H     0.31142   0.41476   0.55341   0.00000  Uiso   1.00
H1342  H     0.33014   0.42010   0.61555   0.00000  Uiso   1.00
H1343  H     0.03395   0.45590   0.58398   0.00000  Uiso   1.00
H1344  H     0.32423   0.47544   0.62445   0.00000  Uiso   1.00
H1345  H     0.04192   0.64287   0.97271   0.00000  Uiso   1.00
H1346  H     0.09226   0.63100   0.93921   0.00000  Uiso   1.00
H1347  H     0.07380   0.65517   0.52896   0.00000  Uiso   1.00
H1348  H     0.12519   0.64140   0.99681   0.00000  Uiso   1.00
H1349  H     0.31793   0.47327   0.78465   0.00000  Uiso   1.00
H1350  H     0.13035   0.36824   0.95863   0.00000  Uiso   1.00
H1351  H     0.12433   0.38526   0.50997   0.00000  Uiso   1.00
H1352  H     0.07852   0.38187   0.99056   0.00000  Uiso   1.00
H1353  H     0.23356   0.54524   0.93192   0.00000  Uiso   1.00
H1354  H     0.22576   0.56424   0.88943   0.00000  Uiso   1.00
H1355  H     0.27567   0.51589   0.84521   0.00000  Uiso   1.00
H1356  H     0.30159   0.55027   0.87805   0.00000  Uiso   1.00
H1357  H     0.28331   0.49635   0.88727   0.00000  Uiso   1.00
H1358  H     0.15704   0.61109   0.55799   0.00000  Uiso   1.00
H1359  H     0.19440   0.57663   0.56205   0.00000  Uiso   1.00
H1360  H     0.12051   0.66401   0.77875   0.00000  Uiso   1.00
H1361  H     0.16849   0.58818   0.63437   0.00000  Uiso   1.00
H1362  H     0.18672   0.63731   0.61306   0.00000  Uiso   1.00
H1363  H     0.12942   0.62094   0.63120   0.00000  Uiso   1.00
H1364  H     0.14153   0.49877   0.60377   0.00000  Uiso   1.00
H1365  H     0.23320   0.41967   0.96485   0.00000  Uiso   1.00
H1366  H     0.08158   0.56393   0.90473   0.00000  Uiso   1.00
H1367  H     0.18835   0.44610   0.93368   0.00000  Uiso   1.00
H1368  H     0.03902   0.53758   0.58488   0.00000  Uiso   1.00
O1369  O     0.16667   0.50000   0.75000   0.00000  Uiso   1.00
O1370  O     0.15693   0.45726   0.66625   0.00000  Uiso   1.00
O1371  O     0.12687   0.53979   0.83749   0.00000  Uiso   1.00
O1372  O     0.21088   0.50826   0.65877   0.00000  Uiso   1.00
O1373  O     0.17198   0.49468   0.83749   0.00000  Uiso   1.00
O1374  O     0.07526   0.57829   0.54437   0.00000  Uiso   1.00
O1375  O     0.22139   0.34235   0.71767   0.00000  Uiso   1.00
O1376  O     0.25974   0.43740   0.59720   0.00000  Uiso   1.00
O1377  O     0.05946   0.58732   0.98033   0.00000  Uiso   1.00
O1378  O     0.19995   0.50248   0.89889   0.00000  Uiso   1.00
O1379  O     0.12870   0.55407   0.57974   0.00000  Uiso   1.00
O1380  O     0.17849   0.41434   0.77820   0.00000  Uiso   1.00
O1381  O     0.14581   0.59469   0.76767   0.00000  Uiso   1.00
O1382  O     0.07452   0.46584   0.73607   0.00000  Uiso   1.00
O1383  O     0.26785   0.52512   0.71805   0.00000  Uiso   1.00
O1384  O     0.06990   0.52293   0.77820   0.00000  Uiso   1.00
O1385  O     0.25440   0.48610   0.76767   0.00000  Uiso   1.00
O1386  O     0.13800   0.40236   0.73607   0.00000  Uiso   1.00
O1387  O     0.20437   0.58860   0.71805   0.00000  Uiso   1.00
Zn1388 Zn    0.19244   0.47423   0.78277   0.00000  Uiso   1.00
Zn1389 Zn    0.13459   0.45711   0.72257   0.00000  Uiso   1.00
Zn1390 Zn    0.21166   0.52997   0.71188   0.00000  Uiso   1.00
Zn1391 Zn    0.12798   0.53868   0.78277   0.00000  Uiso   1.00
C1392  C     0.38581   0.49333   0.75869   0.00000  Uiso   1.00
C1393  C     0.52096   0.45969   0.96315   0.00000  Uiso   1.00
C1394  C     0.54559   0.44294   0.98147   0.00000  Uiso   1.00
C1395  C     0.61440   0.50695   0.74117   0.00000  Uiso   1.00
C1396  C     0.54253   0.45516   0.52088   0.00000  Uiso   1.00
C1397  C     0.51141   0.48203   0.54320   0.00000  Uiso   1.00
C1398  C     0.56940   0.43956   0.53848   0.00000  Uiso   1.00
C1399  C     0.56556   0.44999   0.57875   0.00000  Uiso   1.00
C1400  C     0.50290   0.48549   0.58429   0.00000  Uiso   1.00
C1401  C     0.66046   0.50980   0.73764   0.00000  Uiso   1.00
C1402  C     0.34041   0.49098   0.76205   0.00000  Uiso   1.00
C1403  C     0.43406   0.55220   0.92018   0.00000  Uiso   1.00
C1404  C     0.51592   0.65613   0.73944   0.00000  Uiso   1.00
C1405  C     0.48452   0.34529   0.76150   0.00000  Uiso   1.00
C1406  C     0.48868   0.38954   0.75925   0.00000  Uiso   1.00
C1407  C     0.51045   0.61112   0.74153   0.00000  Uiso   1.00
C1408  C     0.52170   0.47851   0.64407   0.00000  Uiso   1.00
C1409  C     0.47889   0.52134   0.85615   0.00000  Uiso   1.00
C1410  C     0.46851   0.52952   0.89930   0.00000  Uiso   1.00
C1411  C     0.53015   0.47067   0.60166   0.00000  Uiso   1.00
C1412  C     0.42502   0.56191   0.96094   0.00000  Uiso   1.00
C1413  C     0.36867   0.55564   0.56212   0.00000  Uiso   1.00
C1414  C     0.49318   0.51493   0.91971   0.00000  Uiso   1.00
C1415  C     0.33541   0.58641   0.58173   0.00000  Uiso   1.00
C1416  C     0.62447   0.56367   0.60076   0.00000  Uiso   1.00
C1417  C     0.55458   0.33808   0.67798   0.00000  Uiso   1.00
C1418  C     0.59446   0.36364   0.65472   0.00000  Uiso   1.00
C1419  C     0.63692   0.44300   0.57453   0.00000  Uiso   1.00
C1420  C     0.66638   0.44897   0.60140   0.00000  Uiso   1.00
C1421  C     0.40528   0.62892   0.97010   0.00000  Uiso   1.00
C1422  C     0.42869   0.65522   0.99845   0.00000  Uiso   1.00
C1423  C     0.44119   0.36710   0.98867   0.00000  Uiso   1.00
C1424  C     0.56540   0.53650   0.90108   0.00000  Uiso   1.00
C1425  C     0.47824   0.51580   0.96122   0.00000  Uiso   1.00
C1426  C     0.60927   0.52391   0.87634   0.00000  Uiso   1.00
C1427  C     0.49533   0.58785   0.57587   0.00000  Uiso   1.00
C1428  C     0.49489   0.60990   0.61629   0.00000  Uiso   1.00
C1429  C     0.44593   0.54224   0.98208   0.00000  Uiso   1.00
C1430  C     0.49634   0.49287   0.98231   0.00000  Uiso   1.00
C1431  C     0.48941   0.50298   0.52351   0.00000  Uiso   1.00
C1432  C     0.46255   0.53499   0.54262   0.00000  Uiso   1.00
C1433  C     0.43719   0.55018   0.52324   0.00000  Uiso   1.00
H1434  H     0.59346   0.41966   0.52077   0.00000  Uiso   1.00
H1435  H     0.35646   0.53385   0.53971   0.00000  Uiso   1.00
H1436  H     0.34677   0.60810   0.60456   0.00000  Uiso   1.00
H1437  H     0.66549   0.60524   0.55940   0.00000  Uiso   1.00
H1438  H     0.61197   0.54252   0.57830   0.00000  Uiso   1.00
H1439  H     0.60117   0.58687   0.61482   0.00000  Uiso   1.00
H1440  H     0.62684   0.54509   0.62361   0.00000  Uiso   1.00
H1441  H     0.52542   0.34980   0.67472   0.00000  Uiso   1.00
H1442  H     0.55577   0.63819   0.66524   0.00000  Uiso   1.00
H1443  H     0.62426   0.35269   0.65713   0.00000  Uiso   1.00
H1444  H     0.59497   0.35998   0.62329   0.00000  Uiso   1.00
H1445  H     0.35028   0.52722   0.71513   0.00000  Uiso   1.00
H1446  H     0.59382   0.39724   0.66623   0.00000  Uiso   1.00
H1447  H     0.64425   0.47109   0.55814   0.00000  Uiso   1.00
H1448  H     0.64475   0.41476   0.55341   0.00000  Uiso   1.00
H1449  H     0.66348   0.42010   0.61555   0.00000  Uiso   1.00
H1450  H     0.36728   0.45590   0.58398   0.00000  Uiso   1.00
H1451  H     0.65756   0.47544   0.62445   0.00000  Uiso   1.00
H1452  H     0.37525   0.64287   0.97271   0.00000  Uiso   1.00
H1453  H     0.42559   0.63100   0.93921   0.00000  Uiso   1.00
H1454  H     0.40713   0.65517   0.52896   0.00000  Uiso   1.00
H1455  H     0.45852   0.64140   0.99681   0.00000  Uiso   1.00
H1456  H     0.65127   0.47327   0.78465   0.00000  Uiso   1.00
H1457  H     0.46369   0.36824   0.95863   0.00000  Uiso   1.00
H1458  H     0.45766   0.38526   0.50997   0.00000  Uiso   1.00
H1459  H     0.41186   0.38187   0.99056   0.00000  Uiso   1.00
H1460  H     0.56689   0.54524   0.93192   0.00000  Uiso   1.00
H1461  H     0.55909   0.56424   0.88943   0.00000  Uiso   1.00
H1462  H     0.60900   0.51589   0.84521   0.00000  Uiso   1.00
H1463  H     0.63493   0.55027   0.87805   0.00000  Uiso   1.00
H1464  H     0.61664   0.49635   0.88727   0.00000  Uiso   1.00
H1465  H     0.49037   0.61109   0.55799   0.00000  Uiso   1.00
H1466  H     0.52773   0.57663   0.56205   0.00000  Uiso   1.00
H1467  H     0.45384   0.66401   0.77875   0.00000  Uiso   1.00
H1468  H     0.50182   0.58818   0.63437   0.00000  Uiso   1.00
H1469  H     0.52005   0.63731   0.61306   0.00000  Uiso   1.00
H1470  H     0.46275   0.62094   0.63120   0.00000  Uiso   1.00
H1471  H     0.47486   0.49877   0.60377   0.00000  Uiso   1.00
H1472  H     0.56653   0.41967   0.96485   0.00000  Uiso   1.00
H1473  H     0.41491   0.56393   0.90473   0.00000  Uiso   1.00
H1474  H     0.52168   0.44610   0.93368   0.00000  Uiso   1.00
H1475  H     0.37236   0.53758   0.58488   0.00000  Uiso   1.00
O1476  O     0.50000   0.50000   0.75000   0.00000  Uiso   1.00
O1477  O     0.49027   0.45726   0.66625   0.00000  Uiso   1.00
O1478  O     0.46020   0.53979   0.83749   0.00000  Uiso   1.00
O1479  O     0.54421   0.50826   0.65877   0.00000  Uiso   1.00
O1480  O     0.50532   0.49468   0.83749   0.00000  Uiso   1.00
O1481  O     0.40859   0.57829   0.54437   0.00000  Uiso   1.00
O1482  O     0.55472   0.34235   0.71767   0.00000  Uiso   1.00
O1483  O     0.59307   0.43740   0.59720   0.00000  Uiso   1.00
O1484  O     0.39279   0.58732   0.98033   0.00000  Uiso   1.00
O1485  O     0.53328   0.50248   0.89889   0.00000  Uiso   1.00
O1486  O     0.46204   0.55407   0.57974   0.00000  Uiso   1.00
O1487  O     0.51182   0.41434   0.77820   0.00000  Uiso   1.00
O1488  O     0.47914   0.59469   0.76767   0.00000  Uiso   1.00
O1489  O     0.40785   0.46584   0.73607   0.00000  Uiso   1.00
O1490  O     0.60119   0.52512   0.71805   0.00000  Uiso   1.00
O1491  O     0.40323   0.52293   0.77820   0.00000  Uiso   1.00
O1492  O     0.58773   0.48610   0.76767   0.00000  Uiso   1.00
O1493  O     0.47133   0.40236   0.73607   0.00000  Uiso   1.00
O1494  O     0.53771   0.58860   0.71805   0.00000  Uiso   1.00
Zn1495 Zn    0.52577   0.47423   0.78277   0.00000  Uiso   1.00
Zn1496 Zn    0.46792   0.45711   0.72257   0.00000  Uiso   1.00
Zn1497 Zn    0.54500   0.52997   0.71188   0.00000  Uiso   1.00
Zn1498 Zn    0.46131   0.53868   0.78277   0.00000  Uiso   1.00
C1499  C     0.71915   0.49333   0.75869   0.00000  Uiso   1.00
C1500  C     0.85429   0.45969   0.96315   0.00000  Uiso   1.00
C1501  C     0.87892   0.44294   0.98147   0.00000  Uiso   1.00
C1502  C     0.94774   0.50695   0.74117   0.00000  Uiso   1.00
C1503  C     0.87587   0.45516   0.52088   0.00000  Uiso   1.00
C1504  C     0.84474   0.48203   0.54320   0.00000  Uiso   1.00
C1505  C     0.90273   0.43956   0.53848   0.00000  Uiso   1.00
C1506  C     0.89890   0.44999   0.57875   0.00000  Uiso   1.00
C1507  C     0.83623   0.48549   0.58429   0.00000  Uiso   1.00
C1508  C     0.99379   0.50980   0.73764   0.00000  Uiso   1.00
C1509  C     0.67374   0.49098   0.76205   0.00000  Uiso   1.00
C1510  C     0.76739   0.55220   0.92018   0.00000  Uiso   1.00
C1511  C     0.84925   0.65613   0.73944   0.00000  Uiso   1.00
C1512  C     0.81785   0.34529   0.76150   0.00000  Uiso   1.00
C1513  C     0.82202   0.38954   0.75925   0.00000  Uiso   1.00
C1514  C     0.84379   0.61112   0.74153   0.00000  Uiso   1.00
C1515  C     0.85504   0.47851   0.64407   0.00000  Uiso   1.00
C1516  C     0.81222   0.52134   0.85615   0.00000  Uiso   1.00
C1517  C     0.80184   0.52952   0.89930   0.00000  Uiso   1.00
C1518  C     0.86349   0.47067   0.60166   0.00000  Uiso   1.00
C1519  C     0.75835   0.56191   0.96094   0.00000  Uiso   1.00
C1520  C     0.70201   0.55564   0.56212   0.00000  Uiso   1.00
C1521  C     0.82651   0.51493   0.91971   0.00000  Uiso   1.00
C1522  C     0.66874   0.58641   0.58173   0.00000  Uiso   1.00
C1523  C     0.95780   0.56367   0.60076   0.00000  Uiso   1.00
C1524  C     0.88791   0.33808   0.67798   0.00000  Uiso   1.00
C1525  C     0.92780   0.36364   0.65472   0.00000  Uiso   1.00
C1526  C     0.97025   0.44300   0.57453   0.00000  Uiso   1.00
C1527  C     0.99971   0.44897   0.60140   0.00000  Uiso   1.00
C1528  C     0.73862   0.62892   0.97010   0.00000  Uiso   1.00
C1529  C     0.76202   0.65522   0.99845   0.00000  Uiso   1.00
C1530  C     0.77452   0.36710   0.98867   0.00000  Uiso   1.00
C1531  C     0.89873   0.53650   0.90108   0.00000  Uiso   1.00
C1532  C     0.81158   0.51580   0.96122   0.00000  Uiso   1.00
C1533  C     0.94260   0.52391   0.87634   0.00000  Uiso   1.00
C1534  C     0.82866   0.58785   0.57587   0.00000  Uiso   1.00
C1535  C     0.82823   0.60990   0.61629   0.00000  Uiso   1.00
C1536  C     0.77926   0.54224   0.98208   0.00000  Uiso   1.00
C1537  C     0.82968   0.49287   0.98231   0.00000  Uiso   1.00
C1538  C     0.82275   0.50298   0.52351   0.00000  Uiso   1.00
C1539  C     0.79589   0.53499   0.54262   0.00000  Uiso   1.00
C1540  C     0.77052   0.55018   0.52324   0.00000  Uiso   1.00
H1541  H     0.92679   0.41966   0.52077   0.00000  Uiso   1.00
H1542  H     0.68980   0.53385   0.53971   0.00000  Uiso   1.00
H1543  H     0.68011   0.60810   0.60456   0.00000  Uiso   1.00
H1544  H     0.99882   0.60524   0.55940   0.00000  Uiso   1.00
H1545  H     0.94531   0.54252   0.57830   0.00000  Uiso   1.00
H1546  H     0.93450   0.58687   0.61482   0.00000  Uiso   1.00
H1547  H     0.96017   0.54509   0.62361   0.00000  Uiso   1.00
H1548  H     0.85875   0.34980   0.67472   0.00000  Uiso   1.00
H1549  H     0.88910   0.63819   0.66524   0.00000  Uiso   1.00
H1550  H     0.95759   0.35269   0.65713   0.00000  Uiso   1.00
H1551  H     0.92830   0.35998   0.62329   0.00000  Uiso   1.00
H1552  H     0.68362   0.52722   0.71513   0.00000  Uiso   1.00
H1553  H     0.92716   0.39724   0.66623   0.00000  Uiso   1.00
H1554  H     0.97758   0.47109   0.55814   0.00000  Uiso   1.00
H1555  H     0.97808   0.41476   0.55341   0.00000  Uiso   1.00
H1556  H     0.99681   0.42010   0.61555   0.00000  Uiso   1.00
H1557  H     0.70062   0.45590   0.58398   0.00000  Uiso   1.00
H1558  H     0.99089   0.47544   0.62445   0.00000  Uiso   1.00
H1559  H     0.70859   0.64287   0.97271   0.00000  Uiso   1.00
H1560  H     0.75892   0.63100   0.93921   0.00000  Uiso   1.00
H1561  H     0.74046   0.65517   0.52896   0.00000  Uiso   1.00
H1562  H     0.79185   0.64140   0.99681   0.00000  Uiso   1.00
H1563  H     0.98460   0.47327   0.78465   0.00000  Uiso   1.00
H1564  H     0.79702   0.36824   0.95863   0.00000  Uiso   1.00
H1565  H     0.79099   0.38526   0.50997   0.00000  Uiso   1.00
H1566  H     0.74519   0.38187   0.99056   0.00000  Uiso   1.00
H1567  H     0.90022   0.54524   0.93192   0.00000  Uiso   1.00
H1568  H     0.89243   0.56424   0.88943   0.00000  Uiso   1.00
H1569  H     0.94234   0.51589   0.84521   0.00000  Uiso   1.00
H1570  H     0.96826   0.55027   0.87805   0.00000  Uiso   1.00
H1571  H     0.94997   0.49635   0.88727   0.00000  Uiso   1.00
H1572  H     0.82371   0.61109   0.55799   0.00000  Uiso   1.00
H1573  H     0.86107   0.57663   0.56205   0.00000  Uiso   1.00
H1574  H     0.78717   0.66401   0.77875   0.00000  Uiso   1.00
H1575  H     0.83516   0.58818   0.63437   0.00000  Uiso   1.00
H1576  H     0.85339   0.63731   0.61306   0.00000  Uiso   1.00
H1577  H     0.79609   0.62094   0.63120   0.00000  Uiso   1.00
H1578  H     0.80820   0.49877   0.60377   0.00000  Uiso   1.00
H1579  H     0.89987   0.41967   0.96485   0.00000  Uiso   1.00
H1580  H     0.74824   0.56393   0.90473   0.00000  Uiso   1.00
H1581  H     0.85501   0.44610   0.93368   0.00000  Uiso   1.00
H1582  H     0.70569   0.53758   0.58488   0.00000  Uiso   1.00
O1583  O     0.83333   0.50000   0.75000   0.00000  Uiso   1.00
O1584  O     0.82360   0.45726   0.66625   0.00000  Uiso   1.00
O1585  O     0.79354   0.53979   0.83749   0.00000  Uiso   1.00
O1586  O     0.87755   0.50826   0.65877   0.00000  Uiso   1.00
O1587  O     0.83865   0.49468   0.83749   0.00000  Uiso   1.00
O1588  O     0.74193   0.57829   0.54437   0.00000  Uiso   1.00
O1589  O     0.88805   0.34235   0.71767   0.00000  Uiso   1.00
O1590  O     0.92640   0.43740   0.59720   0.00000  Uiso   1.00
O1591  O     0.72612   0.58732   0.98033   0.00000  Uiso   1.00
O1592  O     0.86662   0.50248   0.89889   0.00000  Uiso   1.00
O1593  O     0.79537   0.55407   0.57974   0.00000  Uiso   1.00
O1594  O     0.84515   0.41434   0.77820   0.00000  Uiso   1.00
O1595  O     0.81247   0.59469   0.76767   0.00000  Uiso   1.00
O1596  O     0.74119   0.46584   0.73607   0.00000  Uiso   1.00
O1597  O     0.93452   0.52512   0.71805   0.00000  Uiso   1.00
O1598  O     0.73656   0.52293   0.77820   0.00000  Uiso   1.00
O1599  O     0.92106   0.48610   0.76767   0.00000  Uiso   1.00
O1600  O     0.80467   0.40236   0.73607   0.00000  Uiso   1.00
O1601  O     0.87104   0.58860   0.71805   0.00000  Uiso   1.00
Zn1602 Zn    0.85910   0.47423   0.78277   0.00000  Uiso   1.00
Zn1603 Zn    0.80125   0.45711   0.72257   0.00000  Uiso   1.00
Zn1604 Zn    0.87833   0.52997   0.71188   0.00000  Uiso   1.00
Zn1605 Zn    0.79465   0.53868   0.78277   0.00000  Uiso   1.00
C1606  C     0.05248   0.82666   0.75869   0.00000  Uiso   1.00
C1607  C     0.18762   0.79302   0.96315   0.00000  Uiso   1.00
C1608  C     0.21225   0.77627   0.98147   0.00000  Uiso   1.00
C1609  C     0.28107   0.84028   0.74117   0.00000  Uiso   1.00
C1610  C     0.20920   0.78849   0.52088   0.00000  Uiso   1.00
C1611  C     0.17808   0.81536   0.54320   0.00000  Uiso   1.00
C1612  C     0.23607   0.77290   0.53848   0.00000  Uiso   1.00
C1613  C     0.23223   0.78333   0.57875   0.00000  Uiso   1.00
C1614  C     0.16957   0.81883   0.58429   0.00000  Uiso   1.00
C1615  C     0.32712   0.84313   0.73764   0.00000  Uiso   1.00
C1616  C     0.00707   0.82432   0.76205   0.00000  Uiso   1.00
C1617  C     0.10073   0.88554   0.92018   0.00000  Uiso   1.00
C1618  C     0.18258   0.98947   0.73944   0.00000  Uiso   1.00
C1619  C     0.15119   0.67863   0.76150   0.00000  Uiso   1.00
C1620  C     0.15535   0.72288   0.75925   0.00000  Uiso   1.00
C1621  C     0.17712   0.94445   0.74153   0.00000  Uiso   1.00
C1622  C     0.18837   0.81185   0.64407   0.00000  Uiso   1.00
C1623  C     0.14556   0.85467   0.85615   0.00000  Uiso   1.00
C1624  C     0.13517   0.86285   0.89930   0.00000  Uiso   1.00
C1625  C     0.19682   0.80400   0.60166   0.00000  Uiso   1.00
C1626  C     0.09169   0.89524   0.96094   0.00000  Uiso   1.00
C1627  C     0.03534   0.88898   0.56212   0.00000  Uiso   1.00
C1628  C     0.15985   0.84826   0.91971   0.00000  Uiso   1.00
C1629  C     0.00208   0.91975   0.58173   0.00000  Uiso   1.00
C1630  C     0.29114   0.89700   0.60076   0.00000  Uiso   1.00
C1631  C     0.22125   0.67141   0.67798   0.00000  Uiso   1.00
C1632  C     0.26113   0.69697   0.65472   0.00000  Uiso   1.00
C1633  C     0.30359   0.77634   0.57453   0.00000  Uiso   1.00
C1634  C     0.33305   0.78231   0.60140   0.00000  Uiso   1.00
C1635  C     0.07195   0.96225   0.97010   0.00000  Uiso   1.00
C1636  C     0.09536   0.98855   0.99845   0.00000  Uiso   1.00
C1637  C     0.10785   0.70043   0.98867   0.00000  Uiso   1.00
C1638  C     0.23207   0.86983   0.90108   0.00000  Uiso   1.00
C1639  C     0.14491   0.84913   0.96122   0.00000  Uiso   1.00
C1640  C     0.27593   0.85725   0.87634   0.00000  Uiso   1.00
C1641  C     0.16200   0.92118   0.57587   0.00000  Uiso   1.00
C1642  C     0.16156   0.94323   0.61629   0.00000  Uiso   1.00
C1643  C     0.11259   0.87558   0.98208   0.00000  Uiso   1.00
C1644  C     0.16301   0.82620   0.98231   0.00000  Uiso   1.00
C1645  C     0.15608   0.83632   0.52351   0.00000  Uiso   1.00
C1646  C     0.12922   0.86832   0.54262   0.00000  Uiso   1.00
C1647  C     0.10386   0.88352   0.52324   0.00000  Uiso   1.00
H1648  H     0.26013   0.75300   0.52077   0.00000  Uiso   1.00
H1649  H     0.02313   0.86718   0.53971   0.00000  Uiso   1.00
H1650  H     0.01344   0.94143   0.60456   0.00000  Uiso   1.00
H1651  H     0.33215   0.93857   0.55940   0.00000  Uiso   1.00
H1652  H     0.27864   0.87585   0.57830   0.00000  Uiso   1.00
H1653  H     0.26784   0.92020   0.61482   0.00000  Uiso   1.00
H1654  H     0.29350   0.87842   0.62361   0.00000  Uiso   1.00
H1655  H     0.19208   0.68313   0.67472   0.00000  Uiso   1.00
H1656  H     0.22244   0.97152   0.66524   0.00000  Uiso   1.00
H1657  H     0.29093   0.68603   0.65713   0.00000  Uiso   1.00
H1658  H     0.26163   0.69331   0.62329   0.00000  Uiso   1.00
H1659  H     0.01695   0.86056   0.71513   0.00000  Uiso   1.00
H1660  H     0.26049   0.73058   0.66623   0.00000  Uiso   1.00
H1661  H     0.31091   0.80443   0.55814   0.00000  Uiso   1.00
H1662  H     0.31142   0.74810   0.55341   0.00000  Uiso   1.00
H1663  H     0.33014   0.75343   0.61555   0.00000  Uiso   1.00
H1664  H     0.03395   0.78923   0.58398   0.00000  Uiso   1.00
H1665  H     0.32423   0.80878   0.62445   0.00000  Uiso   1.00
H1666  H     0.04192   0.97620   0.97271   0.00000  Uiso   1.00
H1667  H     0.09226   0.96433   0.93921   0.00000  Uiso   1.00
H1668  H     0.07380   0.98850   0.52896   0.00000  Uiso   1.00
H1669  H     0.12519   0.97473   0.99681   0.00000  Uiso   1.00
H1670  H     0.31793   0.80660   0.78465   0.00000  Uiso   1.00
H1671  H     0.13035   0.70157   0.95863   0.00000  Uiso   1.00
H1672  H     0.12433   0.71860   0.50997   0.00000  Uiso   1.00
H1673  H     0.07852   0.71520   0.99056   0.00000  Uiso   1.00
H1674  H     0.23356   0.87857   0.93192   0.00000  Uiso   1.00
H1675  H     0.22576   0.89758   0.88943   0.00000  Uiso   1.00
H1676  H     0.27567   0.84922   0.84521   0.00000  Uiso   1.00
H1677  H     0.30159   0.88360   0.87805   0.00000  Uiso   1.00
H1678  H     0.28331   0.82969   0.88727   0.00000  Uiso   1.00
H1679  H     0.15704   0.94442   0.55799   0.00000  Uiso   1.00
H1680  H     0.19440   0.90996   0.56205   0.00000  Uiso   1.00
H1681  H     0.12051   0.99734   0.77875   0.00000  Uiso   1.00
H1682  H     0.16849   0.92151   0.63437   0.00000  Uiso   1.00
H1683  H     0.18672   0.97064   0.61306   0.00000  Uiso   1.00
H1684  H     0.12942   0.95427   0.63120   0.00000  Uiso   1.00
H1685  H     0.14153   0.83210   0.60377   0.00000  Uiso   1.00
H1686  H     0.23320   0.75300   0.96485   0.00000  Uiso   1.00
H1687  H     0.08158   0.89726   0.90473   0.00000  Uiso   1.00
H1688  H     0.18835   0.77944   0.93368   0.00000  Uiso   1.00
H1689  H     0.03902   0.87091   0.58488   0.00000  Uiso   1.00
O1690  O     0.16667   0.83333   0.75000   0.00000  Uiso   1.00
O1691  O     0.15693   0.79060   0.66625   0.00000  Uiso   1.00
O1692  O     0.12687   0.87313   0.83749   0.00000  Uiso   1.00
O1693  O     0.21088   0.84159   0.65877   0.00000  Uiso   1.00
O1694  O     0.17198   0.82802   0.83749   0.00000  Uiso   1.00
O1695  O     0.07526   0.91162   0.54437   0.00000  Uiso   1.00
O1696  O     0.22139   0.67569   0.71767   0.00000  Uiso   1.00
O1697  O     0.25974   0.77073   0.59720   0.00000  Uiso   1.00
O1698  O     0.05946   0.92066   0.98033   0.00000  Uiso   1.00
O1699  O     0.19995   0.83582   0.89889   0.00000  Uiso   1.00
O1700  O     0.12870   0.88740   0.57974   0.00000  Uiso   1.00
O1701  O     0.17849   0.74768   0.77820   0.00000  Uiso   1.00
O1702  O     0.14581   0.92803   0.76767   0.00000  Uiso   1.00
O1703  O     0.07452   0.79917   0.73607   0.00000  Uiso   1.00
O1704  O     0.26785   0.85845   0.71805   0.00000  Uiso   1.00
O1705  O     0.06990   0.85627   0.77820   0.00000  Uiso   1.00
O1706  O     0.25440   0.81944   0.76767   0.00000  Uiso   1.00
O1707  O     0.13800   0.73570   0.73607   0.00000  Uiso   1.00
O1708  O     0.20437   0.92193   0.71805   0.00000  Uiso   1.00
Zn1709 Zn    0.19244   0.80756   0.78277   0.00000  Uiso   1.00
Zn1710 Zn    0.13459   0.79044   0.72257   0.00000  Uiso   1.00
Zn1711 Zn    0.21166   0.86331   0.71188   0.00000  Uiso   1.00
Zn1712 Zn    0.12798   0.87202   0.78277   0.00000  Uiso   1.00
C1713  C     0.38581   0.82666   0.75869   0.00000  Uiso   1.00
C1714  C     0.52096   0.79302   0.96315   0.00000  Uiso   1.00
C1715  C     0.54559   0.77627   0.98147   0.00000  Uiso   1.00
C1716  C     0.61440   0.84028   0.74117   0.00000  Uiso   1.00
C1717  C     0.54253   0.78849   0.52088   0.00000  Uiso   1.00
C1718  C     0.51141   0.81536   0.54320   0.00000  Uiso   1.00
C1719  C     0.56940   0.77290   0.53848   0.00000  Uiso   1.00
C1720  C     0.56556   0.78333   0.57875   0.00000  Uiso   1.00
C1721  C     0.50290   0.81883   0.58429   0.00000  Uiso   1.00
C1722  C     0.66046   0.84313   0.73764   0.00000  Uiso   1.00
C1723  C     0.34041   0.82432   0.76205   0.00000  Uiso   1.00
C1724  C     0.43406   0.88554   0.92018   0.00000  Uiso   1.00
C1725  C     0.51592   0.98947   0.73944   0.00000  Uiso   1.00
C1726  C     0.48452   0.67863   0.76150   0.00000  Uiso   1.00
C1727  C     0.48868   0.72288   0.75925   0.00000  Uiso   1.00
C1728  C     0.51045   0.94445   0.74153   0.00000  Uiso   1.00
C1729  C     0.52170   0.81185   0.64407   0.00000  Uiso   1.00
C1730  C     0.47889   0.85467   0.85615   0.00000  Uiso   1.00
C1731  C     0.46851   0.86285   0.89930   0.00000  Uiso   1.00
C1732  C     0.53015   0.80400   0.60166   0.00000  Uiso   1.00
C1733  C     0.42502   0.89524   0.96094   0.00000  Uiso   1.00
C1734  C     0.36867   0.88898   0.56212   0.00000  Uiso   1.00
C1735  C     0.49318   0.84826   0.91971   0.00000  Uiso   1.00
C1736  C     0.33541   0.91975   0.58173   0.00000  Uiso   1.00
C1737  C     0.62447   0.89700   0.60076   0.00000  Uiso   1.00
C1738  C     0.55458   0.67141   0.67798   0.00000  Uiso   1.00
C1739  C     0.59446   0.69697   0.65472   0.00000  Uiso   1.00
C1740  C     0.63692   0.77634   0.57453   0.00000  Uiso   1.00
C1741  C     0.66638   0.78231   0.60140   0.00000  Uiso   1.00
C1742  C     0.40528   0.96225   0.97010   0.00000  Uiso   1.00
C1743  C     0.42869   0.98855   0.99845   0.00000  Uiso   1.00
C1744  C     0.44119   0.70043   0.98867   0.00000  Uiso   1.00
C1745  C     0.56540   0.86983   0.90108   0.00000  Uiso   1.00
C1746  C     0.47824   0.84913   0.96122   0.00000  Uiso   1.00
C1747  C     0.60927   0.85725   0.87634   0.00000  Uiso   1.00
C1748  C     0.49533   0.92118   0.57587   0.00000  Uiso   1.00
C1749  C     0.49489   0.94323   0.61629   0.00000  Uiso   1.00
C1750  C     0.44593   0.87558   0.98208   0.00000  Uiso   1.00
C1751  C     0.49634   0.82620   0.98231   0.00000  Uiso   1.00
C1752  C     0.48941   0.83632   0.52351   0.00000  Uiso   1.00
C1753  C     0.46255   0.86832   0.54262   0.00000  Uiso   1.00
C1754  C     0.43719   0.88352   0.52324   0.00000  Uiso   1.00
H1755  H     0.59346   0.75300   0.52077   0.00000  Uiso   1.00
H1756  H     0.35646   0.86718   0.53971   0.00000  Uiso   1.00
H1757  H     0.34677   0.94143   0.60456   0.00000  Uiso   1.00
H1758  H     0.66549   0.93857   0.55940   0.00000  Uiso   1.00
H1759  H     0.61197   0.87585   0.57830   0.00000  Uiso   1.00
H1760  H     0.60117   0.92020   0.61482   0.00000  Uiso   1.00
H1761  H     0.62684   0.87842   0.62361   0.00000  Uiso   1.00
H1762  H     0.52542   0.68313   0.67472   0.00000  Uiso   1.00
H1763  H     0.55577   0.97152   0.66524   0.00000  Uiso   1.00
H1764  H     0.62426   0.68603   0.65713   0.00000  Uiso   1.00
H1765  H     0.59497   0.69331   0.62329   0.00000  Uiso   1.00
H1766  H     0.35028   0.86056   0.71513   0.00000  Uiso   1.00
H1767  H     0.59382   0.73058   0.66623   0.00000  Uiso   1.00
H1768  H     0.64425   0.80443   0.55814   0.00000  Uiso   1.00
H1769  H     0.64475   0.74810   0.55341   0.00000  Uiso   1.00
H1770  H     0.66348   0.75343   0.61555   0.00000  Uiso   1.00
H1771  H     0.36728   0.78923   0.58398   0.00000  Uiso   1.00
H1772  H     0.65756   0.80878   0.62445   0.00000  Uiso   1.00
H1773  H     0.37525   0.97620   0.97271   0.00000  Uiso   1.00
H1774  H     0.42559   0.96433   0.93921   0.00000  Uiso   1.00
H1775  H     0.40713   0.98850   0.52896   0.00000  Uiso   1.00
H1776  H     0.45852   0.97473   0.99681   0.00000  Uiso   1.00
H1777  H     0.65127   0.80660   0.78465   0.00000  Uiso   1.00
H1778  H     0.46369   0.70157   0.95863   0.00000  Uiso   1.00
H1779  H     0.45766   0.71860   0.50997   0.00000  Uiso   1.00
H1780  H     0.41186   0.71520   0.99056   0.00000  Uiso   1.00
H1781  H     0.56689   0.87857   0.93192   0.00000  Uiso   1.00
H1782  H     0.55909   0.89758   0.88943   0.00000  Uiso   1.00
H1783  H     0.60900   0.84922   0.84521   0.00000  Uiso   1.00
H1784  H     0.63493   0.88360   0.87805   0.00000  Uiso   1.00
H1785  H     0.61664   0.82969   0.88727   0.00000  Uiso   1.00
H1786  H     0.49037   0.94442   0.55799   0.00000  Uiso   1.00
H1787  H     0.52773   0.90996   0.56205   0.00000  Uiso   1.00
H1788  H     0.45384   0.99734   0.77875   0.00000  Uiso   1.00
H1789  H     0.50182   0.92151   0.63437   0.00000  Uiso   1.00
H1790  H     0.52005   0.97064   0.61306   0.00000  Uiso   1.00
H1791  H     0.46275   0.95427   0.63120   0.00000  Uiso   1.00
H1792  H     0.47486   0.83210   0.60377   0.00000  Uiso   1.00
H1793  H     0.56653   0.75300   0.96485   0.00000  Uiso   1.00
H1794  H     0.41491   0.89726   0.90473   0.00000  Uiso   1.00
H1795  H     0.52168   0.77944   0.93368   0.00000  Uiso   1.00
H1796  H     0.37236   0.87091   0.58488   0.00000  Uiso   1.00
O1797  O     0.50000   0.83333   0.75000   0.00000  Uiso   1.00
O1798  O     0.49027   0.79060   0.66625   0.00000  Uiso   1.00
O1799  O     0.46020   0.87313   0.83749   0.00000  Uiso   1.00
O1800  O     0.54421   0.84159   0.65877   0.00000  Uiso   1.00
O1801  O     0.50532   0.82802   0.83749   0.00000  Uiso   1.00
O1802  O     0.40859   0.91162   0.54437   0.00000  Uiso   1.00
O1803  O     0.55472   0.67569   0.71767   0.00000  Uiso   1.00
O1804  O     0.59307   0.77073   0.59720   0.00000  Uiso   1.00
O1805  O     0.39279   0.92066   0.98033   0.00000  Uiso   1.00
O1806  O     0.53328   0.83582   0.89889   0.00000  Uiso   1.00
O1807  O     0.46204   0.88740   0.57974   0.00000  Uiso   1.00
O1808  O     0.51182   0.74768   0.77820   0.00000  Uiso   1.00
O1809  O     0.47914   0.92803   0.76767   0.00000  Uiso   1.00
O1810  O     0.40785   0.79917   0.73607   0.00000  Uiso   1.00
O1811  O     0.60119   0.85845   0.71805   0.00000  Uiso   1.00
O1812  O     0.40323   0.85627   0.77820   0.00000  Uiso   1.00
O1813  O     0.58773   0.81944   0.76767   0.00000  Uiso   1.00
O1814  O     0.47133   0.73570   0.73607   0.00000  Uiso   1.00
O1815  O     0.53771   0.92193   0.71805   0.00000  Uiso   1.00
Zn1816 Zn    0.52577   0.80756   0.78277   0.00000  Uiso   1.00
Zn1817 Zn    0.46792   0.79044   0.72257   0.00000  Uiso   1.00
Zn1818 Zn    0.54500   0.86331   0.71188   0.00000  Uiso   1.00
Zn1819 Zn    0.46131   0.87202   0.78277   0.00000  Uiso   1.00
C1820  C     0.71915   0.82666   0.75869   0.00000  Uiso   1.00
C1821  C     0.85429   0.79302   0.96315   0.00000  Uiso   1.00
C1822  C     0.87892   0.77627   0.98147   0.00000  Uiso   1.00
C1823  C     0.94774   0.84028   0.74117   0.00000  Uiso   1.00
C1824  C     0.87587   0.78849   0.52088   0.00000  Uiso   1.00
C1825  C     0.84474   0.81536   0.54320   0.00000  Uiso   1.00
C1826  C     0.90273   0.77290   0.53848   0.00000  Uiso   1.00
C1827  C     0.89890   0.78333   0.57875   0.00000  Uiso   1.00
C1828  C     0.83623   0.81883   0.58429   0.00000  Uiso   1.00
C1829  C     0.99379   0.84313   0.73764   0.00000  Uiso   1.00
C1830  C     0.67374   0.82432   0.76205   0.00000  Uiso   1.00
C1831  C     0.76739   0.88554   0.92018   0.00000  Uiso   1.00
C1832  C     0.84925   0.98947   0.73944   0.00000  Uiso   1.00
C1833  C     0.81785   0.67863   0.76150   0.00000  Uiso   1.00
C1834  C     0.82202   0.72288   0.75925   0.00000  Uiso   1.00
C1835  C     0.84379   0.94445   0.74153   0.00000  Uiso   1.00
C1836  C     0.85504   0.81185   0.64407   0.00000  Uiso   1.00
C1837  C     0.81222   0.85467   0.85615   0.00000  Uiso   1.00
C1838  C     0.80184   0.86285   0.89930   0.00000  Uiso   1.00
C1839  C     0.86349   0.80400   0.60166   0.00000  Uiso   1.00
C1840  C     0.75835   0.89524   0.96094   0.00000  Uiso   1.00
C1841  C     0.70201   0.88898   0.56212   0.00000  Uiso   1.00
C1842  C     0.82651   0.84826   0.91971   0.00000  Uiso   1.00
C1843  C     0.66874   0.91975   0.58173   0.00000  Uiso   1.00
C1844  C     0.95780   0.89700   0.60076   0.00000  Uiso   1.00
C1845  C     0.88791   0.67141   0.67798   0.00000  Uiso   1.00
C1846  C     0.92780   0.69697   0.65472   0.00000  Uiso   1.00
C1847  C     0.97025   0.77634   0.57453   0.00000  Uiso   1.00
C1848  C     0.99971   0.78231   0.60140   0.00000  Uiso   1.00
C1849  C     0.73862   0.96225   0.97010   0.00000  Uiso   1.00
C1850  C     0.76202   0.98855   0.99845   0.00000  Uiso   1.00
C1851  C     0.77452   0.70043   0.98867   0.00000  Uiso   1.00
C1852  C     0.89873   0.86983   0.90108   0.00000  Uiso   1.00
C1853  C     0.81158   0.84913   0.96122   0.00000  Uiso   1.00
C1854  C     0.94260   0.85725   0.87634   0.00000  Uiso   1.00
C1855  C     0.82866   0.92118   0.57587   0.00000  Uiso   1.00
C1856  C     0.82823   0.94323   0.61629   0.00000  Uiso   1.00
C1857  C     0.77926   0.87558   0.98208   0.00000  Uiso   1.00
C1858  C     0.82968   0.82620   0.98231   0.00000  Uiso   1.00
C1859  C     0.82275   0.83632   0.52351   0.00000  Uiso   1.00
C1860  C     0.79589   0.86832   0.54262   0.00000  Uiso   1.00
C1861  C     0.77052   0.88352   0.52324   0.00000  Uiso   1.00
H1862  H     0.92679   0.75300   0.52077   0.00000  Uiso   1.00
H1863  H     0.68980   0.86718   0.53971   0.00000  Uiso   1.00
H1864  H     0.68011   0.94143   0.60456   0.00000  Uiso   1.00
H1865  H     0.99882   0.93857   0.55940   0.00000  Uiso   1.00
H1866  H     0.94531   0.87585   0.57830   0.00000  Uiso   1.00
H1867  H     0.93450   0.92020   0.61482   0.00000  Uiso   1.00
H1868  H     0.96017   0.87842   0.62361   0.00000  Uiso   1.00
H1869  H     0.85875   0.68313   0.67472   0.00000  Uiso   1.00
H1870  H     0.88910   0.97152   0.66524   0.00000  Uiso   1.00
H1871  H     0.95759   0.68603   0.65713   0.00000  Uiso   1.00
H1872  H     0.92830   0.69331   0.62329   0.00000  Uiso   1.00
H1873  H     0.68362   0.86056   0.71513   0.00000  Uiso   1.00
H1874  H     0.92716   0.73058   0.66623   0.00000  Uiso   1.00
H1875  H     0.97758   0.80443   0.55814   0.00000  Uiso   1.00
H1876  H     0.97808   0.74810   0.55341   0.00000  Uiso   1.00
H1877  H     0.99681   0.75343   0.61555   0.00000  Uiso   1.00
H1878  H     0.70062   0.78923   0.58398   0.00000  Uiso   1.00
H1879  H     0.99089   0.80878   0.62445   0.00000  Uiso   1.00
H1880  H     0.70859   0.97620   0.97271   0.00000  Uiso   1.00
H1881  H     0.75892   0.96433   0.93921   0.00000  Uiso   1.00
H1882  H     0.74046   0.98850   0.52896   0.00000  Uiso   1.00
H1883  H     0.79185   0.97473   0.99681   0.00000  Uiso   1.00
H1884  H     0.98460   0.80660   0.78465   0.00000  Uiso   1.00
H1885  H     0.79702   0.70157   0.95863   0.00000  Uiso   1.00
H1886  H     0.79099   0.71860   0.50997   0.00000  Uiso   1.00
H1887  H     0.74519   0.71520   0.99056   0.00000  Uiso   1.00
H1888  H     0.90022   0.87857   0.93192   0.00000  Uiso   1.00
H1889  H     0.89243   0.89758   0.88943   0.00000  Uiso   1.00
H1890  H     0.94234   0.84922   0.84521   0.00000  Uiso   1.00
H1891  H     0.96826   0.88360   0.87805   0.00000  Uiso   1.00
H1892  H     0.94997   0.82969   0.88727   0.00000  Uiso   1.00
H1893  H     0.82371   0.94442   0.55799   0.00000  Uiso   1.00
H1894  H     0.86107   0.90996   0.56205   0.00000  Uiso   1.00
H1895  H     0.78717   0.99734   0.77875   0.00000  Uiso   1.00
H1896  H     0.83516   0.92151   0.63437   0.00000  Uiso   1.00
H1897  H     0.85339   0.97064   0.61306   0.00000  Uiso   1.00
H1898  H     0.79609   0.95427   0.63120   0.00000  Uiso   1.00
H1899  H     0.80820   0.83210   0.60377   0.00000  Uiso   1.00
H1900  H     0.89987   0.75300   0.96485   0.00000  Uiso   1.00
H1901  H     0.74824   0.89726   0.90473   0.00000  Uiso   1.00
H1902  H     0.85501   0.77944   0.93368   0.00000  Uiso   1.00
H1903  H     0.70569   0.87091   0.58488   0.00000  Uiso   1.00
O1904  O     0.83333   0.83333   0.75000   0.00000  Uiso   1.00
O1905  O     0.82360   0.79060   0.66625   0.00000  Uiso   1.00
O1906  O     0.79354   0.87313   0.83749   0.00000  Uiso   1.00
O1907  O     0.87755   0.84159   0.65877   0.00000  Uiso   1.00
O1908  O     0.83865   0.82802   0.83749   0.00000  Uiso   1.00
O1909  O     0.74193   0.91162   0.54437   0.00000  Uiso   1.00
O1910  O     0.88805   0.67569   0.71767   0.00000  Uiso   1.00
O1911  O     0.92640   0.77073   0.59720   0.00000  Uiso   1.00
O1912  O     0.72612   0.92066   0.98033   0.00000  Uiso   1.00
O1913  O     0.86662   0.83582   0.89889   0.00000  Uiso   1.00
O1914  O     0.79537   0.88740   0.57974   0.00000  Uiso   1.00
O1915  O     0.84515   0.74768   0.77820   0.00000  Uiso   1.00
O1916  O     0.81247   0.92803   0.76767   0.00000  Uiso   1.00
O1917  O     0.74119   0.79917   0.73607   0.00000  Uiso   1.00
O1918  O     0.93452   0.85845   0.71805   0.00000  Uiso   1.00
O1919  O     0.73656   0.85627   0.77820   0.00000  Uiso   1.00
O1920  O     0.92106   0.81944   0.76767   0.00000  Uiso   1.00
O1921  O     0.80467   0.73570   0.73607   0.00000  Uiso   1.00
O1922  O     0.87104   0.92193   0.71805   0.00000  Uiso   1.00
Zn1923 Zn    0.85910   0.80756   0.78277   0.00000  Uiso   1.00
Zn1924 Zn    0.80125   0.79044   0.72257   0.00000  Uiso   1.00
Zn1925 Zn    0.87833   0.86331   0.71188   0.00000  Uiso   1.00
Zn1926 Zn    0.79465   0.87202   0.78277   0.00000  Uiso   1.00
loop_
_geom_bond_atom_site_label_1
_geom_bond_atom_site_label_2
_geom_bond_distance
_geom_bond_site_symmetry_2
_ccdc_geom_bond_type
C1     C11     1.436   .     S
C1     O100    1.269   .     A
C1     O98     1.268   .     A
C2     C39     1.413   .     A
C2     H83     1.079   .     S
C2     C3      1.383   .     A
C3     H81     1.084   .     S
C3     C968    1.389   .     S
C4     O99     1.283   .     A
C4     O101    1.279   .     A
C4     C10     1.454   .     S
C5     C6      1.419   .     A
C5     C7      1.402   .     A
C5     C966    1.389   1_554 S
C6     C9      1.406   .     A
C6     C40     1.433   .     A
C7     C8      1.406   .     A
C7     H43     1.083   .     S
C8     C20     1.402   .     A
C8     O92     1.393   .     S
C9     H80     1.077   .     S
C9     C20     1.394   .     A
C10    C118    1.335   .     S
C10    H161    1.088   .     S
C11    C224    1.335   1_455 S
C11    H279    1.086   1_455 S
C12    C21     1.400   .     A
C12    H82     1.083   .     S
C12    C19     1.397   .     A
C13    C16     1.457   .     S
C13    C335    1.335   .     S
C13    O412    1.387   .     S
C14    C15     1.435   .     S
C14    C655    1.335   1_545 S
C14    H718    1.087   1_545 S
C15    O96     1.280   .     A
C15    O102    1.276   .     A
C16    O97     1.272   .     A
C16    O103    1.267   .     A
C17    O88     1.271   .     A
C17    C20     1.453   .     S
C17    O86     1.273   .     A
C18    C19     1.475   .     S
C18    O89     1.286   .     A
C18    O87     1.281   .     A
C19    C23     1.401   .     A
C21    C38     1.420   .     A
C21    O93     1.388   .     S
C22    H44     1.115   .     S
C22    H84     1.114   .     S
C22    O90     1.411   .     S
C22    C24     1.529   .     S
C23    C34     1.419   .     A
C23    O94     1.385   .     S
C24    H45     1.112   .     S
C24    C239    1.526   1_455 S
C24    H260    1.112   1_455 S
C25    H47     1.111   .     S
C25    H48     1.110   .     S
C25    H49     1.111   .     S
C25    C131    1.526   .     S
C26    C27     1.518   .     S
C26    H50     1.115   .     S
C26    O91     1.410   .     S
C26    H693    1.111   1_545 S
C27    H55     1.111   .     S
C27    H52     1.111   .     S
C27    H53     1.111   .     S
C28    H56     1.114   .     S
C28    H57     1.112   .     S
C28    C29     1.522   .     S
C28    O92     1.416   .     S
C29    H60     1.111   .     S
C29    H58     1.109   .     S
C29    H166    1.111   .     S
C30    O93     1.420   .     S
C30    H61     1.111   .     S
C30    H62     1.114   .     S
C30    C31     1.533   .     S
C31    H64     1.111   .     S
C31    C353    1.527   .     S
C31    H1026   1.111   .     S
C32    H68     1.111   .     S
C32    H66     1.111   .     S
C32    C673    1.527   1_545 S
C32    H1030   1.111   .     S
C33    O94     1.412   .     S
C33    H69     1.114   .     S
C33    H70     1.115   .     S
C33    C35     1.520   .     S
C34    C39     1.424   .     A
C34    C38     1.422   .     A
C35    H73     1.111   .     S
C35    H71     1.110   .     S
C35    H72     1.110   .     S
C36    H75     1.115   .     S
C36    H74     1.115   .     S
C36    C37     1.517   .     S
C36    O95     1.412   .     S
C37    H79     1.111   .     S
C37    H77     1.111   .     S
C37    H78     1.109   .     S
C38    C1005   1.410   .     S
C39    C1003   1.423   .     S
C40    C41     1.424   .     A
C40    C1002   1.423   1_554 S
C41    C42     1.402   .     A
C41    O95     1.380   .     S
C42    O90     1.383   .     S
C42    C1001   1.410   1_554 S
H46    C131    1.112   .     S
H51    C347    1.111   .     S
H54    C224    1.088   1_455 S
H59    C243    1.111   1_455 S
H63    C994    1.111   1_554 S
H65    C118    1.086   .     S
H67    C995    1.111   1_554 S
H76    C335    1.087   .     S
O85    Zn105   1.941   .     S
O85    Zn104   1.964   .     S
O85    Zn106   1.931   .     S
O85    Zn107   1.928   .     S
O86    Zn105   1.933   .     S
O87    Zn107   1.945   .     S
O88    Zn106   1.938   .     S
O89    Zn104   1.927   .     S
O91    C655    1.387   1_545 S
O96    Zn104   1.925   .     S
O97    Zn107   1.929   .     S
O98    Zn105   1.923   .     S
O99    Zn106   1.935   .     S
O100   Zn107   1.929   .     S
O101   Zn104   1.919   .     S
O102   Zn105   1.936   .     S
O103   Zn106   1.928   .     S
C108   C118    1.436   .     S
C108   O207    1.269   .     A
C108   O205    1.268   .     A
C109   C146    1.413   .     A
C109   H190    1.079   .     S
C109   C110    1.383   .     A
C110   H188    1.084   .     S
C110   C1075   1.389   .     S
C111   O206    1.283   .     A
C111   O208    1.279   .     A
C111   C117    1.454   .     S
C112   C113    1.419   .     A
C112   C114    1.402   .     A
C112   C1073   1.389   1_554 S
C113   C116    1.406   .     A
C113   C147    1.433   .     A
C114   C115    1.406   .     A
C114   H150    1.083   .     S
C115   C127    1.402   .     A
C115   O199    1.393   .     S
C116   H187    1.077   .     S
C116   C127    1.394   .     A
C117   C225    1.335   .     S
C117   H268    1.088   .     S
C119   C128    1.400   .     A
C119   H189    1.083   .     S
C119   C126    1.397   .     A
C120   C123    1.457   .     S
C120   C442    1.335   .     S
C120   O519    1.387   .     S
C121   C122    1.435   .     S
C121   C762    1.335   1_545 S
C121   H825    1.087   1_545 S
C122   O203    1.280   .     A
C122   O209    1.276   .     A
C123   O204    1.272   .     A
C123   O210    1.267   .     A
C124   O195    1.271   .     A
C124   C127    1.453   .     S
C124   O193    1.273   .     A
C125   C126    1.475   .     S
C125   O196    1.286   .     A
C125   O194    1.281   .     A
C126   C130    1.401   .     A
C128   C145    1.420   .     A
C128   O200    1.388   .     S
C129   H151    1.115   .     S
C129   H191    1.114   .     S
C129   O197    1.411   .     S
C129   C131    1.529   .     S
C130   C141    1.419   .     A
C130   O201    1.385   .     S
C131   H152    1.112   .     S
C132   H154    1.111   .     S
C132   H155    1.110   .     S
C132   H156    1.111   .     S
C132   C238    1.526   .     S
C133   C134    1.518   .     S
C133   H157    1.115   .     S
C133   O198    1.410   .     S
C133   H800    1.111   1_545 S
C134   H162    1.111   .     S
C134   H159    1.111   .     S
C134   H160    1.111   .     S
C135   H163    1.114   .     S
C135   H164    1.112   .     S
C135   C136    1.522   .     S
C135   O199    1.416   .     S
C136   H167    1.111   .     S
C136   H165    1.109   .     S
C136   H273    1.111   .     S
C137   O200    1.420   .     S
C137   H168    1.111   .     S
C137   H169    1.114   .     S
C137   C138    1.533   .     S
C138   H171    1.111   .     S
C138   C460    1.527   .     S
C138   H1133   1.111   .     S
C139   H175    1.111   .     S
C139   H173    1.111   .     S
C139   C780    1.527   1_545 S
C139   H1137   1.111   .     S
C140   O201    1.412   .     S
C140   H176    1.114   .     S
C140   H177    1.115   .     S
C140   C142    1.520   .     S
C141   C146    1.424   .     A
C141   C145    1.422   .     A
C142   H180    1.111   .     S
C142   H178    1.110   .     S
C142   H179    1.110   .     S
C143   H182    1.115   .     S
C143   H181    1.115   .     S
C143   C144    1.517   .     S
C143   O202    1.412   .     S
C144   H186    1.111   .     S
C144   H184    1.111   .     S
C144   H185    1.109   .     S
C145   C1112   1.410   .     S
C146   C1110   1.423   .     S
C147   C148    1.424   .     A
C147   C1109   1.423   1_554 S
C148   C149    1.402   .     A
C148   O202    1.380   .     S
C149   O197    1.383   .     S
C149   C1108   1.410   1_554 S
H153   C238    1.112   .     S
H158   C454    1.111   .     S
H170   C1101   1.111   1_554 S
H172   C225    1.086   .     S
H174   C1102   1.111   1_554 S
H183   C442    1.087   .     S
O192   Zn212   1.941   .     S
O192   Zn211   1.964   .     S
O192   Zn213   1.931   .     S
O192   Zn214   1.928   .     S
O193   Zn212   1.933   .     S
O194   Zn214   1.945   .     S
O195   Zn213   1.938   .     S
O196   Zn211   1.927   .     S
O198   C762    1.387   1_545 S
O203   Zn211   1.925   .     S
O204   Zn214   1.929   .     S
O205   Zn212   1.923   .     S
O206   Zn213   1.935   .     S
O207   Zn214   1.929   .     S
O208   Zn211   1.919   .     S
O209   Zn212   1.936   .     S
O210   Zn213   1.928   .     S
C215   C225    1.436   .     S
C215   O314    1.269   .     A
C215   O312    1.268   .     A
C216   C253    1.413   .     A
C216   H297    1.079   .     S
C216   C217    1.383   .     A
C217   H295    1.084   .     S
C217   C1182   1.389   .     S
C218   O313    1.283   .     A
C218   O315    1.279   .     A
C218   C224    1.454   .     S
C219   C220    1.419   .     A
C219   C221    1.402   .     A
C219   C1180   1.389   1_554 S
C220   C223    1.406   .     A
C220   C254    1.433   .     A
C221   C222    1.406   .     A
C221   H257    1.083   .     S
C222   C234    1.402   .     A
C222   O306    1.393   .     S
C223   H294    1.077   .     S
C223   C234    1.394   .     A
C224   C11     1.335   1_655 S
C224   H54     1.088   1_655 S
C226   C235    1.400   .     A
C226   H296    1.083   .     S
C226   C233    1.397   .     A
C227   C230    1.457   .     S
C227   C549    1.335   .     S
C227   O626    1.387   .     S
C228   C229    1.435   .     S
C228   C869    1.335   1_545 S
C228   H932    1.087   1_545 S
C229   O310    1.280   .     A
C229   O316    1.276   .     A
C230   O311    1.272   .     A
C230   O317    1.267   .     A
C231   O302    1.271   .     A
C231   C234    1.453   .     S
C231   O300    1.273   .     A
C232   C233    1.475   .     S
C232   O303    1.286   .     A
C232   O301    1.281   .     A
C233   C237    1.401   .     A
C235   C252    1.420   .     A
C235   O307    1.388   .     S
C236   H258    1.115   .     S
C236   H298    1.114   .     S
C236   O304    1.411   .     S
C236   C238    1.529   .     S
C237   C248    1.419   .     A
C237   O308    1.385   .     S
C238   H259    1.112   .     S
C239   H261    1.111   .     S
C239   H262    1.110   .     S
C239   H263    1.111   .     S
C239   C24     1.526   1_655 S
C240   C241    1.518   .     S
C240   H264    1.115   .     S
C240   O305    1.410   .     S
C240   H907    1.111   1_545 S
C241   H269    1.111   .     S
C241   H266    1.111   .     S
C241   H267    1.111   .     S
C242   H270    1.114   .     S
C242   H271    1.112   .     S
C242   C243    1.522   .     S
C242   O306    1.416   .     S
C243   H274    1.111   .     S
C243   H272    1.109   .     S
C243   H59     1.111   1_655 S
C244   O307    1.420   .     S
C244   H275    1.111   .     S
C244   H276    1.114   .     S
C244   C245    1.533   .     S
C245   H278    1.111   .     S
C245   C567    1.527   .     S
C245   H1240   1.111   .     S
C246   H282    1.111   .     S
C246   H280    1.111   .     S
C246   C887    1.527   1_545 S
C246   H1244   1.111   .     S
C247   O308    1.412   .     S
C247   H283    1.114   .     S
C247   H284    1.115   .     S
C247   C249    1.520   .     S
C248   C253    1.424   .     A
C248   C252    1.422   .     A
C249   H287    1.111   .     S
C249   H285    1.110   .     S
C249   H286    1.110   .     S
C250   H289    1.115   .     S
C250   H288    1.115   .     S
C250   C251    1.517   .     S
C250   O309    1.412   .     S
C251   H293    1.111   .     S
C251   H291    1.111   .     S
C251   H292    1.109   .     S
C252   C1219   1.410   .     S
C253   C1217   1.423   .     S
C254   C255    1.424   .     A
C254   C1216   1.423   1_554 S
C255   C256    1.402   .     A
C255   O309    1.380   .     S
C256   O304    1.383   .     S
C256   C1215   1.410   1_554 S
H260   C24     1.112   1_655 S
H265   C561    1.111   .     S
H277   C1208   1.111   1_554 S
H279   C11     1.086   1_655 S
H281   C1209   1.111   1_554 S
H290   C549    1.087   .     S
O299   Zn319   1.941   .     S
O299   Zn318   1.964   .     S
O299   Zn320   1.931   .     S
O299   Zn321   1.928   .     S
O300   Zn319   1.933   .     S
O301   Zn321   1.945   .     S
O302   Zn320   1.938   .     S
O303   Zn318   1.927   .     S
O305   C869    1.387   1_545 S
O310   Zn318   1.925   .     S
O311   Zn321   1.929   .     S
O312   Zn319   1.923   .     S
O313   Zn320   1.935   .     S
O314   Zn321   1.929   .     S
O315   Zn318   1.919   .     S
O316   Zn319   1.936   .     S
O317   Zn320   1.928   .     S
C322   C332    1.436   .     S
C322   O421    1.269   .     A
C322   O419    1.268   .     A
C323   C360    1.413   .     A
C323   H404    1.079   .     S
C323   C324    1.383   .     A
C324   H402    1.084   .     S
C324   C1289   1.389   .     S
C325   O420    1.283   .     A
C325   O422    1.279   .     A
C325   C331    1.454   .     S
C326   C327    1.419   .     A
C326   C328    1.402   .     A
C326   C1287   1.389   1_554 S
C327   C330    1.406   .     A
C327   C361    1.433   .     A
C328   C329    1.406   .     A
C328   H364    1.083   .     S
C329   C341    1.402   .     A
C329   O413    1.393   .     S
C330   H401    1.077   .     S
C330   C341    1.394   .     A
C331   C439    1.335   .     S
C331   H482    1.088   .     S
C332   C545    1.335   1_455 S
C332   H600    1.086   1_455 S
C333   C342    1.400   .     A
C333   H403    1.083   .     S
C333   C340    1.397   .     A
C334   C337    1.457   .     S
C334   C656    1.335   .     S
C334   O733    1.387   .     S
C335   C336    1.435   .     S
C336   O417    1.280   .     A
C336   O423    1.276   .     A
C337   O418    1.272   .     A
C337   O424    1.267   .     A
C338   O409    1.271   .     A
C338   C341    1.453   .     S
C338   O407    1.273   .     A
C339   C340    1.475   .     S
C339   O410    1.286   .     A
C339   O408    1.281   .     A
C340   C344    1.401   .     A
C342   C359    1.420   .     A
C342   O414    1.388   .     S
C343   H365    1.115   .     S
C343   H405    1.114   .     S
C343   O411    1.411   .     S
C343   C345    1.529   .     S
C344   C355    1.419   .     A
C344   O415    1.385   .     S
C345   H366    1.112   .     S
C345   C560    1.526   1_455 S
C345   H581    1.112   1_455 S
C346   H368    1.111   .     S
C346   H369    1.110   .     S
C346   H370    1.111   .     S
C346   C452    1.526   .     S
C347   C348    1.518   .     S
C347   H371    1.115   .     S
C347   O412    1.410   .     S
C348   H376    1.111   .     S
C348   H373    1.111   .     S
C348   H374    1.111   .     S
C349   H377    1.114   .     S
C349   H378    1.112   .     S
C349   C350    1.522   .     S
C349   O413    1.416   .     S
C350   H381    1.111   .     S
C350   H379    1.109   .     S
C350   H487    1.111   .     S
C351   O414    1.420   .     S
C351   H382    1.111   .     S
C351   H383    1.114   .     S
C351   C352    1.533   .     S
C352   H385    1.111   .     S
C352   C674    1.527   .     S
C352   H1347   1.111   .     S
C353   H389    1.111   .     S
C353   H387    1.111   .     S
C353   H1351   1.111   .     S
C354   O415    1.412   .     S
C354   H390    1.114   .     S
C354   H391    1.115   .     S
C354   C356    1.520   .     S
C355   C360    1.424   .     A
C355   C359    1.422   .     A
C356   H394    1.111   .     S
C356   H392    1.110   .     S
C356   H393    1.110   .     S
C357   H396    1.115   .     S
C357   H395    1.115   .     S
C357   C358    1.517   .     S
C357   O416    1.412   .     S
C358   H400    1.111   .     S
C358   H398    1.111   .     S
C358   H399    1.109   .     S
C359   C1326   1.410   .     S
C360   C1324   1.423   .     S
C361   C362    1.424   .     A
C361   C1323   1.423   1_554 S
C362   C363    1.402   .     A
C362   O416    1.380   .     S
C363   O411    1.383   .     S
C363   C1322   1.410   1_554 S
H367   C452    1.112   .     S
H372   C668    1.111   .     S
H375   C545    1.088   1_455 S
H380   C564    1.111   1_455 S
H384   C1315   1.111   1_554 S
H386   C439    1.086   .     S
H388   C1316   1.111   1_554 S
H397   C656    1.087   .     S
O406   Zn426   1.941   .     S
O406   Zn425   1.964   .     S
O406   Zn427   1.931   .     S
O406   Zn428   1.928   .     S
O407   Zn426   1.933   .     S
O408   Zn428   1.945   .     S
O409   Zn427   1.938   .     S
O410   Zn425   1.927   .     S
O417   Zn425   1.925   .     S
O418   Zn428   1.929   .     S
O419   Zn426   1.923   .     S
O420   Zn427   1.935   .     S
O421   Zn428   1.929   .     S
O422   Zn425   1.919   .     S
O423   Zn426   1.936   .     S
O424   Zn427   1.928   .     S
C429   C439    1.436   .     S
C429   O528    1.269   .     A
C429   O526    1.268   .     A
C430   C467    1.413   .     A
C430   H511    1.079   .     S
C430   C431    1.383   .     A
C431   H509    1.084   .     S
C431   C1396   1.389   .     S
C432   O527    1.283   .     A
C432   O529    1.279   .     A
C432   C438    1.454   .     S
C433   C434    1.419   .     A
C433   C435    1.402   .     A
C433   C1394   1.389   1_554 S
C434   C437    1.406   .     A
C434   C468    1.433   .     A
C435   C436    1.406   .     A
C435   H471    1.083   .     S
C436   C448    1.402   .     A
C436   O520    1.393   .     S
C437   H508    1.077   .     S
C437   C448    1.394   .     A
C438   C546    1.335   .     S
C438   H589    1.088   .     S
C440   C449    1.400   .     A
C440   H510    1.083   .     S
C440   C447    1.397   .     A
C441   C444    1.457   .     S
C441   C763    1.335   .     S
C441   O840    1.387   .     S
C442   C443    1.435   .     S
C443   O524    1.280   .     A
C443   O530    1.276   .     A
C444   O525    1.272   .     A
C444   O531    1.267   .     A
C445   O516    1.271   .     A
C445   C448    1.453   .     S
C445   O514    1.273   .     A
C446   C447    1.475   .     S
C446   O517    1.286   .     A
C446   O515    1.281   .     A
C447   C451    1.401   .     A
C449   C466    1.420   .     A
C449   O521    1.388   .     S
C450   H472    1.115   .     S
C450   H512    1.114   .     S
C450   O518    1.411   .     S
C450   C452    1.529   .     S
C451   C462    1.419   .     A
C451   O522    1.385   .     S
C452   H473    1.112   .     S
C453   H475    1.111   .     S
C453   H476    1.110   .     S
C453   H477    1.111   .     S
C453   C559    1.526   .     S
C454   C455    1.518   .     S
C454   H478    1.115   .     S
C454   O519    1.410   .     S
C455   H483    1.111   .     S
C455   H480    1.111   .     S
C455   H481    1.111   .     S
C456   H484    1.114   .     S
C456   H485    1.112   .     S
C456   C457    1.522   .     S
C456   O520    1.416   .     S
C457   H488    1.111   .     S
C457   H486    1.109   .     S
C457   H594    1.111   .     S
C458   O521    1.420   .     S
C458   H489    1.111   .     S
C458   H490    1.114   .     S
C458   C459    1.533   .     S
C459   H492    1.111   .     S
C459   C781    1.527   .     S
C459   H1454   1.111   .     S
C460   H496    1.111   .     S
C460   H494    1.111   .     S
C460   H1458   1.111   .     S
C461   O522    1.412   .     S
C461   H497    1.114   .     S
C461   H498    1.115   .     S
C461   C463    1.520   .     S
C462   C467    1.424   .     A
C462   C466    1.422   .     A
C463   H501    1.111   .     S
C463   H499    1.110   .     S
C463   H500    1.110   .     S
C464   H503    1.115   .     S
C464   H502    1.115   .     S
C464   C465    1.517   .     S
C464   O523    1.412   .     S
C465   H507    1.111   .     S
C465   H505    1.111   .     S
C465   H506    1.109   .     S
C466   C1433   1.410   .     S
C467   C1431   1.423   .     S
C468   C469    1.424   .     A
C468   C1430   1.423   1_554 S
C469   C470    1.402   .     A
C469   O523    1.380   .     S
C470   O518    1.383   .     S
C470   C1429   1.410   1_554 S
H474   C559    1.112   .     S
H479   C775    1.111   .     S
H491   C1422   1.111   1_554 S
H493   C546    1.086   .     S
H495   C1423   1.111   1_554 S
H504   C763    1.087   .     S
O513   Zn533   1.941   .     S
O513   Zn532   1.964   .     S
O513   Zn534   1.931   .     S
O513   Zn535   1.928   .     S
O514   Zn533   1.933   .     S
O515   Zn535   1.945   .     S
O516   Zn534   1.938   .     S
O517   Zn532   1.927   .     S
O524   Zn532   1.925   .     S
O525   Zn535   1.929   .     S
O526   Zn533   1.923   .     S
O527   Zn534   1.935   .     S
O528   Zn535   1.929   .     S
O529   Zn532   1.919   .     S
O530   Zn533   1.936   .     S
O531   Zn534   1.928   .     S
C536   C546    1.436   .     S
C536   O635    1.269   .     A
C536   O633    1.268   .     A
C537   C574    1.413   .     A
C537   H618    1.079   .     S
C537   C538    1.383   .     A
C538   H616    1.084   .     S
C538   C1503   1.389   .     S
C539   O634    1.283   .     A
C539   O636    1.279   .     A
C539   C545    1.454   .     S
C540   C541    1.419   .     A
C540   C542    1.402   .     A
C540   C1501   1.389   1_554 S
C541   C544    1.406   .     A
C541   C575    1.433   .     A
C542   C543    1.406   .     A
C542   H578    1.083   .     S
C543   C555    1.402   .     A
C543   O627    1.393   .     S
C544   H615    1.077   .     S
C544   C555    1.394   .     A
C545   C332    1.335   1_655 S
C545   H375    1.088   1_655 S
C547   C556    1.400   .     A
C547   H617    1.083   .     S
C547   C554    1.397   .     A
C548   C551    1.457   .     S
C548   C870    1.335   .     S
C548   O947    1.387   .     S
C549   C550    1.435   .     S
C550   O631    1.280   .     A
C550   O637    1.276   .     A
C551   O632    1.272   .     A
C551   O638    1.267   .     A
C552   O623    1.271   .     A
C552   C555    1.453   .     S
C552   O621    1.273   .     A
C553   C554    1.475   .     S
C553   O624    1.286   .     A
C553   O622    1.281   .     A
C554   C558    1.401   .     A
C556   C573    1.420   .     A
C556   O628    1.388   .     S
C557   H579    1.115   .     S
C557   H619    1.114   .     S
C557   O625    1.411   .     S
C557   C559    1.529   .     S
C558   C569    1.419   .     A
C558   O629    1.385   .     S
C559   H580    1.112   .     S
C560   H582    1.111   .     S
C560   H583    1.110   .     S
C560   H584    1.111   .     S
C560   C345    1.526   1_655 S
C561   C562    1.518   .     S
C561   H585    1.115   .     S
C561   O626    1.410   .     S
C562   H590    1.111   .     S
C562   H587    1.111   .     S
C562   H588    1.111   .     S
C563   H591    1.114   .     S
C563   H592    1.112   .     S
C563   C564    1.522   .     S
C563   O627    1.416   .     S
C564   H595    1.111   .     S
C564   H593    1.109   .     S
C564   H380    1.111   1_655 S
C565   O628    1.420   .     S
C565   H596    1.111   .     S
C565   H597    1.114   .     S
C565   C566    1.533   .     S
C566   H599    1.111   .     S
C566   C888    1.527   .     S
C566   H1561   1.111   .     S
C567   H603    1.111   .     S
C567   H601    1.111   .     S
C567   H1565   1.111   .     S
C568   O629    1.412   .     S
C568   H604    1.114   .     S
C568   H605    1.115   .     S
C568   C570    1.520   .     S
C569   C574    1.424   .     A
C569   C573    1.422   .     A
C570   H608    1.111   .     S
C570   H606    1.110   .     S
C570   H607    1.110   .     S
C571   H610    1.115   .     S
C571   H609    1.115   .     S
C571   C572    1.517   .     S
C571   O630    1.412   .     S
C572   H614    1.111   .     S
C572   H612    1.111   .     S
C572   H613    1.109   .     S
C573   C1540   1.410   .     S
C574   C1538   1.423   .     S
C575   C576    1.424   .     A
C575   C1537   1.423   1_554 S
C576   C577    1.402   .     A
C576   O630    1.380   .     S
C577   O625    1.383   .     S
C577   C1536   1.410   1_554 S
H581   C345    1.112   1_655 S
H586   C882    1.111   .     S
H598   C1529   1.111   1_554 S
H600   C332    1.086   1_655 S
H602   C1530   1.111   1_554 S
H611   C870    1.087   .     S
O620   Zn640   1.941   .     S
O620   Zn639   1.964   .     S
O620   Zn641   1.931   .     S
O620   Zn642   1.928   .     S
O621   Zn640   1.933   .     S
O622   Zn642   1.945   .     S
O623   Zn641   1.938   .     S
O624   Zn639   1.927   .     S
O631   Zn639   1.925   .     S
O632   Zn642   1.929   .     S
O633   Zn640   1.923   .     S
O634   Zn641   1.935   .     S
O635   Zn642   1.929   .     S
O636   Zn639   1.919   .     S
O637   Zn640   1.936   .     S
O638   Zn641   1.928   .     S
C643   C653    1.436   .     S
C643   O742    1.269   .     A
C643   O740    1.268   .     A
C644   C681    1.413   .     A
C644   H725    1.079   .     S
C644   C645    1.383   .     A
C645   H723    1.084   .     S
C645   C1610   1.389   .     S
C646   O741    1.283   .     A
C646   O743    1.279   .     A
C646   C652    1.454   .     S
C647   C648    1.419   .     A
C647   C649    1.402   .     A
C647   C1608   1.389   1_554 S
C648   C651    1.406   .     A
C648   C682    1.433   .     A
C649   C650    1.406   .     A
C649   H685    1.083   .     S
C650   C662    1.402   .     A
C650   O734    1.393   .     S
C651   H722    1.077   .     S
C651   C662    1.394   .     A
C652   C760    1.335   .     S
C652   H803    1.088   .     S
C653   C866    1.335   1_455 S
C653   H921    1.086   1_455 S
C654   C663    1.400   .     A
C654   H724    1.083   .     S
C654   C661    1.397   .     A
C655   C658    1.457   .     S
C655   C14     1.335   1_565 S
C655   O91     1.387   1_565 S
C656   C657    1.435   .     S
C657   O738    1.280   .     A
C657   O744    1.276   .     A
C658   O739    1.272   .     A
C658   O745    1.267   .     A
C659   O730    1.271   .     A
C659   C662    1.453   .     S
C659   O728    1.273   .     A
C660   C661    1.475   .     S
C660   O731    1.286   .     A
C660   O729    1.281   .     A
C661   C665    1.401   .     A
C663   C680    1.420   .     A
C663   O735    1.388   .     S
C664   H686    1.115   .     S
C664   H726    1.114   .     S
C664   O732    1.411   .     S
C664   C666    1.529   .     S
C665   C676    1.419   .     A
C665   O736    1.385   .     S
C666   H687    1.112   .     S
C666   C881    1.526   1_455 S
C666   H902    1.112   1_455 S
C667   H689    1.111   .     S
C667   H690    1.110   .     S
C667   H691    1.111   .     S
C667   C773    1.526   .     S
C668   C669    1.518   .     S
C668   H692    1.115   .     S
C668   O733    1.410   .     S
C669   H697    1.111   .     S
C669   H694    1.111   .     S
C669   H695    1.111   .     S
C670   H698    1.114   .     S
C670   H699    1.112   .     S
C670   C671    1.522   .     S
C670   O734    1.416   .     S
C671   H702    1.111   .     S
C671   H700    1.109   .     S
C671   H808    1.111   .     S
C672   O735    1.420   .     S
C672   H703    1.111   .     S
C672   H704    1.114   .     S
C672   C673    1.533   .     S
C673   H706    1.111   .     S
C673   C32     1.527   1_565 S
C673   H1668   1.111   .     S
C674   H710    1.111   .     S
C674   H708    1.111   .     S
C674   H1672   1.111   .     S
C675   O736    1.412   .     S
C675   H711    1.114   .     S
C675   H712    1.115   .     S
C675   C677    1.520   .     S
C676   C681    1.424   .     A
C676   C680    1.422   .     A
C677   H715    1.111   .     S
C677   H713    1.110   .     S
C677   H714    1.110   .     S
C678   H717    1.115   .     S
C678   H716    1.115   .     S
C678   C679    1.517   .     S
C678   O737    1.412   .     S
C679   H721    1.111   .     S
C679   H719    1.111   .     S
C679   H720    1.109   .     S
C680   C1647   1.410   .     S
C681   C1645   1.423   .     S
C682   C683    1.424   .     A
C682   C1644   1.423   1_554 S
C683   C684    1.402   .     A
C683   O737    1.380   .     S
C684   O732    1.383   .     S
C684   C1643   1.410   1_554 S
H688   C773    1.112   .     S
H693   C26     1.111   1_565 S
H696   C866    1.088   1_455 S
H701   C885    1.111   1_455 S
H705   C1636   1.111   1_554 S
H707   C760    1.086   .     S
H709   C1637   1.111   1_554 S
H718   C14     1.087   1_565 S
O727   Zn747   1.941   .     S
O727   Zn746   1.964   .     S
O727   Zn748   1.931   .     S
O727   Zn749   1.928   .     S
O728   Zn747   1.933   .     S
O729   Zn749   1.945   .     S
O730   Zn748   1.938   .     S
O731   Zn746   1.927   .     S
O738   Zn746   1.925   .     S
O739   Zn749   1.929   .     S
O740   Zn747   1.923   .     S
O741   Zn748   1.935   .     S
O742   Zn749   1.929   .     S
O743   Zn746   1.919   .     S
O744   Zn747   1.936   .     S
O745   Zn748   1.928   .     S
C750   C760    1.436   .     S
C750   O849    1.269   .     A
C750   O847    1.268   .     A
C751   C788    1.413   .     A
C751   H832    1.079   .     S
C751   C752    1.383   .     A
C752   H830    1.084   .     S
C752   C1717   1.389   .     S
C753   O848    1.283   .     A
C753   O850    1.279   .     A
C753   C759    1.454   .     S
C754   C755    1.419   .     A
C754   C756    1.402   .     A
C754   C1715   1.389   1_554 S
C755   C758    1.406   .     A
C755   C789    1.433   .     A
C756   C757    1.406   .     A
C756   H792    1.083   .     S
C757   C769    1.402   .     A
C757   O841    1.393   .     S
C758   H829    1.077   .     S
C758   C769    1.394   .     A
C759   C867    1.335   .     S
C759   H910    1.088   .     S
C761   C770    1.400   .     A
C761   H831    1.083   .     S
C761   C768    1.397   .     A
C762   C765    1.457   .     S
C762   C121    1.335   1_565 S
C762   O198    1.387   1_565 S
C763   C764    1.435   .     S
C764   O845    1.280   .     A
C764   O851    1.276   .     A
C765   O846    1.272   .     A
C765   O852    1.267   .     A
C766   O837    1.271   .     A
C766   C769    1.453   .     S
C766   O835    1.273   .     A
C767   C768    1.475   .     S
C767   O838    1.286   .     A
C767   O836    1.281   .     A
C768   C772    1.401   .     A
C770   C787    1.420   .     A
C770   O842    1.388   .     S
C771   H793    1.115   .     S
C771   H833    1.114   .     S
C771   O839    1.411   .     S
C771   C773    1.529   .     S
C772   C783    1.419   .     A
C772   O843    1.385   .     S
C773   H794    1.112   .     S
C774   H796    1.111   .     S
C774   H797    1.110   .     S
C774   H798    1.111   .     S
C774   C880    1.526   .     S
C775   C776    1.518   .     S
C775   H799    1.115   .     S
C775   O840    1.410   .     S
C776   H804    1.111   .     S
C776   H801    1.111   .     S
C776   H802    1.111   .     S
C777   H805    1.114   .     S
C777   H806    1.112   .     S
C777   C778    1.522   .     S
C777   O841    1.416   .     S
C778   H809    1.111   .     S
C778   H807    1.109   .     S
C778   H915    1.111   .     S
C779   O842    1.420   .     S
C779   H810    1.111   .     S
C779   H811    1.114   .     S
C779   C780    1.533   .     S
C780   H813    1.111   .     S
C780   C139    1.527   1_565 S
C780   H1775   1.111   .     S
C781   H817    1.111   .     S
C781   H815    1.111   .     S
C781   H1779   1.111   .     S
C782   O843    1.412   .     S
C782   H818    1.114   .     S
C782   H819    1.115   .     S
C782   C784    1.520   .     S
C783   C788    1.424   .     A
C783   C787    1.422   .     A
C784   H822    1.111   .     S
C784   H820    1.110   .     S
C784   H821    1.110   .     S
C785   H824    1.115   .     S
C785   H823    1.115   .     S
C785   C786    1.517   .     S
C785   O844    1.412   .     S
C786   H828    1.111   .     S
C786   H826    1.111   .     S
C786   H827    1.109   .     S
C787   C1754   1.410   .     S
C788   C1752   1.423   .     S
C789   C790    1.424   .     A
C789   C1751   1.423   1_554 S
C790   C791    1.402   .     A
C790   O844    1.380   .     S
C791   O839    1.383   .     S
C791   C1750   1.410   1_554 S
H795   C880    1.112   .     S
H800   C133    1.111   1_565 S
H812   C1743   1.111   1_554 S
H814   C867    1.086   .     S
H816   C1744   1.111   1_554 S
H825   C121    1.087   1_565 S
O834   Zn854   1.941   .     S
O834   Zn853   1.964   .     S
O834   Zn855   1.931   .     S
O834   Zn856   1.928   .     S
O835   Zn854   1.933   .     S
O836   Zn856   1.945   .     S
O837   Zn855   1.938   .     S
O838   Zn853   1.927   .     S
O845   Zn853   1.925   .     S
O846   Zn856   1.929   .     S
O847   Zn854   1.923   .     S
O848   Zn855   1.935   .     S
O849   Zn856   1.929   .     S
O850   Zn853   1.919   .     S
O851   Zn854   1.936   .     S
O852   Zn855   1.928   .     S
C857   C867    1.436   .     S
C857   O956    1.269   .     A
C857   O954    1.268   .     A
C858   C895    1.413   .     A
C858   H939    1.079   .     S
C858   C859    1.383   .     A
C859   H937    1.084   .     S
C859   C1824   1.389   .     S
C860   O955    1.283   .     A
C860   O957    1.279   .     A
C860   C866    1.454   .     S
C861   C862    1.419   .     A
C861   C863    1.402   .     A
C861   C1822   1.389   1_554 S
C862   C865    1.406   .     A
C862   C896    1.433   .     A
C863   C864    1.406   .     A
C863   H899    1.083   .     S
C864   C876    1.402   .     A
C864   O948    1.393   .     S
C865   H936    1.077   .     S
C865   C876    1.394   .     A
C866   C653    1.335   1_655 S
C866   H696    1.088   1_655 S
C868   C877    1.400   .     A
C868   H938    1.083   .     S
C868   C875    1.397   .     A
C869   C872    1.457   .     S
C869   C228    1.335   1_565 S
C869   O305    1.387   1_565 S
C870   C871    1.435   .     S
C871   O952    1.280   .     A
C871   O958    1.276   .     A
C872   O953    1.272   .     A
C872   O959    1.267   .     A
C873   O944    1.271   .     A
C873   C876    1.453   .     S
C873   O942    1.273   .     A
C874   C875    1.475   .     S
C874   O945    1.286   .     A
C874   O943    1.281   .     A
C875   C879    1.401   .     A
C877   C894    1.420   .     A
C877   O949    1.388   .     S
C878   H900    1.115   .     S
C878   H940    1.114   .     S
C878   O946    1.411   .     S
C878   C880    1.529   .     S
C879   C890    1.419   .     A
C879   O950    1.385   .     S
C880   H901    1.112   .     S
C881   H903    1.111   .     S
C881   H904    1.110   .     S
C881   H905    1.111   .     S
C881   C666    1.526   1_655 S
C882   C883    1.518   .     S
C882   H906    1.115   .     S
C882   O947    1.410   .     S
C883   H911    1.111   .     S
C883   H908    1.111   .     S
C883   H909    1.111   .     S
C884   H912    1.114   .     S
C884   H913    1.112   .     S
C884   C885    1.522   .     S
C884   O948    1.416   .     S
C885   H916    1.111   .     S
C885   H914    1.109   .     S
C885   H701    1.111   1_655 S
C886   O949    1.420   .     S
C886   H917    1.111   .     S
C886   H918    1.114   .     S
C886   C887    1.533   .     S
C887   H920    1.111   .     S
C887   C246    1.527   1_565 S
C887   H1882   1.111   .     S
C888   H924    1.111   .     S
C888   H922    1.111   .     S
C888   H1886   1.111   .     S
C889   O950    1.412   .     S
C889   H925    1.114   .     S
C889   H926    1.115   .     S
C889   C891    1.520   .     S
C890   C895    1.424   .     A
C890   C894    1.422   .     A
C891   H929    1.111   .     S
C891   H927    1.110   .     S
C891   H928    1.110   .     S
C892   H931    1.115   .     S
C892   H930    1.115   .     S
C892   C893    1.517   .     S
C892   O951    1.412   .     S
C893   H935    1.111   .     S
C893   H933    1.111   .     S
C893   H934    1.109   .     S
C894   C1861   1.410   .     S
C895   C1859   1.423   .     S
C896   C897    1.424   .     A
C896   C1858   1.423   1_554 S
C897   C898    1.402   .     A
C897   O951    1.380   .     S
C898   O946    1.383   .     S
C898   C1857   1.410   1_554 S
H902   C666    1.112   1_655 S
H907   C240    1.111   1_565 S
H919   C1850   1.111   1_554 S
H921   C653    1.086   1_655 S
H923   C1851   1.111   1_554 S
H932   C228    1.087   1_565 S
O941   Zn961   1.941   .     S
O941   Zn960   1.964   .     S
O941   Zn962   1.931   .     S
O941   Zn963   1.928   .     S
O942   Zn961   1.933   .     S
O943   Zn963   1.945   .     S
O944   Zn962   1.938   .     S
O945   Zn960   1.927   .     S
O952   Zn960   1.925   .     S
O953   Zn963   1.929   .     S
O954   Zn961   1.923   .     S
O955   Zn962   1.935   .     S
O956   Zn963   1.929   .     S
O957   Zn960   1.919   .     S
O958   Zn961   1.936   .     S
O959   Zn962   1.928   .     S
C964   C974    1.436   .     S
C964   O1063   1.269   .     A
C964   O1061   1.268   .     A
C965   C1002   1.413   .     A
C965   H1046   1.079   .     S
C965   C966    1.383   .     A
C966   H1044   1.084   .     S
C966   C5      1.389   1_556 S
C967   O1062   1.283   .     A
C967   O1064   1.279   .     A
C967   C973    1.454   .     S
C968   C969    1.419   .     A
C968   C970    1.402   .     A
C969   C972    1.406   .     A
C969   C1003   1.433   .     A
C970   C971    1.406   .     A
C970   H1006   1.083   .     S
C971   C983    1.402   .     A
C971   O1055   1.393   .     S
C972   H1043   1.077   .     S
C972   C983    1.394   .     A
C973   C1081   1.335   .     S
C973   H1124   1.088   .     S
C974   C1187   1.335   1_455 S
C974   H1242   1.086   1_455 S
C975   C984    1.400   .     A
C975   H1045   1.083   .     S
C975   C982    1.397   .     A
C976   C979    1.457   .     S
C976   C1298   1.335   .     S
C976   O1375   1.387   .     S
C977   C978    1.435   .     S
C977   C1618   1.335   1_545 S
C977   H1681   1.087   1_545 S
C978   O1059   1.280   .     A
C978   O1065   1.276   .     A
C979   O1060   1.272   .     A
C979   O1066   1.267   .     A
C980   O1051   1.271   .     A
C980   C983    1.453   .     S
C980   O1049   1.273   .     A
C981   C982    1.475   .     S
C981   O1052   1.286   .     A
C981   O1050   1.281   .     A
C982   C986    1.401   .     A
C984   C1001   1.420   .     A
C984   O1056   1.388   .     S
C985   H1007   1.115   .     S
C985   H1047   1.114   .     S
C985   O1053   1.411   .     S
C985   C987    1.529   .     S
C986   C997    1.419   .     A
C986   O1057   1.385   .     S
C987   H1008   1.112   .     S
C987   C1202   1.526   1_455 S
C987   H1223   1.112   1_455 S
C988   H1010   1.111   .     S
C988   H1011   1.110   .     S
C988   H1012   1.111   .     S
C988   C1094   1.526   .     S
C989   C990    1.518   .     S
C989   H1013   1.115   .     S
C989   O1054   1.410   .     S
C989   H1656   1.111   1_545 S
C990   H1018   1.111   .     S
C990   H1015   1.111   .     S
C990   H1016   1.111   .     S
C991   H1019   1.114   .     S
C991   H1020   1.112   .     S
C991   C992    1.522   .     S
C991   O1055   1.416   .     S
C992   H1023   1.111   .     S
C992   H1021   1.109   .     S
C992   H1129   1.111   .     S
C993   O1056   1.420   .     S
C993   H1024   1.111   .     S
C993   H1025   1.114   .     S
C993   C994    1.533   .     S
C994   H1027   1.111   .     S
C994   C1316   1.527   .     S
C994   H63     1.111   1_556 S
C995   H1031   1.111   .     S
C995   H1029   1.111   .     S
C995   C1636   1.527   1_545 S
C995   H67     1.111   1_556 S
C996   O1057   1.412   .     S
C996   H1032   1.114   .     S
C996   H1033   1.115   .     S
C996   C998    1.520   .     S
C997   C1002   1.424   .     A
C997   C1001   1.422   .     A
C998   H1036   1.111   .     S
C998   H1034   1.110   .     S
C998   H1035   1.110   .     S
C999   H1038   1.115   .     S
C999   H1037   1.115   .     S
C999   C1000   1.517   .     S
C999   O1058   1.412   .     S
C1000  H1042   1.111   .     S
C1000  H1040   1.111   .     S
C1000  H1041   1.109   .     S
C1001  C42     1.410   1_556 S
C1002  C40     1.423   1_556 S
C1003  C1004   1.424   .     A
C1004  C1005   1.402   .     A
C1004  O1058   1.380   .     S
C1005  O1053   1.383   .     S
H1009  C1094   1.112   .     S
H1014  C1310   1.111   .     S
H1017  C1187   1.088   1_455 S
H1022  C1206   1.111   1_455 S
H1028  C1081   1.086   .     S
H1039  C1298   1.087   .     S
O1048  Zn1068  1.941   .     S
O1048  Zn1067  1.964   .     S
O1048  Zn1069  1.931   .     S
O1048  Zn1070  1.928   .     S
O1049  Zn1068  1.933   .     S
O1050  Zn1070  1.945   .     S
O1051  Zn1069  1.938   .     S
O1052  Zn1067  1.927   .     S
O1054  C1618   1.387   1_545 S
O1059  Zn1067  1.925   .     S
O1060  Zn1070  1.929   .     S
O1061  Zn1068  1.923   .     S
O1062  Zn1069  1.935   .     S
O1063  Zn1070  1.929   .     S
O1064  Zn1067  1.919   .     S
O1065  Zn1068  1.936   .     S
O1066  Zn1069  1.928   .     S
C1071  C1081   1.436   .     S
C1071  O1170   1.269   .     A
C1071  O1168   1.268   .     A
C1072  C1109   1.413   .     A
C1072  H1153   1.079   .     S
C1072  C1073   1.383   .     A
C1073  H1151   1.084   .     S
C1073  C112    1.389   1_556 S
C1074  O1169   1.283   .     A
C1074  O1171   1.279   .     A
C1074  C1080   1.454   .     S
C1075  C1076   1.419   .     A
C1075  C1077   1.402   .     A
C1076  C1079   1.406   .     A
C1076  C1110   1.433   .     A
C1077  C1078   1.406   .     A
C1077  H1113   1.083   .     S
C1078  C1090   1.402   .     A
C1078  O1162   1.393   .     S
C1079  H1150   1.077   .     S
C1079  C1090   1.394   .     A
C1080  C1188   1.335   .     S
C1080  H1231   1.088   .     S
C1082  C1091   1.400   .     A
C1082  H1152   1.083   .     S
C1082  C1089   1.397   .     A
C1083  C1086   1.457   .     S
C1083  C1405   1.335   .     S
C1083  O1482   1.387   .     S
C1084  C1085   1.435   .     S
C1084  C1725   1.335   1_545 S
C1084  H1788   1.087   1_545 S
C1085  O1166   1.280   .     A
C1085  O1172   1.276   .     A
C1086  O1167   1.272   .     A
C1086  O1173   1.267   .     A
C1087  O1158   1.271   .     A
C1087  C1090   1.453   .     S
C1087  O1156   1.273   .     A
C1088  C1089   1.475   .     S
C1088  O1159   1.286   .     A
C1088  O1157   1.281   .     A
C1089  C1093   1.401   .     A
C1091  C1108   1.420   .     A
C1091  O1163   1.388   .     S
C1092  H1114   1.115   .     S
C1092  H1154   1.114   .     S
C1092  O1160   1.411   .     S
C1092  C1094   1.529   .     S
C1093  C1104   1.419   .     A
C1093  O1164   1.385   .     S
C1094  H1115   1.112   .     S
C1095  H1117   1.111   .     S
C1095  H1118   1.110   .     S
C1095  H1119   1.111   .     S
C1095  C1201   1.526   .     S
C1096  C1097   1.518   .     S
C1096  H1120   1.115   .     S
C1096  O1161   1.410   .     S
C1096  H1763   1.111   1_545 S
C1097  H1125   1.111   .     S
C1097  H1122   1.111   .     S
C1097  H1123   1.111   .     S
C1098  H1126   1.114   .     S
C1098  H1127   1.112   .     S
C1098  C1099   1.522   .     S
C1098  O1162   1.416   .     S
C1099  H1130   1.111   .     S
C1099  H1128   1.109   .     S
C1099  H1236   1.111   .     S
C1100  O1163   1.420   .     S
C1100  H1131   1.111   .     S
C1100  H1132   1.114   .     S
C1100  C1101   1.533   .     S
C1101  H1134   1.111   .     S
C1101  C1423   1.527   .     S
C1101  H170    1.111   1_556 S
C1102  H1138   1.111   .     S
C1102  H1136   1.111   .     S
C1102  C1743   1.527   1_545 S
C1102  H174    1.111   1_556 S
C1103  O1164   1.412   .     S
C1103  H1139   1.114   .     S
C1103  H1140   1.115   .     S
C1103  C1105   1.520   .     S
C1104  C1109   1.424   .     A
C1104  C1108   1.422   .     A
C1105  H1143   1.111   .     S
C1105  H1141   1.110   .     S
C1105  H1142   1.110   .     S
C1106  H1145   1.115   .     S
C1106  H1144   1.115   .     S
C1106  C1107   1.517   .     S
C1106  O1165   1.412   .     S
C1107  H1149   1.111   .     S
C1107  H1147   1.111   .     S
C1107  H1148   1.109   .     S
C1108  C149    1.410   1_556 S
C1109  C147    1.423   1_556 S
C1110  C1111   1.424   .     A
C1111  C1112   1.402   .     A
C1111  O1165   1.380   .     S
C1112  O1160   1.383   .     S
H1116  C1201   1.112   .     S
H1121  C1417   1.111   .     S
H1135  C1188   1.086   .     S
H1146  C1405   1.087   .     S
O1155  Zn1175  1.941   .     S
O1155  Zn1174  1.964   .     S
O1155  Zn1176  1.931   .     S
O1155  Zn1177  1.928   .     S
O1156  Zn1175  1.933   .     S
O1157  Zn1177  1.945   .     S
O1158  Zn1176  1.938   .     S
O1159  Zn1174  1.927   .     S
O1161  C1725   1.387   1_545 S
O1166  Zn1174  1.925   .     S
O1167  Zn1177  1.929   .     S
O1168  Zn1175  1.923   .     S
O1169  Zn1176  1.935   .     S
O1170  Zn1177  1.929   .     S
O1171  Zn1174  1.919   .     S
O1172  Zn1175  1.936   .     S
O1173  Zn1176  1.928   .     S
C1178  C1188   1.436   .     S
C1178  O1277   1.269   .     A
C1178  O1275   1.268   .     A
C1179  C1216   1.413   .     A
C1179  H1260   1.079   .     S
C1179  C1180   1.383   .     A
C1180  H1258   1.084   .     S
C1180  C219    1.389   1_556 S
C1181  O1276   1.283   .     A
C1181  O1278   1.279   .     A
C1181  C1187   1.454   .     S
C1182  C1183   1.419   .     A
C1182  C1184   1.402   .     A
C1183  C1186   1.406   .     A
C1183  C1217   1.433   .     A
C1184  C1185   1.406   .     A
C1184  H1220   1.083   .     S
C1185  C1197   1.402   .     A
C1185  O1269   1.393   .     S
C1186  H1257   1.077   .     S
C1186  C1197   1.394   .     A
C1187  C974    1.335   1_655 S
C1187  H1017   1.088   1_655 S
C1189  C1198   1.400   .     A
C1189  H1259   1.083   .     S
C1189  C1196   1.397   .     A
C1190  C1193   1.457   .     S
C1190  C1512   1.335   .     S
C1190  O1589   1.387   .     S
C1191  C1192   1.435   .     S
C1191  C1832   1.335   1_545 S
C1191  H1895   1.087   1_545 S
C1192  O1273   1.280   .     A
C1192  O1279   1.276   .     A
C1193  O1274   1.272   .     A
C1193  O1280   1.267   .     A
C1194  O1265   1.271   .     A
C1194  C1197   1.453   .     S
C1194  O1263   1.273   .     A
C1195  C1196   1.475   .     S
C1195  O1266   1.286   .     A
C1195  O1264   1.281   .     A
C1196  C1200   1.401   .     A
C1198  C1215   1.420   .     A
C1198  O1270   1.388   .     S
C1199  H1221   1.115   .     S
C1199  H1261   1.114   .     S
C1199  O1267   1.411   .     S
C1199  C1201   1.529   .     S
C1200  C1211   1.419   .     A
C1200  O1271   1.385   .     S
C1201  H1222   1.112   .     S
C1202  H1224   1.111   .     S
C1202  H1225   1.110   .     S
C1202  H1226   1.111   .     S
C1202  C987    1.526   1_655 S
C1203  C1204   1.518   .     S
C1203  H1227   1.115   .     S
C1203  O1268   1.410   .     S
C1203  H1870   1.111   1_545 S
C1204  H1232   1.111   .     S
C1204  H1229   1.111   .     S
C1204  H1230   1.111   .     S
C1205  H1233   1.114   .     S
C1205  H1234   1.112   .     S
C1205  C1206   1.522   .     S
C1205  O1269   1.416   .     S
C1206  H1237   1.111   .     S
C1206  H1235   1.109   .     S
C1206  H1022   1.111   1_655 S
C1207  O1270   1.420   .     S
C1207  H1238   1.111   .     S
C1207  H1239   1.114   .     S
C1207  C1208   1.533   .     S
C1208  H1241   1.111   .     S
C1208  C1530   1.527   .     S
C1208  H277    1.111   1_556 S
C1209  H1245   1.111   .     S
C1209  H1243   1.111   .     S
C1209  C1850   1.527   1_545 S
C1209  H281    1.111   1_556 S
C1210  O1271   1.412   .     S
C1210  H1246   1.114   .     S
C1210  H1247   1.115   .     S
C1210  C1212   1.520   .     S
C1211  C1216   1.424   .     A
C1211  C1215   1.422   .     A
C1212  H1250   1.111   .     S
C1212  H1248   1.110   .     S
C1212  H1249   1.110   .     S
C1213  H1252   1.115   .     S
C1213  H1251   1.115   .     S
C1213  C1214   1.517   .     S
C1213  O1272   1.412   .     S
C1214  H1256   1.111   .     S
C1214  H1254   1.111   .     S
C1214  H1255   1.109   .     S
C1215  C256    1.410   1_556 S
C1216  C254    1.423   1_556 S
C1217  C1218   1.424   .     A
C1218  C1219   1.402   .     A
C1218  O1272   1.380   .     S
C1219  O1267   1.383   .     S
H1223  C987    1.112   1_655 S
H1228  C1524   1.111   .     S
H1242  C974    1.086   1_655 S
H1253  C1512   1.087   .     S
O1262  Zn1282  1.941   .     S
O1262  Zn1281  1.964   .     S
O1262  Zn1283  1.931   .     S
O1262  Zn1284  1.928   .     S
O1263  Zn1282  1.933   .     S
O1264  Zn1284  1.945   .     S
O1265  Zn1283  1.938   .     S
O1266  Zn1281  1.927   .     S
O1268  C1832   1.387   1_545 S
O1273  Zn1281  1.925   .     S
O1274  Zn1284  1.929   .     S
O1275  Zn1282  1.923   .     S
O1276  Zn1283  1.935   .     S
O1277  Zn1284  1.929   .     S
O1278  Zn1281  1.919   .     S
O1279  Zn1282  1.936   .     S
O1280  Zn1283  1.928   .     S
C1285  C1295   1.436   .     S
C1285  O1384   1.269   .     A
C1285  O1382   1.268   .     A
C1286  C1323   1.413   .     A
C1286  H1367   1.079   .     S
C1286  C1287   1.383   .     A
C1287  H1365   1.084   .     S
C1287  C326    1.389   1_556 S
C1288  O1383   1.283   .     A
C1288  O1385   1.279   .     A
C1288  C1294   1.454   .     S
C1289  C1290   1.419   .     A
C1289  C1291   1.402   .     A
C1290  C1293   1.406   .     A
C1290  C1324   1.433   .     A
C1291  C1292   1.406   .     A
C1291  H1327   1.083   .     S
C1292  C1304   1.402   .     A
C1292  O1376   1.393   .     S
C1293  H1364   1.077   .     S
C1293  C1304   1.394   .     A
C1294  C1402   1.335   .     S
C1294  H1445   1.088   .     S
C1295  C1508   1.335   1_455 S
C1295  H1563   1.086   1_455 S
C1296  C1305   1.400   .     A
C1296  H1366   1.083   .     S
C1296  C1303   1.397   .     A
C1297  C1300   1.457   .     S
C1297  C1619   1.335   .     S
C1297  O1696   1.387   .     S
C1298  C1299   1.435   .     S
C1299  O1380   1.280   .     A
C1299  O1386   1.276   .     A
C1300  O1381   1.272   .     A
C1300  O1387   1.267   .     A
C1301  O1372   1.271   .     A
C1301  C1304   1.453   .     S
C1301  O1370   1.273   .     A
C1302  C1303   1.475   .     S
C1302  O1373   1.286   .     A
C1302  O1371   1.281   .     A
C1303  C1307   1.401   .     A
C1305  C1322   1.420   .     A
C1305  O1377   1.388   .     S
C1306  H1328   1.115   .     S
C1306  H1368   1.114   .     S
C1306  O1374   1.411   .     S
C1306  C1308   1.529   .     S
C1307  C1318   1.419   .     A
C1307  O1378   1.385   .     S
C1308  H1329   1.112   .     S
C1308  C1523   1.526   1_455 S
C1308  H1544   1.112   1_455 S
C1309  H1331   1.111   .     S
C1309  H1332   1.110   .     S
C1309  H1333   1.111   .     S
C1309  C1415   1.526   .     S
C1310  C1311   1.518   .     S
C1310  H1334   1.115   .     S
C1310  O1375   1.410   .     S
C1311  H1339   1.111   .     S
C1311  H1336   1.111   .     S
C1311  H1337   1.111   .     S
C1312  H1340   1.114   .     S
C1312  H1341   1.112   .     S
C1312  C1313   1.522   .     S
C1312  O1376   1.416   .     S
C1313  H1344   1.111   .     S
C1313  H1342   1.109   .     S
C1313  H1450   1.111   .     S
C1314  O1377   1.420   .     S
C1314  H1345   1.111   .     S
C1314  H1346   1.114   .     S
C1314  C1315   1.533   .     S
C1315  H1348   1.111   .     S
C1315  C1637   1.527   .     S
C1315  H384    1.111   1_556 S
C1316  H1352   1.111   .     S
C1316  H1350   1.111   .     S
C1316  H388    1.111   1_556 S
C1317  O1378   1.412   .     S
C1317  H1353   1.114   .     S
C1317  H1354   1.115   .     S
C1317  C1319   1.520   .     S
C1318  C1323   1.424   .     A
C1318  C1322   1.422   .     A
C1319  H1357   1.111   .     S
C1319  H1355   1.110   .     S
C1319  H1356   1.110   .     S
C1320  H1359   1.115   .     S
C1320  H1358   1.115   .     S
C1320  C1321   1.517   .     S
C1320  O1379   1.412   .     S
C1321  H1363   1.111   .     S
C1321  H1361   1.111   .     S
C1321  H1362   1.109   .     S
C1322  C363    1.410   1_556 S
C1323  C361    1.423   1_556 S
C1324  C1325   1.424   .     A
C1325  C1326   1.402   .     A
C1325  O1379   1.380   .     S
C1326  O1374   1.383   .     S
H1330  C1415   1.112   .     S
H1335  C1631   1.111   .     S
H1338  C1508   1.088   1_455 S
H1343  C1527   1.111   1_455 S
H1349  C1402   1.086   .     S
H1360  C1619   1.087   .     S
O1369  Zn1389  1.941   .     S
O1369  Zn1388  1.964   .     S
O1369  Zn1390  1.931   .     S
O1369  Zn1391  1.928   .     S
O1370  Zn1389  1.933   .     S
O1371  Zn1391  1.945   .     S
O1372  Zn1390  1.938   .     S
O1373  Zn1388  1.927   .     S
O1380  Zn1388  1.925   .     S
O1381  Zn1391  1.929   .     S
O1382  Zn1389  1.923   .     S
O1383  Zn1390  1.935   .     S
O1384  Zn1391  1.929   .     S
O1385  Zn1388  1.919   .     S
O1386  Zn1389  1.936   .     S
O1387  Zn1390  1.928   .     S
C1392  C1402   1.436   .     S
C1392  O1491   1.269   .     A
C1392  O1489   1.268   .     A
C1393  C1430   1.413   .     A
C1393  H1474   1.079   .     S
C1393  C1394   1.383   .     A
C1394  H1472   1.084   .     S
C1394  C433    1.389   1_556 S
C1395  O1490   1.283   .     A
C1395  O1492   1.279   .     A
C1395  C1401   1.454   .     S
C1396  C1397   1.419   .     A
C1396  C1398   1.402   .     A
C1397  C1400   1.406   .     A
C1397  C1431   1.433   .     A
C1398  C1399   1.406   .     A
C1398  H1434   1.083   .     S
C1399  C1411   1.402   .     A
C1399  O1483   1.393   .     S
C1400  H1471   1.077   .     S
C1400  C1411   1.394   .     A
C1401  C1509   1.335   .     S
C1401  H1552   1.088   .     S
C1403  C1412   1.400   .     A
C1403  H1473   1.083   .     S
C1403  C1410   1.397   .     A
C1404  C1407   1.457   .     S
C1404  C1726   1.335   .     S
C1404  O1803   1.387   .     S
C1405  C1406   1.435   .     S
C1406  O1487   1.280   .     A
C1406  O1493   1.276   .     A
C1407  O1488   1.272   .     A
C1407  O1494   1.267   .     A
C1408  O1479   1.271   .     A
C1408  C1411   1.453   .     S
C1408  O1477   1.273   .     A
C1409  C1410   1.475   .     S
C1409  O1480   1.286   .     A
C1409  O1478   1.281   .     A
C1410  C1414   1.401   .     A
C1412  C1429   1.420   .     A
C1412  O1484   1.388   .     S
C1413  H1435   1.115   .     S
C1413  H1475   1.114   .     S
C1413  O1481   1.411   .     S
C1413  C1415   1.529   .     S
C1414  C1425   1.419   .     A
C1414  O1485   1.385   .     S
C1415  H1436   1.112   .     S
C1416  H1438   1.111   .     S
C1416  H1439   1.110   .     S
C1416  H1440   1.111   .     S
C1416  C1522   1.526   .     S
C1417  C1418   1.518   .     S
C1417  H1441   1.115   .     S
C1417  O1482   1.410   .     S
C1418  H1446   1.111   .     S
C1418  H1443   1.111   .     S
C1418  H1444   1.111   .     S
C1419  H1447   1.114   .     S
C1419  H1448   1.112   .     S
C1419  C1420   1.522   .     S
C1419  O1483   1.416   .     S
C1420  H1451   1.111   .     S
C1420  H1449   1.109   .     S
C1420  H1557   1.111   .     S
C1421  O1484   1.420   .     S
C1421  H1452   1.111   .     S
C1421  H1453   1.114   .     S
C1421  C1422   1.533   .     S
C1422  H1455   1.111   .     S
C1422  C1744   1.527   .     S
C1422  H491    1.111   1_556 S
C1423  H1459   1.111   .     S
C1423  H1457   1.111   .     S
C1423  H495    1.111   1_556 S
C1424  O1485   1.412   .     S
C1424  H1460   1.114   .     S
C1424  H1461   1.115   .     S
C1424  C1426   1.520   .     S
C1425  C1430   1.424   .     A
C1425  C1429   1.422   .     A
C1426  H1464   1.111   .     S
C1426  H1462   1.110   .     S
C1426  H1463   1.110   .     S
C1427  H1466   1.115   .     S
C1427  H1465   1.115   .     S
C1427  C1428   1.517   .     S
C1427  O1486   1.412   .     S
C1428  H1470   1.111   .     S
C1428  H1468   1.111   .     S
C1428  H1469   1.109   .     S
C1429  C470    1.410   1_556 S
C1430  C468    1.423   1_556 S
C1431  C1432   1.424   .     A
C1432  C1433   1.402   .     A
C1432  O1486   1.380   .     S
C1433  O1481   1.383   .     S
H1437  C1522   1.112   .     S
H1442  C1738   1.111   .     S
H1456  C1509   1.086   .     S
H1467  C1726   1.087   .     S
O1476  Zn1496  1.941   .     S
O1476  Zn1495  1.964   .     S
O1476  Zn1497  1.931   .     S
O1476  Zn1498  1.928   .     S
O1477  Zn1496  1.933   .     S
O1478  Zn1498  1.945   .     S
O1479  Zn1497  1.938   .     S
O1480  Zn1495  1.927   .     S
O1487  Zn1495  1.925   .     S
O1488  Zn1498  1.929   .     S
O1489  Zn1496  1.923   .     S
O1490  Zn1497  1.935   .     S
O1491  Zn1498  1.929   .     S
O1492  Zn1495  1.919   .     S
O1493  Zn1496  1.936   .     S
O1494  Zn1497  1.928   .     S
C1499  C1509   1.436   .     S
C1499  O1598   1.269   .     A
C1499  O1596   1.268   .     A
C1500  C1537   1.413   .     A
C1500  H1581   1.079   .     S
C1500  C1501   1.383   .     A
C1501  H1579   1.084   .     S
C1501  C540    1.389   1_556 S
C1502  O1597   1.283   .     A
C1502  O1599   1.279   .     A
C1502  C1508   1.454   .     S
C1503  C1504   1.419   .     A
C1503  C1505   1.402   .     A
C1504  C1507   1.406   .     A
C1504  C1538   1.433   .     A
C1505  C1506   1.406   .     A
C1505  H1541   1.083   .     S
C1506  C1518   1.402   .     A
C1506  O1590   1.393   .     S
C1507  H1578   1.077   .     S
C1507  C1518   1.394   .     A
C1508  C1295   1.335   1_655 S
C1508  H1338   1.088   1_655 S
C1510  C1519   1.400   .     A
C1510  H1580   1.083   .     S
C1510  C1517   1.397   .     A
C1511  C1514   1.457   .     S
C1511  C1833   1.335   .     S
C1511  O1910   1.387   .     S
C1512  C1513   1.435   .     S
C1513  O1594   1.280   .     A
C1513  O1600   1.276   .     A
C1514  O1595   1.272   .     A
C1514  O1601   1.267   .     A
C1515  O1586   1.271   .     A
C1515  C1518   1.453   .     S
C1515  O1584   1.273   .     A
C1516  C1517   1.475   .     S
C1516  O1587   1.286   .     A
C1516  O1585   1.281   .     A
C1517  C1521   1.401   .     A
C1519  C1536   1.420   .     A
C1519  O1591   1.388   .     S
C1520  H1542   1.115   .     S
C1520  H1582   1.114   .     S
C1520  O1588   1.411   .     S
C1520  C1522   1.529   .     S
C1521  C1532   1.419   .     A
C1521  O1592   1.385   .     S
C1522  H1543   1.112   .     S
C1523  H1545   1.111   .     S
C1523  H1546   1.110   .     S
C1523  H1547   1.111   .     S
C1523  C1308   1.526   1_655 S
C1524  C1525   1.518   .     S
C1524  H1548   1.115   .     S
C1524  O1589   1.410   .     S
C1525  H1553   1.111   .     S
C1525  H1550   1.111   .     S
C1525  H1551   1.111   .     S
C1526  H1554   1.114   .     S
C1526  H1555   1.112   .     S
C1526  C1527   1.522   .     S
C1526  O1590   1.416   .     S
C1527  H1558   1.111   .     S
C1527  H1556   1.109   .     S
C1527  H1343   1.111   1_655 S
C1528  O1591   1.420   .     S
C1528  H1559   1.111   .     S
C1528  H1560   1.114   .     S
C1528  C1529   1.533   .     S
C1529  H1562   1.111   .     S
C1529  C1851   1.527   .     S
C1529  H598    1.111   1_556 S
C1530  H1566   1.111   .     S
C1530  H1564   1.111   .     S
C1530  H602    1.111   1_556 S
C1531  O1592   1.412   .     S
C1531  H1567   1.114   .     S
C1531  H1568   1.115   .     S
C1531  C1533   1.520   .     S
C1532  C1537   1.424   .     A
C1532  C1536   1.422   .     A
C1533  H1571   1.111   .     S
C1533  H1569   1.110   .     S
C1533  H1570   1.110   .     S
C1534  H1573   1.115   .     S
C1534  H1572   1.115   .     S
C1534  C1535   1.517   .     S
C1534  O1593   1.412   .     S
C1535  H1577   1.111   .     S
C1535  H1575   1.111   .     S
C1535  H1576   1.109   .     S
C1536  C577    1.410   1_556 S
C1537  C575    1.423   1_556 S
C1538  C1539   1.424   .     A
C1539  C1540   1.402   .     A
C1539  O1593   1.380   .     S
C1540  O1588   1.383   .     S
H1544  C1308   1.112   1_655 S
H1549  C1845   1.111   .     S
H1563  C1295   1.086   1_655 S
H1574  C1833   1.087   .     S
O1583  Zn1603  1.941   .     S
O1583  Zn1602  1.964   .     S
O1583  Zn1604  1.931   .     S
O1583  Zn1605  1.928   .     S
O1584  Zn1603  1.933   .     S
O1585  Zn1605  1.945   .     S
O1586  Zn1604  1.938   .     S
O1587  Zn1602  1.927   .     S
O1594  Zn1602  1.925   .     S
O1595  Zn1605  1.929   .     S
O1596  Zn1603  1.923   .     S
O1597  Zn1604  1.935   .     S
O1598  Zn1605  1.929   .     S
O1599  Zn1602  1.919   .     S
O1600  Zn1603  1.936   .     S
O1601  Zn1604  1.928   .     S
C1606  C1616   1.436   .     S
C1606  O1705   1.269   .     A
C1606  O1703   1.268   .     A
C1607  C1644   1.413   .     A
C1607  H1688   1.079   .     S
C1607  C1608   1.383   .     A
C1608  H1686   1.084   .     S
C1608  C647    1.389   1_556 S
C1609  O1704   1.283   .     A
C1609  O1706   1.279   .     A
C1609  C1615   1.454   .     S
C1610  C1611   1.419   .     A
C1610  C1612   1.402   .     A
C1611  C1614   1.406   .     A
C1611  C1645   1.433   .     A
C1612  C1613   1.406   .     A
C1612  H1648   1.083   .     S
C1613  C1625   1.402   .     A
C1613  O1697   1.393   .     S
C1614  H1685   1.077   .     S
C1614  C1625   1.394   .     A
C1615  C1723   1.335   .     S
C1615  H1766   1.088   .     S
C1616  C1829   1.335   1_455 S
C1616  H1884   1.086   1_455 S
C1617  C1626   1.400   .     A
C1617  H1687   1.083   .     S
C1617  C1624   1.397   .     A
C1618  C1621   1.457   .     S
C1618  C977    1.335   1_565 S
C1618  O1054   1.387   1_565 S
C1619  C1620   1.435   .     S
C1620  O1701   1.280   .     A
C1620  O1707   1.276   .     A
C1621  O1702   1.272   .     A
C1621  O1708   1.267   .     A
C1622  O1693   1.271   .     A
C1622  C1625   1.453   .     S
C1622  O1691   1.273   .     A
C1623  C1624   1.475   .     S
C1623  O1694   1.286   .     A
C1623  O1692   1.281   .     A
C1624  C1628   1.401   .     A
C1626  C1643   1.420   .     A
C1626  O1698   1.388   .     S
C1627  H1649   1.115   .     S
C1627  H1689   1.114   .     S
C1627  O1695   1.411   .     S
C1627  C1629   1.529   .     S
C1628  C1639   1.419   .     A
C1628  O1699   1.385   .     S
C1629  H1650   1.112   .     S
C1629  C1844   1.526   1_455 S
C1629  H1865   1.112   1_455 S
C1630  H1652   1.111   .     S
C1630  H1653   1.110   .     S
C1630  H1654   1.111   .     S
C1630  C1736   1.526   .     S
C1631  C1632   1.518   .     S
C1631  H1655   1.115   .     S
C1631  O1696   1.410   .     S
C1632  H1660   1.111   .     S
C1632  H1657   1.111   .     S
C1632  H1658   1.111   .     S
C1633  H1661   1.114   .     S
C1633  H1662   1.112   .     S
C1633  C1634   1.522   .     S
C1633  O1697   1.416   .     S
C1634  H1665   1.111   .     S
C1634  H1663   1.109   .     S
C1634  H1771   1.111   .     S
C1635  O1698   1.420   .     S
C1635  H1666   1.111   .     S
C1635  H1667   1.114   .     S
C1635  C1636   1.533   .     S
C1636  H1669   1.111   .     S
C1636  C995    1.527   1_565 S
C1636  H705    1.111   1_556 S
C1637  H1673   1.111   .     S
C1637  H1671   1.111   .     S
C1637  H709    1.111   1_556 S
C1638  O1699   1.412   .     S
C1638  H1674   1.114   .     S
C1638  H1675   1.115   .     S
C1638  C1640   1.520   .     S
C1639  C1644   1.424   .     A
C1639  C1643   1.422   .     A
C1640  H1678   1.111   .     S
C1640  H1676   1.110   .     S
C1640  H1677   1.110   .     S
C1641  H1680   1.115   .     S
C1641  H1679   1.115   .     S
C1641  C1642   1.517   .     S
C1641  O1700   1.412   .     S
C1642  H1684   1.111   .     S
C1642  H1682   1.111   .     S
C1642  H1683   1.109   .     S
C1643  C684    1.410   1_556 S
C1644  C682    1.423   1_556 S
C1645  C1646   1.424   .     A
C1646  C1647   1.402   .     A
C1646  O1700   1.380   .     S
C1647  O1695   1.383   .     S
H1651  C1736   1.112   .     S
H1656  C989    1.111   1_565 S
H1659  C1829   1.088   1_455 S
H1664  C1848   1.111   1_455 S
H1670  C1723   1.086   .     S
H1681  C977    1.087   1_565 S
O1690  Zn1710  1.941   .     S
O1690  Zn1709  1.964   .     S
O1690  Zn1711  1.931   .     S
O1690  Zn1712  1.928   .     S
O1691  Zn1710  1.933   .     S
O1692  Zn1712  1.945   .     S
O1693  Zn1711  1.938   .     S
O1694  Zn1709  1.927   .     S
O1701  Zn1709  1.925   .     S
O1702  Zn1712  1.929   .     S
O1703  Zn1710  1.923   .     S
O1704  Zn1711  1.935   .     S
O1705  Zn1712  1.929   .     S
O1706  Zn1709  1.919   .     S
O1707  Zn1710  1.936   .     S
O1708  Zn1711  1.928   .     S
C1713  C1723   1.436   .     S
C1713  O1812   1.269   .     A
C1713  O1810   1.268   .     A
C1714  C1751   1.413   .     A
C1714  H1795   1.079   .     S
C1714  C1715   1.383   .     A
C1715  H1793   1.084   .     S
C1715  C754    1.389   1_556 S
C1716  O1811   1.283   .     A
C1716  O1813   1.279   .     A
C1716  C1722   1.454   .     S
C1717  C1718   1.419   .     A
C1717  C1719   1.402   .     A
C1718  C1721   1.406   .     A
C1718  C1752   1.433   .     A
C1719  C1720   1.406   .     A
C1719  H1755   1.083   .     S
C1720  C1732   1.402   .     A
C1720  O1804   1.393   .     S
C1721  H1792   1.077   .     S
C1721  C1732   1.394   .     A
C1722  C1830   1.335   .     S
C1722  H1873   1.088   .     S
C1724  C1733   1.400   .     A
C1724  H1794   1.083   .     S
C1724  C1731   1.397   .     A
C1725  C1728   1.457   .     S
C1725  C1084   1.335   1_565 S
C1725  O1161   1.387   1_565 S
C1726  C1727   1.435   .     S
C1727  O1808   1.280   .     A
C1727  O1814   1.276   .     A
C1728  O1809   1.272   .     A
C1728  O1815   1.267   .     A
C1729  O1800   1.271   .     A
C1729  C1732   1.453   .     S
C1729  O1798   1.273   .     A
C1730  C1731   1.475   .     S
C1730  O1801   1.286   .     A
C1730  O1799   1.281   .     A
C1731  C1735   1.401   .     A
C1733  C1750   1.420   .     A
C1733  O1805   1.388   .     S
C1734  H1756   1.115   .     S
C1734  H1796   1.114   .     S
C1734  O1802   1.411   .     S
C1734  C1736   1.529   .     S
C1735  C1746   1.419   .     A
C1735  O1806   1.385   .     S
C1736  H1757   1.112   .     S
C1737  H1759   1.111   .     S
C1737  H1760   1.110   .     S
C1737  H1761   1.111   .     S
C1737  C1843   1.526   .     S
C1738  C1739   1.518   .     S
C1738  H1762   1.115   .     S
C1738  O1803   1.410   .     S
C1739  H1767   1.111   .     S
C1739  H1764   1.111   .     S
C1739  H1765   1.111   .     S
C1740  H1768   1.114   .     S
C1740  H1769   1.112   .     S
C1740  C1741   1.522   .     S
C1740  O1804   1.416   .     S
C1741  H1772   1.111   .     S
C1741  H1770   1.109   .     S
C1741  H1878   1.111   .     S
C1742  O1805   1.420   .     S
C1742  H1773   1.111   .     S
C1742  H1774   1.114   .     S
C1742  C1743   1.533   .     S
C1743  H1776   1.111   .     S
C1743  C1102   1.527   1_565 S
C1743  H812    1.111   1_556 S
C1744  H1780   1.111   .     S
C1744  H1778   1.111   .     S
C1744  H816    1.111   1_556 S
C1745  O1806   1.412   .     S
C1745  H1781   1.114   .     S
C1745  H1782   1.115   .     S
C1745  C1747   1.520   .     S
C1746  C1751   1.424   .     A
C1746  C1750   1.422   .     A
C1747  H1785   1.111   .     S
C1747  H1783   1.110   .     S
C1747  H1784   1.110   .     S
C1748  H1787   1.115   .     S
C1748  H1786   1.115   .     S
C1748  C1749   1.517   .     S
C1748  O1807   1.412   .     S
C1749  H1791   1.111   .     S
C1749  H1789   1.111   .     S
C1749  H1790   1.109   .     S
C1750  C791    1.410   1_556 S
C1751  C789    1.423   1_556 S
C1752  C1753   1.424   .     A
C1753  C1754   1.402   .     A
C1753  O1807   1.380   .     S
C1754  O1802   1.383   .     S
H1758  C1843   1.112   .     S
H1763  C1096   1.111   1_565 S
H1777  C1830   1.086   .     S
H1788  C1084   1.087   1_565 S
O1797  Zn1817  1.941   .     S
O1797  Zn1816  1.964   .     S
O1797  Zn1818  1.931   .     S
O1797  Zn1819  1.928   .     S
O1798  Zn1817  1.933   .     S
O1799  Zn1819  1.945   .     S
O1800  Zn1818  1.938   .     S
O1801  Zn1816  1.927   .     S
O1808  Zn1816  1.925   .     S
O1809  Zn1819  1.929   .     S
O1810  Zn1817  1.923   .     S
O1811  Zn1818  1.935   .     S
O1812  Zn1819  1.929   .     S
O1813  Zn1816  1.919   .     S
O1814  Zn1817  1.936   .     S
O1815  Zn1818  1.928   .     S
C1820  C1830   1.436   .     S
C1820  O1919   1.269   .     A
C1820  O1917   1.268   .     A
C1821  C1858   1.413   .     A
C1821  H1902   1.079   .     S
C1821  C1822   1.383   .     A
C1822  H1900   1.084   .     S
C1822  C861    1.389   1_556 S
C1823  O1918   1.283   .     A
C1823  O1920   1.279   .     A
C1823  C1829   1.454   .     S
C1824  C1825   1.419   .     A
C1824  C1826   1.402   .     A
C1825  C1828   1.406   .     A
C1825  C1859   1.433   .     A
C1826  C1827   1.406   .     A
C1826  H1862   1.083   .     S
C1827  C1839   1.402   .     A
C1827  O1911   1.393   .     S
C1828  H1899   1.077   .     S
C1828  C1839   1.394   .     A
C1829  C1616   1.335   1_655 S
C1829  H1659   1.088   1_655 S
C1831  C1840   1.400   .     A
C1831  H1901   1.083   .     S
C1831  C1838   1.397   .     A
C1832  C1835   1.457   .     S
C1832  C1191   1.335   1_565 S
C1832  O1268   1.387   1_565 S
C1833  C1834   1.435   .     S
C1834  O1915   1.280   .     A
C1834  O1921   1.276   .     A
C1835  O1916   1.272   .     A
C1835  O1922   1.267   .     A
C1836  O1907   1.271   .     A
C1836  C1839   1.453   .     S
C1836  O1905   1.273   .     A
C1837  C1838   1.475   .     S
C1837  O1908   1.286   .     A
C1837  O1906   1.281   .     A
C1838  C1842   1.401   .     A
C1840  C1857   1.420   .     A
C1840  O1912   1.388   .     S
C1841  H1863   1.115   .     S
C1841  H1903   1.114   .     S
C1841  O1909   1.411   .     S
C1841  C1843   1.529   .     S
C1842  C1853   1.419   .     A
C1842  O1913   1.385   .     S
C1843  H1864   1.112   .     S
C1844  H1866   1.111   .     S
C1844  H1867   1.110   .     S
C1844  H1868   1.111   .     S
C1844  C1629   1.526   1_655 S
C1845  C1846   1.518   .     S
C1845  H1869   1.115   .     S
C1845  O1910   1.410   .     S
C1846  H1874   1.111   .     S
C1846  H1871   1.111   .     S
C1846  H1872   1.111   .     S
C1847  H1875   1.114   .     S
C1847  H1876   1.112   .     S
C1847  C1848   1.522   .     S
C1847  O1911   1.416   .     S
C1848  H1879   1.111   .     S
C1848  H1877   1.109   .     S
C1848  H1664   1.111   1_655 S
C1849  O1912   1.420   .     S
C1849  H1880   1.111   .     S
C1849  H1881   1.114   .     S
C1849  C1850   1.533   .     S
C1850  H1883   1.111   .     S
C1850  C1209   1.527   1_565 S
C1850  H919    1.111   1_556 S
C1851  H1887   1.111   .     S
C1851  H1885   1.111   .     S
C1851  H923    1.111   1_556 S
C1852  O1913   1.412   .     S
C1852  H1888   1.114   .     S
C1852  H1889   1.115   .     S
C1852  C1854   1.520   .     S
C1853  C1858   1.424   .     A
C1853  C1857   1.422   .     A
C1854  H1892   1.111   .     S
C1854  H1890   1.110   .     S
C1854  H1891   1.110   .     S
C1855  H1894   1.115   .     S
C1855  H1893   1.115   .     S
C1855  C1856   1.517   .     S
C1855  O1914   1.412   .     S
C1856  H1898   1.111   .     S
C1856  H1896   1.111   .     S
C1856  H1897   1.109   .     S
C1857  C898    1.410   1_556 S
C1858  C896    1.423   1_556 S
C1859  C1860   1.424   .     A
C1860  C1861   1.402   .     A
C1860  O1914   1.380   .     S
C1861  O1909   1.383   .     S
H1865  C1629   1.112   1_655 S
H1870  C1203   1.111   1_565 S
H1884  C1616   1.086   1_655 S
H1895  C1191   1.087   1_565 S
O1904  Zn1924  1.941   .     S
O1904  Zn1923  1.964   .     S
O1904  Zn1925  1.931   .     S
O1904  Zn1926  1.928   .     S
O1905  Zn1924  1.933   .     S
O1906  Zn1926  1.945   .     S
O1907  Zn1925  1.938   .     S
O1908  Zn1923  1.927   .     S
O1915  Zn1923  1.925   .     S
O1916  Zn1926  1.929   .     S
O1917  Zn1924  1.923   .     S
O1918  Zn1925  1.935   .     S
O1919  Zn1926  1.929   .     S
O1920  Zn1923  1.919   .     S
O1921  Zn1924  1.936   .     S
O1922  Zn1925  1.928   .     S
