data_str_m3_o1_o10_pcu_sym.122
_audit_creation_date              2020-01-03
_audit_creation_method            'Materials Studio'
_symmetry_space_group_name_H-M    'P1'
_symmetry_Int_Tables_number       1
_symmetry_cell_setting            triclinic
loop_
_symmetry_equiv_pos_as_xyz
  x,y,z
_cell_length_a                    25.9598
_cell_length_b                    32.3653
_cell_length_c                    29.9464
_cell_angle_alpha                 91.1418
_cell_angle_beta                  97.9851
_cell_angle_gamma                 91.4183
loop_
_atom_site_label
_atom_site_type_symbol
_atom_site_fract_x
_atom_site_fract_y
_atom_site_fract_z
_atom_site_U_iso_or_equiv
_atom_site_adp_type
_atom_site_occupancy
C1     C     0.16843   0.08666   0.16670   0.00000  Uiso   1.00
C2     C     0.16812   0.24641   0.16735   0.00000  Uiso   1.00
C3     C     0.06727   0.16687   0.15492   0.00000  Uiso   1.00
C4     C     0.26608   0.16700   0.17843   0.00000  Uiso   1.00
C5     C     0.01233   0.16734   0.14864   0.00000  Uiso   1.00
C6     C     0.32105   0.16747   0.18473   0.00000  Uiso   1.00
C7     C     0.18691   0.01960   0.13129   0.00000  Uiso   1.00
C8     C     0.15399   0.31265   0.20467   0.00000  Uiso   1.00
C9     C     0.19362   0.31091   0.13510   0.00000  Uiso   1.00
C10    C     0.16312   0.02143   0.20734   0.00000  Uiso   1.00
C11    C     0.17153   0.29044   0.16903   0.00000  Uiso   1.00
C12    C     0.17274   0.04224   0.16808   0.00000  Uiso   1.00
C13    C     0.20507   0.18665   0.02928   0.00000  Uiso   1.00
C14    C     0.12850   0.14632   0.30391   0.00000  Uiso   1.00
C15    C     0.20469   0.18791   0.31496   0.00000  Uiso   1.00
C16    C     0.12772   0.14651   0.01811   0.00000  Uiso   1.00
H17    H     0.32555   0.16731   0.11426   0.00000  Uiso   1.00
H18    H     0.00784   0.16766   0.21912   0.00000  Uiso   1.00
H19    H     0.23567   0.20230   0.05176   0.00000  Uiso   1.00
H20    H     0.09845   0.12973   0.28133   0.00000  Uiso   1.00
N21    N     0.16665   0.16666   0.28573   0.00000  Uiso   1.00
N22    N     0.16668   0.16668   0.04760   0.00000  Uiso   1.00
O23    O     0.16666   0.10558   0.20487   0.00000  Uiso   1.00
O24    O     0.16667   0.22775   0.12846   0.00000  Uiso   1.00
O25    O     0.16666   0.10559   0.12843   0.00000  Uiso   1.00
O26    O     0.16667   0.22774   0.20490   0.00000  Uiso   1.00
O27    O     0.09058   0.16666   0.19595   0.00000  Uiso   1.00
O28    O     0.24275   0.16667   0.13739   0.00000  Uiso   1.00
O29    O     0.09058   0.16667   0.11950   0.00000  Uiso   1.00
O30    O     0.24275   0.16666   0.21383   0.00000  Uiso   1.00
Zn31   Zn    0.16667   0.16666   0.21771   0.00000  Uiso   1.00
Zn32   Zn    0.16667   0.16667   0.11563   0.00000  Uiso   1.00
O33    O     0.19619   0.03785   0.09182   0.00000  Uiso   1.00
C34    C     0.14914   0.03785   0.06167   0.00000  Uiso   1.00
H35    H     0.15566   0.05873   0.03390   0.00000  Uiso   1.00
H36    H     0.11694   0.05040   0.07821   0.00000  Uiso   1.00
C37    C     0.13131   0.32820   0.04169   0.00000  Uiso   1.00
H38    H     0.16353   0.31098   0.03038   0.00000  Uiso   1.00
H39    H     0.11516   0.30934   0.06718   0.00000  Uiso   1.00
C40    C     0.08953   0.33274   0.00194   0.00000  Uiso   1.00
H41    H     0.05873   0.01920   0.01181   0.00000  Uiso   1.00
H42    H     0.07275   0.30193   0.32352   0.00000  Uiso   1.00
H43    H     0.10731   0.01464   0.30825   0.00000  Uiso   1.00
O44    O     0.13530   0.29391   0.24070   0.00000  Uiso   1.00
C45    C     0.08357   0.27852   0.22818   0.00000  Uiso   1.00
H46    H     0.07498   0.25751   0.25527   0.00000  Uiso   1.00
H47    H     0.07866   0.25920   0.19671   0.00000  Uiso   1.00
C48    C     0.04348   0.31287   0.22306   0.00000  Uiso   1.00
H49    H     0.05512   0.00608   0.24617   0.00000  Uiso   1.00
H50    H     0.04099   0.32535   0.18881   0.00000  Uiso   1.00
C51    C     0.32349   0.29639   0.23148   0.00000  Uiso   1.00
H52    H     0.31447   0.26566   0.21483   0.00000  Uiso   1.00
H53    H     0.29307   0.31833   0.21852   0.00000  Uiso   1.00
H54    H     0.32319   0.29258   0.26816   0.00000  Uiso   1.00
O55    O     0.21187   0.28952   0.10018   0.00000  Uiso   1.00
C56    C     0.26525   0.28179   0.11129   0.00000  Uiso   1.00
H57    H     0.27485   0.25749   0.08751   0.00000  Uiso   1.00
H58    H     0.27428   0.26888   0.14535   0.00000  Uiso   1.00
C59    C     0.29902   0.32033   0.10577   0.00000  Uiso   1.00
H60    H     0.28136   0.00451   0.07635   0.00000  Uiso   1.00
H61    H     0.30082   0.00744   0.13619   0.00000  Uiso   1.00
C62    C     0.02044   0.30884   0.09822   0.00000  Uiso   1.00
H63    H     0.03719   0.28651   0.12352   0.00000  Uiso   1.00
H64    H     0.04561   0.00390   0.10084   0.00000  Uiso   1.00
H65    H     0.01949   0.29434   0.06419   0.00000  Uiso   1.00
O66    O     0.15973   0.04166   0.24801   0.00000  Uiso   1.00
C67    C     0.21057   0.05284   0.26947   0.00000  Uiso   1.00
H68    H     0.20727   0.07960   0.29263   0.00000  Uiso   1.00
H69    H     0.23727   0.06318   0.24545   0.00000  Uiso   1.00
C70    C     0.23487   0.01753   0.29716   0.00000  Uiso   1.00
H71    H     0.21135   0.01072   0.32396   0.00000  Uiso   1.00
H72    H     0.23575   0.32264   0.27572   0.00000  Uiso   1.00
C73    C     0.28975   0.02915   0.31895   0.00000  Uiso   1.00
H74    H     0.31436   0.03799   0.29296   0.00000  Uiso   1.00
H75    H     0.30640   0.00188   0.00350   0.00000  Uiso   1.00
H76    H     0.28931   0.05523   0.01023   0.00000  Uiso   1.00
C77    C     0.24482   0.21400   0.29774   0.00000  Uiso   1.00
H78    H     0.23919   0.22483   0.26371   0.00000  Uiso   1.00
O79    O     0.28478   0.22478   0.32212   0.00000  Uiso   1.00
C80    C     0.08439   0.12384   0.03466   0.00000  Uiso   1.00
H81    H     0.08816   0.11302   0.06855   0.00000  Uiso   1.00
O82    O     0.04370   0.11600   0.00988   0.00000  Uiso   1.00
C83    C     0.50176   0.08666   0.16670   0.00000  Uiso   1.00
C84    C     0.50145   0.24641   0.16735   0.00000  Uiso   1.00
C85    C     0.40060   0.16687   0.15492   0.00000  Uiso   1.00
C86    C     0.59941   0.16700   0.17843   0.00000  Uiso   1.00
C87    C     0.34567   0.16734   0.14864   0.00000  Uiso   1.00
C88    C     0.65438   0.16747   0.18473   0.00000  Uiso   1.00
C89    C     0.52024   0.01960   0.13129   0.00000  Uiso   1.00
C90    C     0.48732   0.31265   0.20467   0.00000  Uiso   1.00
C91    C     0.52696   0.31091   0.13510   0.00000  Uiso   1.00
C92    C     0.49645   0.02143   0.20734   0.00000  Uiso   1.00
C93    C     0.50486   0.29044   0.16903   0.00000  Uiso   1.00
C94    C     0.50607   0.04224   0.16808   0.00000  Uiso   1.00
C95    C     0.53840   0.18665   0.02928   0.00000  Uiso   1.00
C96    C     0.46183   0.14632   0.30391   0.00000  Uiso   1.00
C97    C     0.53802   0.18791   0.31496   0.00000  Uiso   1.00
C98    C     0.46106   0.14651   0.01811   0.00000  Uiso   1.00
H99    H     0.65888   0.16731   0.11426   0.00000  Uiso   1.00
H100   H     0.34117   0.16766   0.21912   0.00000  Uiso   1.00
H101   H     0.56901   0.20230   0.05176   0.00000  Uiso   1.00
H102   H     0.43179   0.12973   0.28133   0.00000  Uiso   1.00
N103   N     0.49999   0.16666   0.28573   0.00000  Uiso   1.00
N104   N     0.50001   0.16668   0.04760   0.00000  Uiso   1.00
O105   O     0.50000   0.10558   0.20487   0.00000  Uiso   1.00
O106   O     0.50000   0.22775   0.12846   0.00000  Uiso   1.00
O107   O     0.50000   0.10559   0.12843   0.00000  Uiso   1.00
O108   O     0.50000   0.22774   0.20490   0.00000  Uiso   1.00
O109   O     0.42392   0.16666   0.19595   0.00000  Uiso   1.00
O110   O     0.57608   0.16667   0.13739   0.00000  Uiso   1.00
O111   O     0.42392   0.16667   0.11950   0.00000  Uiso   1.00
O112   O     0.57608   0.16666   0.21383   0.00000  Uiso   1.00
Zn113  Zn    0.50000   0.16666   0.21771   0.00000  Uiso   1.00
Zn114  Zn    0.50000   0.16667   0.11563   0.00000  Uiso   1.00
O115   O     0.52953   0.03785   0.09182   0.00000  Uiso   1.00
C116   C     0.48248   0.03785   0.06167   0.00000  Uiso   1.00
H117   H     0.48900   0.05873   0.03390   0.00000  Uiso   1.00
H118   H     0.45028   0.05040   0.07821   0.00000  Uiso   1.00
C119   C     0.46464   0.32820   0.04169   0.00000  Uiso   1.00
H120   H     0.49687   0.31098   0.03038   0.00000  Uiso   1.00
H121   H     0.44849   0.30934   0.06718   0.00000  Uiso   1.00
C122   C     0.42286   0.33274   0.00194   0.00000  Uiso   1.00
H123   H     0.39206   0.01920   0.01181   0.00000  Uiso   1.00
H124   H     0.40609   0.30193   0.32352   0.00000  Uiso   1.00
H125   H     0.44065   0.01464   0.30825   0.00000  Uiso   1.00
O126   O     0.46863   0.29391   0.24070   0.00000  Uiso   1.00
C127   C     0.41690   0.27852   0.22818   0.00000  Uiso   1.00
H128   H     0.40831   0.25751   0.25527   0.00000  Uiso   1.00
H129   H     0.41199   0.25920   0.19671   0.00000  Uiso   1.00
C130   C     0.37681   0.31287   0.22306   0.00000  Uiso   1.00
H131   H     0.38846   0.00608   0.24617   0.00000  Uiso   1.00
H132   H     0.37432   0.32535   0.18881   0.00000  Uiso   1.00
C133   C     0.65682   0.29639   0.23148   0.00000  Uiso   1.00
H134   H     0.64781   0.26566   0.21483   0.00000  Uiso   1.00
H135   H     0.62640   0.31833   0.21852   0.00000  Uiso   1.00
H136   H     0.65652   0.29258   0.26816   0.00000  Uiso   1.00
O137   O     0.54520   0.28952   0.10018   0.00000  Uiso   1.00
C138   C     0.59859   0.28179   0.11129   0.00000  Uiso   1.00
H139   H     0.60819   0.25749   0.08751   0.00000  Uiso   1.00
H140   H     0.60761   0.26888   0.14535   0.00000  Uiso   1.00
C141   C     0.63235   0.32033   0.10577   0.00000  Uiso   1.00
H142   H     0.61470   0.00451   0.07635   0.00000  Uiso   1.00
H143   H     0.63415   0.00744   0.13619   0.00000  Uiso   1.00
C144   C     0.35378   0.30884   0.09822   0.00000  Uiso   1.00
H145   H     0.37052   0.28651   0.12352   0.00000  Uiso   1.00
H146   H     0.37895   0.00390   0.10084   0.00000  Uiso   1.00
H147   H     0.35282   0.29434   0.06419   0.00000  Uiso   1.00
O148   O     0.49306   0.04166   0.24801   0.00000  Uiso   1.00
C149   C     0.54391   0.05284   0.26947   0.00000  Uiso   1.00
H150   H     0.54060   0.07960   0.29263   0.00000  Uiso   1.00
H151   H     0.57060   0.06318   0.24545   0.00000  Uiso   1.00
C152   C     0.56821   0.01753   0.29716   0.00000  Uiso   1.00
H153   H     0.54469   0.01072   0.32396   0.00000  Uiso   1.00
H154   H     0.56908   0.32264   0.27572   0.00000  Uiso   1.00
C155   C     0.62308   0.02915   0.31895   0.00000  Uiso   1.00
H156   H     0.64769   0.03799   0.29296   0.00000  Uiso   1.00
H157   H     0.63973   0.00188   0.00350   0.00000  Uiso   1.00
H158   H     0.62264   0.05523   0.01023   0.00000  Uiso   1.00
C159   C     0.57816   0.21400   0.29774   0.00000  Uiso   1.00
H160   H     0.57253   0.22483   0.26371   0.00000  Uiso   1.00
O161   O     0.61812   0.22478   0.32212   0.00000  Uiso   1.00
C162   C     0.41773   0.12384   0.03466   0.00000  Uiso   1.00
H163   H     0.42150   0.11302   0.06855   0.00000  Uiso   1.00
O164   O     0.37704   0.11600   0.00988   0.00000  Uiso   1.00
C165   C     0.83510   0.08666   0.16670   0.00000  Uiso   1.00
C166   C     0.83479   0.24641   0.16735   0.00000  Uiso   1.00
C167   C     0.73394   0.16687   0.15492   0.00000  Uiso   1.00
C168   C     0.93275   0.16700   0.17843   0.00000  Uiso   1.00
C169   C     0.67900   0.16734   0.14864   0.00000  Uiso   1.00
C170   C     0.98771   0.16747   0.18473   0.00000  Uiso   1.00
C171   C     0.85358   0.01960   0.13129   0.00000  Uiso   1.00
C172   C     0.82066   0.31265   0.20467   0.00000  Uiso   1.00
C173   C     0.86029   0.31091   0.13510   0.00000  Uiso   1.00
C174   C     0.82979   0.02143   0.20734   0.00000  Uiso   1.00
C175   C     0.83820   0.29044   0.16903   0.00000  Uiso   1.00
C176   C     0.83941   0.04224   0.16808   0.00000  Uiso   1.00
C177   C     0.87173   0.18665   0.02928   0.00000  Uiso   1.00
C178   C     0.79516   0.14632   0.30391   0.00000  Uiso   1.00
C179   C     0.87136   0.18791   0.31496   0.00000  Uiso   1.00
C180   C     0.79439   0.14651   0.01811   0.00000  Uiso   1.00
H181   H     0.99222   0.16731   0.11426   0.00000  Uiso   1.00
H182   H     0.67450   0.16766   0.21912   0.00000  Uiso   1.00
H183   H     0.90234   0.20230   0.05176   0.00000  Uiso   1.00
H184   H     0.76512   0.12973   0.28133   0.00000  Uiso   1.00
N185   N     0.83332   0.16666   0.28573   0.00000  Uiso   1.00
N186   N     0.83335   0.16668   0.04760   0.00000  Uiso   1.00
O187   O     0.83333   0.10558   0.20487   0.00000  Uiso   1.00
O188   O     0.83334   0.22775   0.12846   0.00000  Uiso   1.00
O189   O     0.83333   0.10559   0.12843   0.00000  Uiso   1.00
O190   O     0.83334   0.22774   0.20490   0.00000  Uiso   1.00
O191   O     0.75725   0.16666   0.19595   0.00000  Uiso   1.00
O192   O     0.90942   0.16667   0.13739   0.00000  Uiso   1.00
O193   O     0.75725   0.16667   0.11950   0.00000  Uiso   1.00
O194   O     0.90942   0.16666   0.21383   0.00000  Uiso   1.00
Zn195  Zn    0.83333   0.16666   0.21771   0.00000  Uiso   1.00
Zn196  Zn    0.83333   0.16667   0.11563   0.00000  Uiso   1.00
O197   O     0.86286   0.03785   0.09182   0.00000  Uiso   1.00
C198   C     0.81581   0.03785   0.06167   0.00000  Uiso   1.00
H199   H     0.82233   0.05873   0.03390   0.00000  Uiso   1.00
H200   H     0.78361   0.05040   0.07821   0.00000  Uiso   1.00
C201   C     0.79797   0.32820   0.04169   0.00000  Uiso   1.00
H202   H     0.83020   0.31098   0.03038   0.00000  Uiso   1.00
H203   H     0.78183   0.30934   0.06718   0.00000  Uiso   1.00
C204   C     0.75620   0.33274   0.00194   0.00000  Uiso   1.00
H205   H     0.72540   0.01920   0.01181   0.00000  Uiso   1.00
H206   H     0.73942   0.30193   0.32352   0.00000  Uiso   1.00
H207   H     0.77398   0.01464   0.30825   0.00000  Uiso   1.00
O208   O     0.80197   0.29391   0.24070   0.00000  Uiso   1.00
C209   C     0.75024   0.27852   0.22818   0.00000  Uiso   1.00
H210   H     0.74164   0.25751   0.25527   0.00000  Uiso   1.00
H211   H     0.74532   0.25920   0.19671   0.00000  Uiso   1.00
C212   C     0.71014   0.31287   0.22306   0.00000  Uiso   1.00
H213   H     0.72179   0.00608   0.24617   0.00000  Uiso   1.00
H214   H     0.70765   0.32535   0.18881   0.00000  Uiso   1.00
C215   C     0.99016   0.29639   0.23148   0.00000  Uiso   1.00
H216   H     0.98114   0.26566   0.21483   0.00000  Uiso   1.00
H217   H     0.95973   0.31833   0.21852   0.00000  Uiso   1.00
H218   H     0.98985   0.29258   0.26816   0.00000  Uiso   1.00
O219   O     0.87854   0.28952   0.10018   0.00000  Uiso   1.00
C220   C     0.93192   0.28179   0.11129   0.00000  Uiso   1.00
H221   H     0.94152   0.25749   0.08751   0.00000  Uiso   1.00
H222   H     0.94095   0.26888   0.14535   0.00000  Uiso   1.00
C223   C     0.96569   0.32033   0.10577   0.00000  Uiso   1.00
H224   H     0.94803   0.00451   0.07635   0.00000  Uiso   1.00
H225   H     0.96749   0.00744   0.13619   0.00000  Uiso   1.00
C226   C     0.68711   0.30884   0.09822   0.00000  Uiso   1.00
H227   H     0.70386   0.28651   0.12352   0.00000  Uiso   1.00
H228   H     0.71228   0.00390   0.10084   0.00000  Uiso   1.00
H229   H     0.68615   0.29434   0.06419   0.00000  Uiso   1.00
O230   O     0.82639   0.04166   0.24801   0.00000  Uiso   1.00
C231   C     0.87724   0.05284   0.26947   0.00000  Uiso   1.00
H232   H     0.87393   0.07960   0.29263   0.00000  Uiso   1.00
H233   H     0.90394   0.06318   0.24545   0.00000  Uiso   1.00
C234   C     0.90154   0.01753   0.29716   0.00000  Uiso   1.00
H235   H     0.87802   0.01072   0.32396   0.00000  Uiso   1.00
H236   H     0.90241   0.32264   0.27572   0.00000  Uiso   1.00
C237   C     0.95641   0.02915   0.31895   0.00000  Uiso   1.00
H238   H     0.98102   0.03799   0.29296   0.00000  Uiso   1.00
H239   H     0.97306   0.00188   0.00350   0.00000  Uiso   1.00
H240   H     0.95597   0.05523   0.01023   0.00000  Uiso   1.00
C241   C     0.91149   0.21400   0.29774   0.00000  Uiso   1.00
H242   H     0.90586   0.22483   0.26371   0.00000  Uiso   1.00
O243   O     0.95145   0.22478   0.32212   0.00000  Uiso   1.00
C244   C     0.75106   0.12384   0.03466   0.00000  Uiso   1.00
H245   H     0.75483   0.11302   0.06855   0.00000  Uiso   1.00
O246   O     0.71037   0.11600   0.00988   0.00000  Uiso   1.00
C247   C     0.16843   0.41999   0.16670   0.00000  Uiso   1.00
C248   C     0.16812   0.57975   0.16735   0.00000  Uiso   1.00
C249   C     0.06727   0.50020   0.15492   0.00000  Uiso   1.00
C250   C     0.26608   0.50033   0.17843   0.00000  Uiso   1.00
C251   C     0.01233   0.50067   0.14864   0.00000  Uiso   1.00
C252   C     0.32105   0.50080   0.18473   0.00000  Uiso   1.00
C253   C     0.18691   0.35293   0.13129   0.00000  Uiso   1.00
C254   C     0.15399   0.64599   0.20467   0.00000  Uiso   1.00
C255   C     0.19362   0.64424   0.13510   0.00000  Uiso   1.00
C256   C     0.16312   0.35476   0.20734   0.00000  Uiso   1.00
C257   C     0.17153   0.62377   0.16903   0.00000  Uiso   1.00
C258   C     0.17274   0.37557   0.16808   0.00000  Uiso   1.00
C259   C     0.20507   0.51998   0.02928   0.00000  Uiso   1.00
C260   C     0.12850   0.47966   0.30391   0.00000  Uiso   1.00
C261   C     0.20469   0.52124   0.31496   0.00000  Uiso   1.00
C262   C     0.12772   0.47985   0.01811   0.00000  Uiso   1.00
H263   H     0.32555   0.50064   0.11426   0.00000  Uiso   1.00
H264   H     0.00784   0.50099   0.21912   0.00000  Uiso   1.00
H265   H     0.23567   0.53564   0.05176   0.00000  Uiso   1.00
H266   H     0.09845   0.46306   0.28133   0.00000  Uiso   1.00
N267   N     0.16665   0.49999   0.28573   0.00000  Uiso   1.00
N268   N     0.16668   0.50001   0.04760   0.00000  Uiso   1.00
O269   O     0.16666   0.43892   0.20487   0.00000  Uiso   1.00
O270   O     0.16667   0.56108   0.12846   0.00000  Uiso   1.00
O271   O     0.16666   0.43893   0.12843   0.00000  Uiso   1.00
O272   O     0.16667   0.56107   0.20490   0.00000  Uiso   1.00
O273   O     0.09058   0.50000   0.19595   0.00000  Uiso   1.00
O274   O     0.24275   0.50000   0.13739   0.00000  Uiso   1.00
O275   O     0.09058   0.50000   0.11950   0.00000  Uiso   1.00
O276   O     0.24275   0.50000   0.21383   0.00000  Uiso   1.00
Zn277  Zn    0.16667   0.49999   0.21771   0.00000  Uiso   1.00
Zn278  Zn    0.16667   0.50001   0.11563   0.00000  Uiso   1.00
O279   O     0.19619   0.37118   0.09182   0.00000  Uiso   1.00
C280   C     0.14914   0.37118   0.06167   0.00000  Uiso   1.00
H281   H     0.15566   0.39207   0.03390   0.00000  Uiso   1.00
H282   H     0.11694   0.38373   0.07821   0.00000  Uiso   1.00
C283   C     0.13131   0.66154   0.04169   0.00000  Uiso   1.00
H284   H     0.16353   0.64432   0.03038   0.00000  Uiso   1.00
H285   H     0.11516   0.64267   0.06718   0.00000  Uiso   1.00
C286   C     0.08953   0.66607   0.00194   0.00000  Uiso   1.00
H287   H     0.05873   0.35253   0.01181   0.00000  Uiso   1.00
H288   H     0.07275   0.63527   0.32352   0.00000  Uiso   1.00
H289   H     0.10731   0.34798   0.30825   0.00000  Uiso   1.00
O290   O     0.13530   0.62724   0.24070   0.00000  Uiso   1.00
C291   C     0.08357   0.61185   0.22818   0.00000  Uiso   1.00
H292   H     0.07498   0.59084   0.25527   0.00000  Uiso   1.00
H293   H     0.07866   0.59253   0.19671   0.00000  Uiso   1.00
C294   C     0.04348   0.64620   0.22306   0.00000  Uiso   1.00
H295   H     0.05512   0.33941   0.24617   0.00000  Uiso   1.00
H296   H     0.04099   0.65868   0.18881   0.00000  Uiso   1.00
C297   C     0.32349   0.62972   0.23148   0.00000  Uiso   1.00
H298   H     0.31447   0.59899   0.21483   0.00000  Uiso   1.00
H299   H     0.29307   0.65167   0.21852   0.00000  Uiso   1.00
H300   H     0.32319   0.62591   0.26816   0.00000  Uiso   1.00
O301   O     0.21187   0.62286   0.10018   0.00000  Uiso   1.00
C302   C     0.26525   0.61513   0.11129   0.00000  Uiso   1.00
H303   H     0.27485   0.59083   0.08751   0.00000  Uiso   1.00
H304   H     0.27428   0.60221   0.14535   0.00000  Uiso   1.00
C305   C     0.29902   0.65367   0.10577   0.00000  Uiso   1.00
H306   H     0.28136   0.33784   0.07635   0.00000  Uiso   1.00
H307   H     0.30082   0.34078   0.13619   0.00000  Uiso   1.00
C308   C     0.02044   0.64217   0.09822   0.00000  Uiso   1.00
H309   H     0.03719   0.61985   0.12352   0.00000  Uiso   1.00
H310   H     0.04561   0.33723   0.10084   0.00000  Uiso   1.00
H311   H     0.01949   0.62767   0.06419   0.00000  Uiso   1.00
O312   O     0.15973   0.37499   0.24801   0.00000  Uiso   1.00
C313   C     0.21057   0.38617   0.26947   0.00000  Uiso   1.00
H314   H     0.20727   0.41293   0.29263   0.00000  Uiso   1.00
H315   H     0.23727   0.39651   0.24545   0.00000  Uiso   1.00
C316   C     0.23487   0.35086   0.29716   0.00000  Uiso   1.00
H317   H     0.21135   0.34405   0.32396   0.00000  Uiso   1.00
H318   H     0.23575   0.65597   0.27572   0.00000  Uiso   1.00
C319   C     0.28975   0.36248   0.31895   0.00000  Uiso   1.00
H320   H     0.31436   0.37133   0.29296   0.00000  Uiso   1.00
H321   H     0.30640   0.33522   0.00350   0.00000  Uiso   1.00
H322   H     0.28931   0.38857   0.01023   0.00000  Uiso   1.00
C323   C     0.24482   0.54733   0.29774   0.00000  Uiso   1.00
H324   H     0.23919   0.55816   0.26371   0.00000  Uiso   1.00
O325   O     0.28478   0.55811   0.32212   0.00000  Uiso   1.00
C326   C     0.08439   0.45717   0.03466   0.00000  Uiso   1.00
H327   H     0.08816   0.44635   0.06855   0.00000  Uiso   1.00
O328   O     0.04370   0.44934   0.00988   0.00000  Uiso   1.00
C329   C     0.50176   0.41999   0.16670   0.00000  Uiso   1.00
C330   C     0.50145   0.57975   0.16735   0.00000  Uiso   1.00
C331   C     0.40060   0.50020   0.15492   0.00000  Uiso   1.00
C332   C     0.59941   0.50033   0.17843   0.00000  Uiso   1.00
C333   C     0.34567   0.50067   0.14864   0.00000  Uiso   1.00
C334   C     0.65438   0.50080   0.18473   0.00000  Uiso   1.00
C335   C     0.52024   0.35293   0.13129   0.00000  Uiso   1.00
C336   C     0.48732   0.64599   0.20467   0.00000  Uiso   1.00
C337   C     0.52696   0.64424   0.13510   0.00000  Uiso   1.00
C338   C     0.49645   0.35476   0.20734   0.00000  Uiso   1.00
C339   C     0.50486   0.62377   0.16903   0.00000  Uiso   1.00
C340   C     0.50607   0.37557   0.16808   0.00000  Uiso   1.00
C341   C     0.53840   0.51998   0.02928   0.00000  Uiso   1.00
C342   C     0.46183   0.47966   0.30391   0.00000  Uiso   1.00
C343   C     0.53802   0.52124   0.31496   0.00000  Uiso   1.00
C344   C     0.46106   0.47985   0.01811   0.00000  Uiso   1.00
H345   H     0.65888   0.50064   0.11426   0.00000  Uiso   1.00
H346   H     0.34117   0.50099   0.21912   0.00000  Uiso   1.00
H347   H     0.56901   0.53564   0.05176   0.00000  Uiso   1.00
H348   H     0.43179   0.46306   0.28133   0.00000  Uiso   1.00
N349   N     0.49999   0.49999   0.28573   0.00000  Uiso   1.00
N350   N     0.50001   0.50001   0.04760   0.00000  Uiso   1.00
O351   O     0.50000   0.43892   0.20487   0.00000  Uiso   1.00
O352   O     0.50000   0.56108   0.12846   0.00000  Uiso   1.00
O353   O     0.50000   0.43893   0.12843   0.00000  Uiso   1.00
O354   O     0.50000   0.56107   0.20490   0.00000  Uiso   1.00
O355   O     0.42392   0.50000   0.19595   0.00000  Uiso   1.00
O356   O     0.57608   0.50000   0.13739   0.00000  Uiso   1.00
O357   O     0.42392   0.50000   0.11950   0.00000  Uiso   1.00
O358   O     0.57608   0.50000   0.21383   0.00000  Uiso   1.00
Zn359  Zn    0.50000   0.49999   0.21771   0.00000  Uiso   1.00
Zn360  Zn    0.50000   0.50001   0.11563   0.00000  Uiso   1.00
O361   O     0.52953   0.37118   0.09182   0.00000  Uiso   1.00
C362   C     0.48248   0.37118   0.06167   0.00000  Uiso   1.00
H363   H     0.48900   0.39207   0.03390   0.00000  Uiso   1.00
H364   H     0.45028   0.38373   0.07821   0.00000  Uiso   1.00
C365   C     0.46464   0.66154   0.04169   0.00000  Uiso   1.00
H366   H     0.49687   0.64432   0.03038   0.00000  Uiso   1.00
H367   H     0.44849   0.64267   0.06718   0.00000  Uiso   1.00
C368   C     0.42286   0.66607   0.00194   0.00000  Uiso   1.00
H369   H     0.39206   0.35253   0.01181   0.00000  Uiso   1.00
H370   H     0.40609   0.63527   0.32352   0.00000  Uiso   1.00
H371   H     0.44065   0.34798   0.30825   0.00000  Uiso   1.00
O372   O     0.46863   0.62724   0.24070   0.00000  Uiso   1.00
C373   C     0.41690   0.61185   0.22818   0.00000  Uiso   1.00
H374   H     0.40831   0.59084   0.25527   0.00000  Uiso   1.00
H375   H     0.41199   0.59253   0.19671   0.00000  Uiso   1.00
C376   C     0.37681   0.64620   0.22306   0.00000  Uiso   1.00
H377   H     0.38846   0.33941   0.24617   0.00000  Uiso   1.00
H378   H     0.37432   0.65868   0.18881   0.00000  Uiso   1.00
C379   C     0.65682   0.62972   0.23148   0.00000  Uiso   1.00
H380   H     0.64781   0.59899   0.21483   0.00000  Uiso   1.00
H381   H     0.62640   0.65167   0.21852   0.00000  Uiso   1.00
H382   H     0.65652   0.62591   0.26816   0.00000  Uiso   1.00
O383   O     0.54520   0.62286   0.10018   0.00000  Uiso   1.00
C384   C     0.59859   0.61513   0.11129   0.00000  Uiso   1.00
H385   H     0.60819   0.59083   0.08751   0.00000  Uiso   1.00
H386   H     0.60761   0.60221   0.14535   0.00000  Uiso   1.00
C387   C     0.63235   0.65367   0.10577   0.00000  Uiso   1.00
H388   H     0.61470   0.33784   0.07635   0.00000  Uiso   1.00
H389   H     0.63415   0.34078   0.13619   0.00000  Uiso   1.00
C390   C     0.35378   0.64217   0.09822   0.00000  Uiso   1.00
H391   H     0.37052   0.61985   0.12352   0.00000  Uiso   1.00
H392   H     0.37895   0.33723   0.10084   0.00000  Uiso   1.00
H393   H     0.35282   0.62767   0.06419   0.00000  Uiso   1.00
O394   O     0.49306   0.37499   0.24801   0.00000  Uiso   1.00
C395   C     0.54391   0.38617   0.26947   0.00000  Uiso   1.00
H396   H     0.54060   0.41293   0.29263   0.00000  Uiso   1.00
H397   H     0.57060   0.39651   0.24545   0.00000  Uiso   1.00
C398   C     0.56821   0.35086   0.29716   0.00000  Uiso   1.00
H399   H     0.54469   0.34405   0.32396   0.00000  Uiso   1.00
H400   H     0.56908   0.65597   0.27572   0.00000  Uiso   1.00
C401   C     0.62308   0.36248   0.31895   0.00000  Uiso   1.00
H402   H     0.64769   0.37133   0.29296   0.00000  Uiso   1.00
H403   H     0.63973   0.33522   0.00350   0.00000  Uiso   1.00
H404   H     0.62264   0.38857   0.01023   0.00000  Uiso   1.00
C405   C     0.57816   0.54733   0.29774   0.00000  Uiso   1.00
H406   H     0.57253   0.55816   0.26371   0.00000  Uiso   1.00
O407   O     0.61812   0.55811   0.32212   0.00000  Uiso   1.00
C408   C     0.41773   0.45717   0.03466   0.00000  Uiso   1.00
H409   H     0.42150   0.44635   0.06855   0.00000  Uiso   1.00
O410   O     0.37704   0.44934   0.00988   0.00000  Uiso   1.00
C411   C     0.83510   0.41999   0.16670   0.00000  Uiso   1.00
C412   C     0.83479   0.57975   0.16735   0.00000  Uiso   1.00
C413   C     0.73394   0.50020   0.15492   0.00000  Uiso   1.00
C414   C     0.93275   0.50033   0.17843   0.00000  Uiso   1.00
C415   C     0.67900   0.50067   0.14864   0.00000  Uiso   1.00
C416   C     0.98771   0.50080   0.18473   0.00000  Uiso   1.00
C417   C     0.85358   0.35293   0.13129   0.00000  Uiso   1.00
C418   C     0.82066   0.64599   0.20467   0.00000  Uiso   1.00
C419   C     0.86029   0.64424   0.13510   0.00000  Uiso   1.00
C420   C     0.82979   0.35476   0.20734   0.00000  Uiso   1.00
C421   C     0.83820   0.62377   0.16903   0.00000  Uiso   1.00
C422   C     0.83941   0.37557   0.16808   0.00000  Uiso   1.00
C423   C     0.87173   0.51998   0.02928   0.00000  Uiso   1.00
C424   C     0.79516   0.47966   0.30391   0.00000  Uiso   1.00
C425   C     0.87136   0.52124   0.31496   0.00000  Uiso   1.00
C426   C     0.79439   0.47985   0.01811   0.00000  Uiso   1.00
H427   H     0.99222   0.50064   0.11426   0.00000  Uiso   1.00
H428   H     0.67450   0.50099   0.21912   0.00000  Uiso   1.00
H429   H     0.90234   0.53564   0.05176   0.00000  Uiso   1.00
H430   H     0.76512   0.46306   0.28133   0.00000  Uiso   1.00
N431   N     0.83332   0.49999   0.28573   0.00000  Uiso   1.00
N432   N     0.83335   0.50001   0.04760   0.00000  Uiso   1.00
O433   O     0.83333   0.43892   0.20487   0.00000  Uiso   1.00
O434   O     0.83334   0.56108   0.12846   0.00000  Uiso   1.00
O435   O     0.83333   0.43893   0.12843   0.00000  Uiso   1.00
O436   O     0.83334   0.56107   0.20490   0.00000  Uiso   1.00
O437   O     0.75725   0.50000   0.19595   0.00000  Uiso   1.00
O438   O     0.90942   0.50000   0.13739   0.00000  Uiso   1.00
O439   O     0.75725   0.50000   0.11950   0.00000  Uiso   1.00
O440   O     0.90942   0.50000   0.21383   0.00000  Uiso   1.00
Zn441  Zn    0.83333   0.49999   0.21771   0.00000  Uiso   1.00
Zn442  Zn    0.83333   0.50001   0.11563   0.00000  Uiso   1.00
O443   O     0.86286   0.37118   0.09182   0.00000  Uiso   1.00
C444   C     0.81581   0.37118   0.06167   0.00000  Uiso   1.00
H445   H     0.82233   0.39207   0.03390   0.00000  Uiso   1.00
H446   H     0.78361   0.38373   0.07821   0.00000  Uiso   1.00
C447   C     0.79797   0.66154   0.04169   0.00000  Uiso   1.00
H448   H     0.83020   0.64432   0.03038   0.00000  Uiso   1.00
H449   H     0.78183   0.64267   0.06718   0.00000  Uiso   1.00
C450   C     0.75620   0.66607   0.00194   0.00000  Uiso   1.00
H451   H     0.72540   0.35253   0.01181   0.00000  Uiso   1.00
H452   H     0.73942   0.63527   0.32352   0.00000  Uiso   1.00
H453   H     0.77398   0.34798   0.30825   0.00000  Uiso   1.00
O454   O     0.80197   0.62724   0.24070   0.00000  Uiso   1.00
C455   C     0.75024   0.61185   0.22818   0.00000  Uiso   1.00
H456   H     0.74164   0.59084   0.25527   0.00000  Uiso   1.00
H457   H     0.74532   0.59253   0.19671   0.00000  Uiso   1.00
C458   C     0.71014   0.64620   0.22306   0.00000  Uiso   1.00
H459   H     0.72179   0.33941   0.24617   0.00000  Uiso   1.00
H460   H     0.70765   0.65868   0.18881   0.00000  Uiso   1.00
C461   C     0.99016   0.62972   0.23148   0.00000  Uiso   1.00
H462   H     0.98114   0.59899   0.21483   0.00000  Uiso   1.00
H463   H     0.95973   0.65167   0.21852   0.00000  Uiso   1.00
H464   H     0.98985   0.62591   0.26816   0.00000  Uiso   1.00
O465   O     0.87854   0.62286   0.10018   0.00000  Uiso   1.00
C466   C     0.93192   0.61513   0.11129   0.00000  Uiso   1.00
H467   H     0.94152   0.59083   0.08751   0.00000  Uiso   1.00
H468   H     0.94095   0.60221   0.14535   0.00000  Uiso   1.00
C469   C     0.96569   0.65367   0.10577   0.00000  Uiso   1.00
H470   H     0.94803   0.33784   0.07635   0.00000  Uiso   1.00
H471   H     0.96749   0.34078   0.13619   0.00000  Uiso   1.00
C472   C     0.68711   0.64217   0.09822   0.00000  Uiso   1.00
H473   H     0.70386   0.61985   0.12352   0.00000  Uiso   1.00
H474   H     0.71228   0.33723   0.10084   0.00000  Uiso   1.00
H475   H     0.68615   0.62767   0.06419   0.00000  Uiso   1.00
O476   O     0.82639   0.37499   0.24801   0.00000  Uiso   1.00
C477   C     0.87724   0.38617   0.26947   0.00000  Uiso   1.00
H478   H     0.87393   0.41293   0.29263   0.00000  Uiso   1.00
H479   H     0.90394   0.39651   0.24545   0.00000  Uiso   1.00
C480   C     0.90154   0.35086   0.29716   0.00000  Uiso   1.00
H481   H     0.87802   0.34405   0.32396   0.00000  Uiso   1.00
H482   H     0.90241   0.65597   0.27572   0.00000  Uiso   1.00
C483   C     0.95641   0.36248   0.31895   0.00000  Uiso   1.00
H484   H     0.98102   0.37133   0.29296   0.00000  Uiso   1.00
H485   H     0.97306   0.33522   0.00350   0.00000  Uiso   1.00
H486   H     0.95597   0.38857   0.01023   0.00000  Uiso   1.00
C487   C     0.91149   0.54733   0.29774   0.00000  Uiso   1.00
H488   H     0.90586   0.55816   0.26371   0.00000  Uiso   1.00
O489   O     0.95145   0.55811   0.32212   0.00000  Uiso   1.00
C490   C     0.75106   0.45717   0.03466   0.00000  Uiso   1.00
H491   H     0.75483   0.44635   0.06855   0.00000  Uiso   1.00
O492   O     0.71037   0.44934   0.00988   0.00000  Uiso   1.00
C493   C     0.16843   0.75332   0.16670   0.00000  Uiso   1.00
C494   C     0.16812   0.91308   0.16735   0.00000  Uiso   1.00
C495   C     0.06727   0.83354   0.15492   0.00000  Uiso   1.00
C496   C     0.26608   0.83367   0.17843   0.00000  Uiso   1.00
C497   C     0.01233   0.83401   0.14864   0.00000  Uiso   1.00
C498   C     0.32105   0.83414   0.18473   0.00000  Uiso   1.00
C499   C     0.18691   0.68627   0.13129   0.00000  Uiso   1.00
C500   C     0.15399   0.97932   0.20467   0.00000  Uiso   1.00
C501   C     0.19362   0.97758   0.13510   0.00000  Uiso   1.00
C502   C     0.16312   0.68809   0.20734   0.00000  Uiso   1.00
C503   C     0.17153   0.95711   0.16903   0.00000  Uiso   1.00
C504   C     0.17274   0.70890   0.16808   0.00000  Uiso   1.00
C505   C     0.20507   0.85332   0.02928   0.00000  Uiso   1.00
C506   C     0.12850   0.81299   0.30391   0.00000  Uiso   1.00
C507   C     0.20469   0.85457   0.31496   0.00000  Uiso   1.00
C508   C     0.12772   0.81318   0.01811   0.00000  Uiso   1.00
H509   H     0.32555   0.83398   0.11426   0.00000  Uiso   1.00
H510   H     0.00784   0.83432   0.21912   0.00000  Uiso   1.00
H511   H     0.23567   0.86897   0.05176   0.00000  Uiso   1.00
H512   H     0.09845   0.79640   0.28133   0.00000  Uiso   1.00
N513   N     0.16665   0.83332   0.28573   0.00000  Uiso   1.00
N514   N     0.16668   0.83334   0.04760   0.00000  Uiso   1.00
O515   O     0.16666   0.77225   0.20487   0.00000  Uiso   1.00
O516   O     0.16667   0.89442   0.12846   0.00000  Uiso   1.00
O517   O     0.16666   0.77226   0.12843   0.00000  Uiso   1.00
O518   O     0.16667   0.89441   0.20490   0.00000  Uiso   1.00
O519   O     0.09058   0.83333   0.19595   0.00000  Uiso   1.00
O520   O     0.24275   0.83334   0.13739   0.00000  Uiso   1.00
O521   O     0.09058   0.83334   0.11950   0.00000  Uiso   1.00
O522   O     0.24275   0.83333   0.21383   0.00000  Uiso   1.00
Zn523  Zn    0.16667   0.83333   0.21771   0.00000  Uiso   1.00
Zn524  Zn    0.16667   0.83334   0.11563   0.00000  Uiso   1.00
O525   O     0.19619   0.70452   0.09182   0.00000  Uiso   1.00
C526   C     0.14914   0.70451   0.06167   0.00000  Uiso   1.00
H527   H     0.15566   0.72540   0.03390   0.00000  Uiso   1.00
H528   H     0.11694   0.71707   0.07821   0.00000  Uiso   1.00
C529   C     0.13131   0.99487   0.04169   0.00000  Uiso   1.00
H530   H     0.16353   0.97765   0.03038   0.00000  Uiso   1.00
H531   H     0.11516   0.97600   0.06718   0.00000  Uiso   1.00
C532   C     0.08953   0.99941   0.00194   0.00000  Uiso   1.00
H533   H     0.05873   0.68587   0.01181   0.00000  Uiso   1.00
H534   H     0.07275   0.96860   0.32352   0.00000  Uiso   1.00
H535   H     0.10731   0.68131   0.30825   0.00000  Uiso   1.00
O536   O     0.13530   0.96057   0.24070   0.00000  Uiso   1.00
C537   C     0.08357   0.94519   0.22818   0.00000  Uiso   1.00
H538   H     0.07498   0.92418   0.25527   0.00000  Uiso   1.00
H539   H     0.07866   0.92586   0.19671   0.00000  Uiso   1.00
C540   C     0.04348   0.97953   0.22306   0.00000  Uiso   1.00
H541   H     0.05512   0.67275   0.24617   0.00000  Uiso   1.00
H542   H     0.04099   0.99202   0.18881   0.00000  Uiso   1.00
C543   C     0.32349   0.96305   0.23148   0.00000  Uiso   1.00
H544   H     0.31447   0.93232   0.21483   0.00000  Uiso   1.00
H545   H     0.29307   0.98500   0.21852   0.00000  Uiso   1.00
H546   H     0.32319   0.95924   0.26816   0.00000  Uiso   1.00
O547   O     0.21187   0.95619   0.10018   0.00000  Uiso   1.00
C548   C     0.26525   0.94846   0.11129   0.00000  Uiso   1.00
H549   H     0.27485   0.92416   0.08751   0.00000  Uiso   1.00
H550   H     0.27428   0.93554   0.14535   0.00000  Uiso   1.00
C551   C     0.29902   0.98700   0.10577   0.00000  Uiso   1.00
H552   H     0.28136   0.67117   0.07635   0.00000  Uiso   1.00
H553   H     0.30082   0.67411   0.13619   0.00000  Uiso   1.00
C554   C     0.02044   0.97550   0.09822   0.00000  Uiso   1.00
H555   H     0.03719   0.95318   0.12352   0.00000  Uiso   1.00
H556   H     0.04561   0.67057   0.10084   0.00000  Uiso   1.00
H557   H     0.01949   0.96101   0.06419   0.00000  Uiso   1.00
O558   O     0.15973   0.70832   0.24801   0.00000  Uiso   1.00
C559   C     0.21057   0.71951   0.26947   0.00000  Uiso   1.00
H560   H     0.20727   0.74626   0.29263   0.00000  Uiso   1.00
H561   H     0.23727   0.72985   0.24545   0.00000  Uiso   1.00
C562   C     0.23487   0.68420   0.29716   0.00000  Uiso   1.00
H563   H     0.21135   0.67738   0.32396   0.00000  Uiso   1.00
H564   H     0.23575   0.98931   0.27572   0.00000  Uiso   1.00
C565   C     0.28975   0.69582   0.31895   0.00000  Uiso   1.00
H566   H     0.31436   0.70466   0.29296   0.00000  Uiso   1.00
H567   H     0.30640   0.66855   0.00350   0.00000  Uiso   1.00
H568   H     0.28931   0.72190   0.01023   0.00000  Uiso   1.00
C569   C     0.24482   0.88067   0.29774   0.00000  Uiso   1.00
H570   H     0.23919   0.89150   0.26371   0.00000  Uiso   1.00
O571   O     0.28478   0.89145   0.32212   0.00000  Uiso   1.00
C572   C     0.08439   0.79050   0.03466   0.00000  Uiso   1.00
H573   H     0.08816   0.77968   0.06855   0.00000  Uiso   1.00
O574   O     0.04370   0.78267   0.00988   0.00000  Uiso   1.00
C575   C     0.50176   0.75332   0.16670   0.00000  Uiso   1.00
C576   C     0.50145   0.91308   0.16735   0.00000  Uiso   1.00
C577   C     0.40060   0.83354   0.15492   0.00000  Uiso   1.00
C578   C     0.59941   0.83367   0.17843   0.00000  Uiso   1.00
C579   C     0.34567   0.83401   0.14864   0.00000  Uiso   1.00
C580   C     0.65438   0.83414   0.18473   0.00000  Uiso   1.00
C581   C     0.52024   0.68627   0.13129   0.00000  Uiso   1.00
C582   C     0.48732   0.97932   0.20467   0.00000  Uiso   1.00
C583   C     0.52696   0.97758   0.13510   0.00000  Uiso   1.00
C584   C     0.49645   0.68809   0.20734   0.00000  Uiso   1.00
C585   C     0.50486   0.95711   0.16903   0.00000  Uiso   1.00
C586   C     0.50607   0.70890   0.16808   0.00000  Uiso   1.00
C587   C     0.53840   0.85332   0.02928   0.00000  Uiso   1.00
C588   C     0.46183   0.81299   0.30391   0.00000  Uiso   1.00
C589   C     0.53802   0.85457   0.31496   0.00000  Uiso   1.00
C590   C     0.46106   0.81318   0.01811   0.00000  Uiso   1.00
H591   H     0.65888   0.83398   0.11426   0.00000  Uiso   1.00
H592   H     0.34117   0.83432   0.21912   0.00000  Uiso   1.00
H593   H     0.56901   0.86897   0.05176   0.00000  Uiso   1.00
H594   H     0.43179   0.79640   0.28133   0.00000  Uiso   1.00
N595   N     0.49999   0.83332   0.28573   0.00000  Uiso   1.00
N596   N     0.50001   0.83334   0.04760   0.00000  Uiso   1.00
O597   O     0.50000   0.77225   0.20487   0.00000  Uiso   1.00
O598   O     0.50000   0.89442   0.12846   0.00000  Uiso   1.00
O599   O     0.50000   0.77226   0.12843   0.00000  Uiso   1.00
O600   O     0.50000   0.89441   0.20490   0.00000  Uiso   1.00
O601   O     0.42392   0.83333   0.19595   0.00000  Uiso   1.00
O602   O     0.57608   0.83334   0.13739   0.00000  Uiso   1.00
O603   O     0.42392   0.83334   0.11950   0.00000  Uiso   1.00
O604   O     0.57608   0.83333   0.21383   0.00000  Uiso   1.00
Zn605  Zn    0.50000   0.83333   0.21771   0.00000  Uiso   1.00
Zn606  Zn    0.50000   0.83334   0.11563   0.00000  Uiso   1.00
O607   O     0.52953   0.70452   0.09182   0.00000  Uiso   1.00
C608   C     0.48248   0.70451   0.06167   0.00000  Uiso   1.00
H609   H     0.48900   0.72540   0.03390   0.00000  Uiso   1.00
H610   H     0.45028   0.71707   0.07821   0.00000  Uiso   1.00
C611   C     0.46464   0.99487   0.04169   0.00000  Uiso   1.00
H612   H     0.49687   0.97765   0.03038   0.00000  Uiso   1.00
H613   H     0.44849   0.97600   0.06718   0.00000  Uiso   1.00
C614   C     0.42286   0.99941   0.00194   0.00000  Uiso   1.00
H615   H     0.39206   0.68587   0.01181   0.00000  Uiso   1.00
H616   H     0.40609   0.96860   0.32352   0.00000  Uiso   1.00
H617   H     0.44065   0.68131   0.30825   0.00000  Uiso   1.00
O618   O     0.46863   0.96057   0.24070   0.00000  Uiso   1.00
C619   C     0.41690   0.94519   0.22818   0.00000  Uiso   1.00
H620   H     0.40831   0.92418   0.25527   0.00000  Uiso   1.00
H621   H     0.41199   0.92586   0.19671   0.00000  Uiso   1.00
C622   C     0.37681   0.97953   0.22306   0.00000  Uiso   1.00
H623   H     0.38846   0.67275   0.24617   0.00000  Uiso   1.00
H624   H     0.37432   0.99202   0.18881   0.00000  Uiso   1.00
C625   C     0.65682   0.96305   0.23148   0.00000  Uiso   1.00
H626   H     0.64781   0.93232   0.21483   0.00000  Uiso   1.00
H627   H     0.62640   0.98500   0.21852   0.00000  Uiso   1.00
H628   H     0.65652   0.95924   0.26816   0.00000  Uiso   1.00
O629   O     0.54520   0.95619   0.10018   0.00000  Uiso   1.00
C630   C     0.59859   0.94846   0.11129   0.00000  Uiso   1.00
H631   H     0.60819   0.92416   0.08751   0.00000  Uiso   1.00
H632   H     0.60761   0.93554   0.14535   0.00000  Uiso   1.00
C633   C     0.63235   0.98700   0.10577   0.00000  Uiso   1.00
H634   H     0.61470   0.67117   0.07635   0.00000  Uiso   1.00
H635   H     0.63415   0.67411   0.13619   0.00000  Uiso   1.00
C636   C     0.35378   0.97550   0.09822   0.00000  Uiso   1.00
H637   H     0.37052   0.95318   0.12352   0.00000  Uiso   1.00
H638   H     0.37895   0.67057   0.10084   0.00000  Uiso   1.00
H639   H     0.35282   0.96101   0.06419   0.00000  Uiso   1.00
O640   O     0.49306   0.70832   0.24801   0.00000  Uiso   1.00
C641   C     0.54391   0.71951   0.26947   0.00000  Uiso   1.00
H642   H     0.54060   0.74626   0.29263   0.00000  Uiso   1.00
H643   H     0.57060   0.72985   0.24545   0.00000  Uiso   1.00
C644   C     0.56821   0.68420   0.29716   0.00000  Uiso   1.00
H645   H     0.54469   0.67738   0.32396   0.00000  Uiso   1.00
H646   H     0.56908   0.98931   0.27572   0.00000  Uiso   1.00
C647   C     0.62308   0.69582   0.31895   0.00000  Uiso   1.00
H648   H     0.64769   0.70466   0.29296   0.00000  Uiso   1.00
H649   H     0.63973   0.66855   0.00350   0.00000  Uiso   1.00
H650   H     0.62264   0.72190   0.01023   0.00000  Uiso   1.00
C651   C     0.57816   0.88067   0.29774   0.00000  Uiso   1.00
H652   H     0.57253   0.89150   0.26371   0.00000  Uiso   1.00
O653   O     0.61812   0.89145   0.32212   0.00000  Uiso   1.00
C654   C     0.41773   0.79050   0.03466   0.00000  Uiso   1.00
H655   H     0.42150   0.77968   0.06855   0.00000  Uiso   1.00
O656   O     0.37704   0.78267   0.00988   0.00000  Uiso   1.00
C657   C     0.83510   0.75332   0.16670   0.00000  Uiso   1.00
C658   C     0.83479   0.91308   0.16735   0.00000  Uiso   1.00
C659   C     0.73394   0.83354   0.15492   0.00000  Uiso   1.00
C660   C     0.93275   0.83367   0.17843   0.00000  Uiso   1.00
C661   C     0.67900   0.83401   0.14864   0.00000  Uiso   1.00
C662   C     0.98771   0.83414   0.18473   0.00000  Uiso   1.00
C663   C     0.85358   0.68627   0.13129   0.00000  Uiso   1.00
C664   C     0.82066   0.97932   0.20467   0.00000  Uiso   1.00
C665   C     0.86029   0.97758   0.13510   0.00000  Uiso   1.00
C666   C     0.82979   0.68809   0.20734   0.00000  Uiso   1.00
C667   C     0.83820   0.95711   0.16903   0.00000  Uiso   1.00
C668   C     0.83941   0.70890   0.16808   0.00000  Uiso   1.00
C669   C     0.87173   0.85332   0.02928   0.00000  Uiso   1.00
C670   C     0.79516   0.81299   0.30391   0.00000  Uiso   1.00
C671   C     0.87136   0.85457   0.31496   0.00000  Uiso   1.00
C672   C     0.79439   0.81318   0.01811   0.00000  Uiso   1.00
H673   H     0.99222   0.83398   0.11426   0.00000  Uiso   1.00
H674   H     0.67450   0.83432   0.21912   0.00000  Uiso   1.00
H675   H     0.90234   0.86897   0.05176   0.00000  Uiso   1.00
H676   H     0.76512   0.79640   0.28133   0.00000  Uiso   1.00
N677   N     0.83332   0.83332   0.28573   0.00000  Uiso   1.00
N678   N     0.83335   0.83334   0.04760   0.00000  Uiso   1.00
O679   O     0.83333   0.77225   0.20487   0.00000  Uiso   1.00
O680   O     0.83334   0.89442   0.12846   0.00000  Uiso   1.00
O681   O     0.83333   0.77226   0.12843   0.00000  Uiso   1.00
O682   O     0.83334   0.89441   0.20490   0.00000  Uiso   1.00
O683   O     0.75725   0.83333   0.19595   0.00000  Uiso   1.00
O684   O     0.90942   0.83334   0.13739   0.00000  Uiso   1.00
O685   O     0.75725   0.83334   0.11950   0.00000  Uiso   1.00
O686   O     0.90942   0.83333   0.21383   0.00000  Uiso   1.00
Zn687  Zn    0.83333   0.83333   0.21771   0.00000  Uiso   1.00
Zn688  Zn    0.83333   0.83334   0.11563   0.00000  Uiso   1.00
O689   O     0.86286   0.70452   0.09182   0.00000  Uiso   1.00
C690   C     0.81581   0.70451   0.06167   0.00000  Uiso   1.00
H691   H     0.82233   0.72540   0.03390   0.00000  Uiso   1.00
H692   H     0.78361   0.71707   0.07821   0.00000  Uiso   1.00
C693   C     0.79797   0.99487   0.04169   0.00000  Uiso   1.00
H694   H     0.83020   0.97765   0.03038   0.00000  Uiso   1.00
H695   H     0.78183   0.97600   0.06718   0.00000  Uiso   1.00
C696   C     0.75620   0.99941   0.00194   0.00000  Uiso   1.00
H697   H     0.72540   0.68587   0.01181   0.00000  Uiso   1.00
H698   H     0.73942   0.96860   0.32352   0.00000  Uiso   1.00
H699   H     0.77398   0.68131   0.30825   0.00000  Uiso   1.00
O700   O     0.80197   0.96057   0.24070   0.00000  Uiso   1.00
C701   C     0.75024   0.94519   0.22818   0.00000  Uiso   1.00
H702   H     0.74164   0.92418   0.25527   0.00000  Uiso   1.00
H703   H     0.74532   0.92586   0.19671   0.00000  Uiso   1.00
C704   C     0.71014   0.97953   0.22306   0.00000  Uiso   1.00
H705   H     0.72179   0.67275   0.24617   0.00000  Uiso   1.00
H706   H     0.70765   0.99202   0.18881   0.00000  Uiso   1.00
C707   C     0.99016   0.96305   0.23148   0.00000  Uiso   1.00
H708   H     0.98114   0.93232   0.21483   0.00000  Uiso   1.00
H709   H     0.95973   0.98500   0.21852   0.00000  Uiso   1.00
H710   H     0.98985   0.95924   0.26816   0.00000  Uiso   1.00
O711   O     0.87854   0.95619   0.10018   0.00000  Uiso   1.00
C712   C     0.93192   0.94846   0.11129   0.00000  Uiso   1.00
H713   H     0.94152   0.92416   0.08751   0.00000  Uiso   1.00
H714   H     0.94095   0.93554   0.14535   0.00000  Uiso   1.00
C715   C     0.96569   0.98700   0.10577   0.00000  Uiso   1.00
H716   H     0.94803   0.67117   0.07635   0.00000  Uiso   1.00
H717   H     0.96749   0.67411   0.13619   0.00000  Uiso   1.00
C718   C     0.68711   0.97550   0.09822   0.00000  Uiso   1.00
H719   H     0.70386   0.95318   0.12352   0.00000  Uiso   1.00
H720   H     0.71228   0.67057   0.10084   0.00000  Uiso   1.00
H721   H     0.68615   0.96101   0.06419   0.00000  Uiso   1.00
O722   O     0.82639   0.70832   0.24801   0.00000  Uiso   1.00
C723   C     0.87724   0.71951   0.26947   0.00000  Uiso   1.00
H724   H     0.87393   0.74626   0.29263   0.00000  Uiso   1.00
H725   H     0.90394   0.72985   0.24545   0.00000  Uiso   1.00
C726   C     0.90154   0.68420   0.29716   0.00000  Uiso   1.00
H727   H     0.87802   0.67738   0.32396   0.00000  Uiso   1.00
H728   H     0.90241   0.98931   0.27572   0.00000  Uiso   1.00
C729   C     0.95641   0.69582   0.31895   0.00000  Uiso   1.00
H730   H     0.98102   0.70466   0.29296   0.00000  Uiso   1.00
H731   H     0.97306   0.66855   0.00350   0.00000  Uiso   1.00
H732   H     0.95597   0.72190   0.01023   0.00000  Uiso   1.00
C733   C     0.91149   0.88067   0.29774   0.00000  Uiso   1.00
H734   H     0.90586   0.89150   0.26371   0.00000  Uiso   1.00
O735   O     0.95145   0.89145   0.32212   0.00000  Uiso   1.00
C736   C     0.75106   0.79050   0.03466   0.00000  Uiso   1.00
H737   H     0.75483   0.77968   0.06855   0.00000  Uiso   1.00
O738   O     0.71037   0.78267   0.00988   0.00000  Uiso   1.00
C739   C     0.16843   0.08666   0.50004   0.00000  Uiso   1.00
C740   C     0.16812   0.24641   0.50068   0.00000  Uiso   1.00
C741   C     0.06727   0.16687   0.48825   0.00000  Uiso   1.00
C742   C     0.26608   0.16700   0.51176   0.00000  Uiso   1.00
C743   C     0.01233   0.16734   0.48198   0.00000  Uiso   1.00
C744   C     0.32105   0.16747   0.51807   0.00000  Uiso   1.00
C745   C     0.18691   0.01960   0.46463   0.00000  Uiso   1.00
C746   C     0.15399   0.31265   0.53800   0.00000  Uiso   1.00
C747   C     0.19362   0.31091   0.46844   0.00000  Uiso   1.00
C748   C     0.16312   0.02143   0.54067   0.00000  Uiso   1.00
C749   C     0.17153   0.29044   0.50236   0.00000  Uiso   1.00
C750   C     0.17274   0.04224   0.50141   0.00000  Uiso   1.00
C751   C     0.20507   0.18665   0.36262   0.00000  Uiso   1.00
C752   C     0.12850   0.14632   0.63724   0.00000  Uiso   1.00
C753   C     0.20469   0.18791   0.64829   0.00000  Uiso   1.00
C754   C     0.12772   0.14651   0.35144   0.00000  Uiso   1.00
H755   H     0.32555   0.16731   0.44759   0.00000  Uiso   1.00
H756   H     0.00784   0.16766   0.55245   0.00000  Uiso   1.00
H757   H     0.23567   0.20230   0.38510   0.00000  Uiso   1.00
H758   H     0.09845   0.12973   0.61466   0.00000  Uiso   1.00
N759   N     0.16665   0.16666   0.61907   0.00000  Uiso   1.00
N760   N     0.16668   0.16668   0.38093   0.00000  Uiso   1.00
O761   O     0.16666   0.10558   0.53821   0.00000  Uiso   1.00
O762   O     0.16667   0.22775   0.46179   0.00000  Uiso   1.00
O763   O     0.16666   0.10559   0.46176   0.00000  Uiso   1.00
O764   O     0.16667   0.22774   0.53824   0.00000  Uiso   1.00
O765   O     0.09058   0.16666   0.52928   0.00000  Uiso   1.00
O766   O     0.24275   0.16667   0.47072   0.00000  Uiso   1.00
O767   O     0.09058   0.16667   0.45284   0.00000  Uiso   1.00
O768   O     0.24275   0.16666   0.54716   0.00000  Uiso   1.00
Zn769  Zn    0.16667   0.16666   0.55104   0.00000  Uiso   1.00
Zn770  Zn    0.16667   0.16667   0.44896   0.00000  Uiso   1.00
O771   O     0.19619   0.03785   0.42515   0.00000  Uiso   1.00
C772   C     0.14914   0.03785   0.39501   0.00000  Uiso   1.00
H773   H     0.15566   0.05873   0.36723   0.00000  Uiso   1.00
H774   H     0.11694   0.05040   0.41155   0.00000  Uiso   1.00
C775   C     0.13131   0.32820   0.37503   0.00000  Uiso   1.00
H776   H     0.16353   0.31098   0.36371   0.00000  Uiso   1.00
H777   H     0.11516   0.30934   0.40051   0.00000  Uiso   1.00
C778   C     0.08953   0.33274   0.33527   0.00000  Uiso   1.00
H779   H     0.05873   0.01920   0.34515   0.00000  Uiso   1.00
H780   H     0.07275   0.30193   0.65685   0.00000  Uiso   1.00
H781   H     0.10731   0.01464   0.64158   0.00000  Uiso   1.00
O782   O     0.13530   0.29391   0.57404   0.00000  Uiso   1.00
C783   C     0.08357   0.27852   0.56151   0.00000  Uiso   1.00
H784   H     0.07498   0.25751   0.58860   0.00000  Uiso   1.00
H785   H     0.07866   0.25920   0.53005   0.00000  Uiso   1.00
C786   C     0.04348   0.31287   0.55639   0.00000  Uiso   1.00
H787   H     0.05512   0.00608   0.57951   0.00000  Uiso   1.00
H788   H     0.04099   0.32535   0.52215   0.00000  Uiso   1.00
C789   C     0.32349   0.29639   0.56481   0.00000  Uiso   1.00
H790   H     0.31447   0.26566   0.54816   0.00000  Uiso   1.00
H791   H     0.29307   0.31833   0.55186   0.00000  Uiso   1.00
H792   H     0.32319   0.29258   0.60149   0.00000  Uiso   1.00
O793   O     0.21187   0.28952   0.43351   0.00000  Uiso   1.00
C794   C     0.26525   0.28179   0.44462   0.00000  Uiso   1.00
H795   H     0.27485   0.25749   0.42084   0.00000  Uiso   1.00
H796   H     0.27428   0.26888   0.47868   0.00000  Uiso   1.00
C797   C     0.29902   0.32033   0.43910   0.00000  Uiso   1.00
H798   H     0.28136   0.00451   0.40968   0.00000  Uiso   1.00
H799   H     0.30082   0.00744   0.46952   0.00000  Uiso   1.00
C800   C     0.02044   0.30884   0.43156   0.00000  Uiso   1.00
H801   H     0.03719   0.28651   0.45685   0.00000  Uiso   1.00
H802   H     0.04561   0.00390   0.43417   0.00000  Uiso   1.00
H803   H     0.01949   0.29434   0.39753   0.00000  Uiso   1.00
O804   O     0.15973   0.04166   0.58135   0.00000  Uiso   1.00
C805   C     0.21057   0.05284   0.60281   0.00000  Uiso   1.00
H806   H     0.20727   0.07960   0.62597   0.00000  Uiso   1.00
H807   H     0.23727   0.06318   0.57878   0.00000  Uiso   1.00
C808   C     0.23487   0.01753   0.63049   0.00000  Uiso   1.00
H809   H     0.21135   0.01072   0.65729   0.00000  Uiso   1.00
H810   H     0.23575   0.32264   0.60905   0.00000  Uiso   1.00
C811   C     0.28975   0.02915   0.65228   0.00000  Uiso   1.00
H812   H     0.31436   0.03799   0.62629   0.00000  Uiso   1.00
H813   H     0.30640   0.00188   0.33683   0.00000  Uiso   1.00
H814   H     0.28931   0.05523   0.34357   0.00000  Uiso   1.00
C815   C     0.24482   0.21400   0.63107   0.00000  Uiso   1.00
H816   H     0.23919   0.22483   0.59704   0.00000  Uiso   1.00
O817   O     0.28478   0.22478   0.65545   0.00000  Uiso   1.00
C818   C     0.08439   0.12384   0.36799   0.00000  Uiso   1.00
H819   H     0.08816   0.11302   0.40189   0.00000  Uiso   1.00
O820   O     0.04370   0.11600   0.34321   0.00000  Uiso   1.00
C821   C     0.50176   0.08666   0.50004   0.00000  Uiso   1.00
C822   C     0.50145   0.24641   0.50068   0.00000  Uiso   1.00
C823   C     0.40060   0.16687   0.48825   0.00000  Uiso   1.00
C824   C     0.59941   0.16700   0.51176   0.00000  Uiso   1.00
C825   C     0.34567   0.16734   0.48198   0.00000  Uiso   1.00
C826   C     0.65438   0.16747   0.51807   0.00000  Uiso   1.00
C827   C     0.52024   0.01960   0.46463   0.00000  Uiso   1.00
C828   C     0.48732   0.31265   0.53800   0.00000  Uiso   1.00
C829   C     0.52696   0.31091   0.46844   0.00000  Uiso   1.00
C830   C     0.49645   0.02143   0.54067   0.00000  Uiso   1.00
C831   C     0.50486   0.29044   0.50236   0.00000  Uiso   1.00
C832   C     0.50607   0.04224   0.50141   0.00000  Uiso   1.00
C833   C     0.53840   0.18665   0.36262   0.00000  Uiso   1.00
C834   C     0.46183   0.14632   0.63724   0.00000  Uiso   1.00
C835   C     0.53802   0.18791   0.64829   0.00000  Uiso   1.00
C836   C     0.46106   0.14651   0.35144   0.00000  Uiso   1.00
H837   H     0.65888   0.16731   0.44759   0.00000  Uiso   1.00
H838   H     0.34117   0.16766   0.55245   0.00000  Uiso   1.00
H839   H     0.56901   0.20230   0.38510   0.00000  Uiso   1.00
H840   H     0.43179   0.12973   0.61466   0.00000  Uiso   1.00
N841   N     0.49999   0.16666   0.61907   0.00000  Uiso   1.00
N842   N     0.50001   0.16668   0.38093   0.00000  Uiso   1.00
O843   O     0.50000   0.10558   0.53821   0.00000  Uiso   1.00
O844   O     0.50000   0.22775   0.46179   0.00000  Uiso   1.00
O845   O     0.50000   0.10559   0.46176   0.00000  Uiso   1.00
O846   O     0.50000   0.22774   0.53824   0.00000  Uiso   1.00
O847   O     0.42392   0.16666   0.52928   0.00000  Uiso   1.00
O848   O     0.57608   0.16667   0.47072   0.00000  Uiso   1.00
O849   O     0.42392   0.16667   0.45284   0.00000  Uiso   1.00
O850   O     0.57608   0.16666   0.54716   0.00000  Uiso   1.00
Zn851  Zn    0.50000   0.16666   0.55104   0.00000  Uiso   1.00
Zn852  Zn    0.50000   0.16667   0.44896   0.00000  Uiso   1.00
O853   O     0.52953   0.03785   0.42515   0.00000  Uiso   1.00
C854   C     0.48248   0.03785   0.39501   0.00000  Uiso   1.00
H855   H     0.48900   0.05873   0.36723   0.00000  Uiso   1.00
H856   H     0.45028   0.05040   0.41155   0.00000  Uiso   1.00
C857   C     0.46464   0.32820   0.37503   0.00000  Uiso   1.00
H858   H     0.49687   0.31098   0.36371   0.00000  Uiso   1.00
H859   H     0.44849   0.30934   0.40051   0.00000  Uiso   1.00
C860   C     0.42286   0.33274   0.33527   0.00000  Uiso   1.00
H861   H     0.39206   0.01920   0.34515   0.00000  Uiso   1.00
H862   H     0.40609   0.30193   0.65685   0.00000  Uiso   1.00
H863   H     0.44065   0.01464   0.64158   0.00000  Uiso   1.00
O864   O     0.46863   0.29391   0.57404   0.00000  Uiso   1.00
C865   C     0.41690   0.27852   0.56151   0.00000  Uiso   1.00
H866   H     0.40831   0.25751   0.58860   0.00000  Uiso   1.00
H867   H     0.41199   0.25920   0.53005   0.00000  Uiso   1.00
C868   C     0.37681   0.31287   0.55639   0.00000  Uiso   1.00
H869   H     0.38846   0.00608   0.57951   0.00000  Uiso   1.00
H870   H     0.37432   0.32535   0.52215   0.00000  Uiso   1.00
C871   C     0.65682   0.29639   0.56481   0.00000  Uiso   1.00
H872   H     0.64781   0.26566   0.54816   0.00000  Uiso   1.00
H873   H     0.62640   0.31833   0.55186   0.00000  Uiso   1.00
H874   H     0.65652   0.29258   0.60149   0.00000  Uiso   1.00
O875   O     0.54520   0.28952   0.43351   0.00000  Uiso   1.00
C876   C     0.59859   0.28179   0.44462   0.00000  Uiso   1.00
H877   H     0.60819   0.25749   0.42084   0.00000  Uiso   1.00
H878   H     0.60761   0.26888   0.47868   0.00000  Uiso   1.00
C879   C     0.63235   0.32033   0.43910   0.00000  Uiso   1.00
H880   H     0.61470   0.00451   0.40968   0.00000  Uiso   1.00
H881   H     0.63415   0.00744   0.46952   0.00000  Uiso   1.00
C882   C     0.35378   0.30884   0.43156   0.00000  Uiso   1.00
H883   H     0.37052   0.28651   0.45685   0.00000  Uiso   1.00
H884   H     0.37895   0.00390   0.43417   0.00000  Uiso   1.00
H885   H     0.35282   0.29434   0.39753   0.00000  Uiso   1.00
O886   O     0.49306   0.04166   0.58135   0.00000  Uiso   1.00
C887   C     0.54391   0.05284   0.60281   0.00000  Uiso   1.00
H888   H     0.54060   0.07960   0.62597   0.00000  Uiso   1.00
H889   H     0.57060   0.06318   0.57878   0.00000  Uiso   1.00
C890   C     0.56821   0.01753   0.63049   0.00000  Uiso   1.00
H891   H     0.54469   0.01072   0.65729   0.00000  Uiso   1.00
H892   H     0.56908   0.32264   0.60905   0.00000  Uiso   1.00
C893   C     0.62308   0.02915   0.65228   0.00000  Uiso   1.00
H894   H     0.64769   0.03799   0.62629   0.00000  Uiso   1.00
H895   H     0.63973   0.00188   0.33683   0.00000  Uiso   1.00
H896   H     0.62264   0.05523   0.34357   0.00000  Uiso   1.00
C897   C     0.57816   0.21400   0.63107   0.00000  Uiso   1.00
H898   H     0.57253   0.22483   0.59704   0.00000  Uiso   1.00
O899   O     0.61812   0.22478   0.65545   0.00000  Uiso   1.00
C900   C     0.41773   0.12384   0.36799   0.00000  Uiso   1.00
H901   H     0.42150   0.11302   0.40189   0.00000  Uiso   1.00
O902   O     0.37704   0.11600   0.34321   0.00000  Uiso   1.00
C903   C     0.83510   0.08666   0.50004   0.00000  Uiso   1.00
C904   C     0.83479   0.24641   0.50068   0.00000  Uiso   1.00
C905   C     0.73394   0.16687   0.48825   0.00000  Uiso   1.00
C906   C     0.93275   0.16700   0.51176   0.00000  Uiso   1.00
C907   C     0.67900   0.16734   0.48198   0.00000  Uiso   1.00
C908   C     0.98771   0.16747   0.51807   0.00000  Uiso   1.00
C909   C     0.85358   0.01960   0.46463   0.00000  Uiso   1.00
C910   C     0.82066   0.31265   0.53800   0.00000  Uiso   1.00
C911   C     0.86029   0.31091   0.46844   0.00000  Uiso   1.00
C912   C     0.82979   0.02143   0.54067   0.00000  Uiso   1.00
C913   C     0.83820   0.29044   0.50236   0.00000  Uiso   1.00
C914   C     0.83941   0.04224   0.50141   0.00000  Uiso   1.00
C915   C     0.87173   0.18665   0.36262   0.00000  Uiso   1.00
C916   C     0.79516   0.14632   0.63724   0.00000  Uiso   1.00
C917   C     0.87136   0.18791   0.64829   0.00000  Uiso   1.00
C918   C     0.79439   0.14651   0.35144   0.00000  Uiso   1.00
H919   H     0.99222   0.16731   0.44759   0.00000  Uiso   1.00
H920   H     0.67450   0.16766   0.55245   0.00000  Uiso   1.00
H921   H     0.90234   0.20230   0.38510   0.00000  Uiso   1.00
H922   H     0.76512   0.12973   0.61466   0.00000  Uiso   1.00
N923   N     0.83332   0.16666   0.61907   0.00000  Uiso   1.00
N924   N     0.83335   0.16668   0.38093   0.00000  Uiso   1.00
O925   O     0.83333   0.10558   0.53821   0.00000  Uiso   1.00
O926   O     0.83334   0.22775   0.46179   0.00000  Uiso   1.00
O927   O     0.83333   0.10559   0.46176   0.00000  Uiso   1.00
O928   O     0.83334   0.22774   0.53824   0.00000  Uiso   1.00
O929   O     0.75725   0.16666   0.52928   0.00000  Uiso   1.00
O930   O     0.90942   0.16667   0.47072   0.00000  Uiso   1.00
O931   O     0.75725   0.16667   0.45284   0.00000  Uiso   1.00
O932   O     0.90942   0.16666   0.54716   0.00000  Uiso   1.00
Zn933  Zn    0.83333   0.16666   0.55104   0.00000  Uiso   1.00
Zn934  Zn    0.83333   0.16667   0.44896   0.00000  Uiso   1.00
O935   O     0.86286   0.03785   0.42515   0.00000  Uiso   1.00
C936   C     0.81581   0.03785   0.39501   0.00000  Uiso   1.00
H937   H     0.82233   0.05873   0.36723   0.00000  Uiso   1.00
H938   H     0.78361   0.05040   0.41155   0.00000  Uiso   1.00
C939   C     0.79797   0.32820   0.37503   0.00000  Uiso   1.00
H940   H     0.83020   0.31098   0.36371   0.00000  Uiso   1.00
H941   H     0.78183   0.30934   0.40051   0.00000  Uiso   1.00
C942   C     0.75620   0.33274   0.33527   0.00000  Uiso   1.00
H943   H     0.72540   0.01920   0.34515   0.00000  Uiso   1.00
H944   H     0.73942   0.30193   0.65685   0.00000  Uiso   1.00
H945   H     0.77398   0.01464   0.64158   0.00000  Uiso   1.00
O946   O     0.80197   0.29391   0.57404   0.00000  Uiso   1.00
C947   C     0.75024   0.27852   0.56151   0.00000  Uiso   1.00
H948   H     0.74164   0.25751   0.58860   0.00000  Uiso   1.00
H949   H     0.74532   0.25920   0.53005   0.00000  Uiso   1.00
C950   C     0.71014   0.31287   0.55639   0.00000  Uiso   1.00
H951   H     0.72179   0.00608   0.57951   0.00000  Uiso   1.00
H952   H     0.70765   0.32535   0.52215   0.00000  Uiso   1.00
C953   C     0.99016   0.29639   0.56481   0.00000  Uiso   1.00
H954   H     0.98114   0.26566   0.54816   0.00000  Uiso   1.00
H955   H     0.95973   0.31833   0.55186   0.00000  Uiso   1.00
H956   H     0.98985   0.29258   0.60149   0.00000  Uiso   1.00
O957   O     0.87854   0.28952   0.43351   0.00000  Uiso   1.00
C958   C     0.93192   0.28179   0.44462   0.00000  Uiso   1.00
H959   H     0.94152   0.25749   0.42084   0.00000  Uiso   1.00
H960   H     0.94095   0.26888   0.47868   0.00000  Uiso   1.00
C961   C     0.96569   0.32033   0.43910   0.00000  Uiso   1.00
H962   H     0.94803   0.00451   0.40968   0.00000  Uiso   1.00
H963   H     0.96749   0.00744   0.46952   0.00000  Uiso   1.00
C964   C     0.68711   0.30884   0.43156   0.00000  Uiso   1.00
H965   H     0.70386   0.28651   0.45685   0.00000  Uiso   1.00
H966   H     0.71228   0.00390   0.43417   0.00000  Uiso   1.00
H967   H     0.68615   0.29434   0.39753   0.00000  Uiso   1.00
O968   O     0.82639   0.04166   0.58135   0.00000  Uiso   1.00
C969   C     0.87724   0.05284   0.60281   0.00000  Uiso   1.00
H970   H     0.87393   0.07960   0.62597   0.00000  Uiso   1.00
H971   H     0.90394   0.06318   0.57878   0.00000  Uiso   1.00
C972   C     0.90154   0.01753   0.63049   0.00000  Uiso   1.00
H973   H     0.87802   0.01072   0.65729   0.00000  Uiso   1.00
H974   H     0.90241   0.32264   0.60905   0.00000  Uiso   1.00
C975   C     0.95641   0.02915   0.65228   0.00000  Uiso   1.00
H976   H     0.98102   0.03799   0.62629   0.00000  Uiso   1.00
H977   H     0.97306   0.00188   0.33683   0.00000  Uiso   1.00
H978   H     0.95597   0.05523   0.34357   0.00000  Uiso   1.00
C979   C     0.91149   0.21400   0.63107   0.00000  Uiso   1.00
H980   H     0.90586   0.22483   0.59704   0.00000  Uiso   1.00
O981   O     0.95145   0.22478   0.65545   0.00000  Uiso   1.00
C982   C     0.75106   0.12384   0.36799   0.00000  Uiso   1.00
H983   H     0.75483   0.11302   0.40189   0.00000  Uiso   1.00
O984   O     0.71037   0.11600   0.34321   0.00000  Uiso   1.00
C985   C     0.16843   0.41999   0.50004   0.00000  Uiso   1.00
C986   C     0.16812   0.57975   0.50068   0.00000  Uiso   1.00
C987   C     0.06727   0.50020   0.48825   0.00000  Uiso   1.00
C988   C     0.26608   0.50033   0.51176   0.00000  Uiso   1.00
C989   C     0.01233   0.50067   0.48198   0.00000  Uiso   1.00
C990   C     0.32105   0.50080   0.51807   0.00000  Uiso   1.00
C991   C     0.18691   0.35293   0.46463   0.00000  Uiso   1.00
C992   C     0.15399   0.64599   0.53800   0.00000  Uiso   1.00
C993   C     0.19362   0.64424   0.46844   0.00000  Uiso   1.00
C994   C     0.16312   0.35476   0.54067   0.00000  Uiso   1.00
C995   C     0.17153   0.62377   0.50236   0.00000  Uiso   1.00
C996   C     0.17274   0.37557   0.50141   0.00000  Uiso   1.00
C997   C     0.20507   0.51998   0.36262   0.00000  Uiso   1.00
C998   C     0.12850   0.47966   0.63724   0.00000  Uiso   1.00
C999   C     0.20469   0.52124   0.64829   0.00000  Uiso   1.00
C1000  C     0.12772   0.47985   0.35144   0.00000  Uiso   1.00
H1001  H     0.32555   0.50064   0.44759   0.00000  Uiso   1.00
H1002  H     0.00784   0.50099   0.55245   0.00000  Uiso   1.00
H1003  H     0.23567   0.53564   0.38510   0.00000  Uiso   1.00
H1004  H     0.09845   0.46306   0.61466   0.00000  Uiso   1.00
N1005  N     0.16665   0.49999   0.61907   0.00000  Uiso   1.00
N1006  N     0.16668   0.50001   0.38093   0.00000  Uiso   1.00
O1007  O     0.16666   0.43892   0.53821   0.00000  Uiso   1.00
O1008  O     0.16667   0.56108   0.46179   0.00000  Uiso   1.00
O1009  O     0.16666   0.43893   0.46176   0.00000  Uiso   1.00
O1010  O     0.16667   0.56107   0.53824   0.00000  Uiso   1.00
O1011  O     0.09058   0.50000   0.52928   0.00000  Uiso   1.00
O1012  O     0.24275   0.50000   0.47072   0.00000  Uiso   1.00
O1013  O     0.09058   0.50000   0.45284   0.00000  Uiso   1.00
O1014  O     0.24275   0.50000   0.54716   0.00000  Uiso   1.00
Zn1015 Zn    0.16667   0.49999   0.55104   0.00000  Uiso   1.00
Zn1016 Zn    0.16667   0.50001   0.44896   0.00000  Uiso   1.00
O1017  O     0.19619   0.37118   0.42515   0.00000  Uiso   1.00
C1018  C     0.14914   0.37118   0.39501   0.00000  Uiso   1.00
H1019  H     0.15566   0.39207   0.36723   0.00000  Uiso   1.00
H1020  H     0.11694   0.38373   0.41155   0.00000  Uiso   1.00
C1021  C     0.13131   0.66154   0.37503   0.00000  Uiso   1.00
H1022  H     0.16353   0.64432   0.36371   0.00000  Uiso   1.00
H1023  H     0.11516   0.64267   0.40051   0.00000  Uiso   1.00
C1024  C     0.08953   0.66607   0.33527   0.00000  Uiso   1.00
H1025  H     0.05873   0.35253   0.34515   0.00000  Uiso   1.00
H1026  H     0.07275   0.63527   0.65685   0.00000  Uiso   1.00
H1027  H     0.10731   0.34798   0.64158   0.00000  Uiso   1.00
O1028  O     0.13530   0.62724   0.57404   0.00000  Uiso   1.00
C1029  C     0.08357   0.61185   0.56151   0.00000  Uiso   1.00
H1030  H     0.07498   0.59084   0.58860   0.00000  Uiso   1.00
H1031  H     0.07866   0.59253   0.53005   0.00000  Uiso   1.00
C1032  C     0.04348   0.64620   0.55639   0.00000  Uiso   1.00
H1033  H     0.05512   0.33941   0.57951   0.00000  Uiso   1.00
H1034  H     0.04099   0.65868   0.52215   0.00000  Uiso   1.00
C1035  C     0.32349   0.62972   0.56481   0.00000  Uiso   1.00
H1036  H     0.31447   0.59899   0.54816   0.00000  Uiso   1.00
H1037  H     0.29307   0.65167   0.55186   0.00000  Uiso   1.00
H1038  H     0.32319   0.62591   0.60149   0.00000  Uiso   1.00
O1039  O     0.21187   0.62286   0.43351   0.00000  Uiso   1.00
C1040  C     0.26525   0.61513   0.44462   0.00000  Uiso   1.00
H1041  H     0.27485   0.59083   0.42084   0.00000  Uiso   1.00
H1042  H     0.27428   0.60221   0.47868   0.00000  Uiso   1.00
C1043  C     0.29902   0.65367   0.43910   0.00000  Uiso   1.00
H1044  H     0.28136   0.33784   0.40968   0.00000  Uiso   1.00
H1045  H     0.30082   0.34078   0.46952   0.00000  Uiso   1.00
C1046  C     0.02044   0.64217   0.43156   0.00000  Uiso   1.00
H1047  H     0.03719   0.61985   0.45685   0.00000  Uiso   1.00
H1048  H     0.04561   0.33723   0.43417   0.00000  Uiso   1.00
H1049  H     0.01949   0.62767   0.39753   0.00000  Uiso   1.00
O1050  O     0.15973   0.37499   0.58135   0.00000  Uiso   1.00
C1051  C     0.21057   0.38617   0.60281   0.00000  Uiso   1.00
H1052  H     0.20727   0.41293   0.62597   0.00000  Uiso   1.00
H1053  H     0.23727   0.39651   0.57878   0.00000  Uiso   1.00
C1054  C     0.23487   0.35086   0.63049   0.00000  Uiso   1.00
H1055  H     0.21135   0.34405   0.65729   0.00000  Uiso   1.00
H1056  H     0.23575   0.65597   0.60905   0.00000  Uiso   1.00
C1057  C     0.28975   0.36248   0.65228   0.00000  Uiso   1.00
H1058  H     0.31436   0.37133   0.62629   0.00000  Uiso   1.00
H1059  H     0.30640   0.33522   0.33683   0.00000  Uiso   1.00
H1060  H     0.28931   0.38857   0.34357   0.00000  Uiso   1.00
C1061  C     0.24482   0.54733   0.63107   0.00000  Uiso   1.00
H1062  H     0.23919   0.55816   0.59704   0.00000  Uiso   1.00
O1063  O     0.28478   0.55811   0.65545   0.00000  Uiso   1.00
C1064  C     0.08439   0.45717   0.36799   0.00000  Uiso   1.00
H1065  H     0.08816   0.44635   0.40189   0.00000  Uiso   1.00
O1066  O     0.04370   0.44934   0.34321   0.00000  Uiso   1.00
C1067  C     0.50176   0.41999   0.50004   0.00000  Uiso   1.00
C1068  C     0.50145   0.57975   0.50068   0.00000  Uiso   1.00
C1069  C     0.40060   0.50020   0.48825   0.00000  Uiso   1.00
C1070  C     0.59941   0.50033   0.51176   0.00000  Uiso   1.00
C1071  C     0.34567   0.50067   0.48198   0.00000  Uiso   1.00
C1072  C     0.65438   0.50080   0.51807   0.00000  Uiso   1.00
C1073  C     0.52024   0.35293   0.46463   0.00000  Uiso   1.00
C1074  C     0.48732   0.64599   0.53800   0.00000  Uiso   1.00
C1075  C     0.52696   0.64424   0.46844   0.00000  Uiso   1.00
C1076  C     0.49645   0.35476   0.54067   0.00000  Uiso   1.00
C1077  C     0.50486   0.62377   0.50236   0.00000  Uiso   1.00
C1078  C     0.50607   0.37557   0.50141   0.00000  Uiso   1.00
C1079  C     0.53840   0.51998   0.36262   0.00000  Uiso   1.00
C1080  C     0.46183   0.47966   0.63724   0.00000  Uiso   1.00
C1081  C     0.53802   0.52124   0.64829   0.00000  Uiso   1.00
C1082  C     0.46106   0.47985   0.35144   0.00000  Uiso   1.00
H1083  H     0.65888   0.50064   0.44759   0.00000  Uiso   1.00
H1084  H     0.34117   0.50099   0.55245   0.00000  Uiso   1.00
H1085  H     0.56901   0.53564   0.38510   0.00000  Uiso   1.00
H1086  H     0.43179   0.46306   0.61466   0.00000  Uiso   1.00
N1087  N     0.49999   0.49999   0.61907   0.00000  Uiso   1.00
N1088  N     0.50001   0.50001   0.38093   0.00000  Uiso   1.00
O1089  O     0.50000   0.43892   0.53821   0.00000  Uiso   1.00
O1090  O     0.50000   0.56108   0.46179   0.00000  Uiso   1.00
O1091  O     0.50000   0.43893   0.46176   0.00000  Uiso   1.00
O1092  O     0.50000   0.56107   0.53824   0.00000  Uiso   1.00
O1093  O     0.42392   0.50000   0.52928   0.00000  Uiso   1.00
O1094  O     0.57608   0.50000   0.47072   0.00000  Uiso   1.00
O1095  O     0.42392   0.50000   0.45284   0.00000  Uiso   1.00
O1096  O     0.57608   0.50000   0.54716   0.00000  Uiso   1.00
Zn1097 Zn    0.50000   0.49999   0.55104   0.00000  Uiso   1.00
Zn1098 Zn    0.50000   0.50001   0.44896   0.00000  Uiso   1.00
O1099  O     0.52953   0.37118   0.42515   0.00000  Uiso   1.00
C1100  C     0.48248   0.37118   0.39501   0.00000  Uiso   1.00
H1101  H     0.48900   0.39207   0.36723   0.00000  Uiso   1.00
H1102  H     0.45028   0.38373   0.41155   0.00000  Uiso   1.00
C1103  C     0.46464   0.66154   0.37503   0.00000  Uiso   1.00
H1104  H     0.49687   0.64432   0.36371   0.00000  Uiso   1.00
H1105  H     0.44849   0.64267   0.40051   0.00000  Uiso   1.00
C1106  C     0.42286   0.66607   0.33527   0.00000  Uiso   1.00
H1107  H     0.39206   0.35253   0.34515   0.00000  Uiso   1.00
H1108  H     0.40609   0.63527   0.65685   0.00000  Uiso   1.00
H1109  H     0.44065   0.34798   0.64158   0.00000  Uiso   1.00
O1110  O     0.46863   0.62724   0.57404   0.00000  Uiso   1.00
C1111  C     0.41690   0.61185   0.56151   0.00000  Uiso   1.00
H1112  H     0.40831   0.59084   0.58860   0.00000  Uiso   1.00
H1113  H     0.41199   0.59253   0.53005   0.00000  Uiso   1.00
C1114  C     0.37681   0.64620   0.55639   0.00000  Uiso   1.00
H1115  H     0.38846   0.33941   0.57951   0.00000  Uiso   1.00
H1116  H     0.37432   0.65868   0.52215   0.00000  Uiso   1.00
C1117  C     0.65682   0.62972   0.56481   0.00000  Uiso   1.00
H1118  H     0.64781   0.59899   0.54816   0.00000  Uiso   1.00
H1119  H     0.62640   0.65167   0.55186   0.00000  Uiso   1.00
H1120  H     0.65652   0.62591   0.60149   0.00000  Uiso   1.00
O1121  O     0.54520   0.62286   0.43351   0.00000  Uiso   1.00
C1122  C     0.59859   0.61513   0.44462   0.00000  Uiso   1.00
H1123  H     0.60819   0.59083   0.42084   0.00000  Uiso   1.00
H1124  H     0.60761   0.60221   0.47868   0.00000  Uiso   1.00
C1125  C     0.63235   0.65367   0.43910   0.00000  Uiso   1.00
H1126  H     0.61470   0.33784   0.40968   0.00000  Uiso   1.00
H1127  H     0.63415   0.34078   0.46952   0.00000  Uiso   1.00
C1128  C     0.35378   0.64217   0.43156   0.00000  Uiso   1.00
H1129  H     0.37052   0.61985   0.45685   0.00000  Uiso   1.00
H1130  H     0.37895   0.33723   0.43417   0.00000  Uiso   1.00
H1131  H     0.35282   0.62767   0.39753   0.00000  Uiso   1.00
O1132  O     0.49306   0.37499   0.58135   0.00000  Uiso   1.00
C1133  C     0.54391   0.38617   0.60281   0.00000  Uiso   1.00
H1134  H     0.54060   0.41293   0.62597   0.00000  Uiso   1.00
H1135  H     0.57060   0.39651   0.57878   0.00000  Uiso   1.00
C1136  C     0.56821   0.35086   0.63049   0.00000  Uiso   1.00
H1137  H     0.54469   0.34405   0.65729   0.00000  Uiso   1.00
H1138  H     0.56908   0.65597   0.60905   0.00000  Uiso   1.00
C1139  C     0.62308   0.36248   0.65228   0.00000  Uiso   1.00
H1140  H     0.64769   0.37133   0.62629   0.00000  Uiso   1.00
H1141  H     0.63973   0.33522   0.33683   0.00000  Uiso   1.00
H1142  H     0.62264   0.38857   0.34357   0.00000  Uiso   1.00
C1143  C     0.57816   0.54733   0.63107   0.00000  Uiso   1.00
H1144  H     0.57253   0.55816   0.59704   0.00000  Uiso   1.00
O1145  O     0.61812   0.55811   0.65545   0.00000  Uiso   1.00
C1146  C     0.41773   0.45717   0.36799   0.00000  Uiso   1.00
H1147  H     0.42150   0.44635   0.40189   0.00000  Uiso   1.00
O1148  O     0.37704   0.44934   0.34321   0.00000  Uiso   1.00
C1149  C     0.83510   0.41999   0.50004   0.00000  Uiso   1.00
C1150  C     0.83479   0.57975   0.50068   0.00000  Uiso   1.00
C1151  C     0.73394   0.50020   0.48825   0.00000  Uiso   1.00
C1152  C     0.93275   0.50033   0.51176   0.00000  Uiso   1.00
C1153  C     0.67900   0.50067   0.48198   0.00000  Uiso   1.00
C1154  C     0.98771   0.50080   0.51807   0.00000  Uiso   1.00
C1155  C     0.85358   0.35293   0.46463   0.00000  Uiso   1.00
C1156  C     0.82066   0.64599   0.53800   0.00000  Uiso   1.00
C1157  C     0.86029   0.64424   0.46844   0.00000  Uiso   1.00
C1158  C     0.82979   0.35476   0.54067   0.00000  Uiso   1.00
C1159  C     0.83820   0.62377   0.50236   0.00000  Uiso   1.00
C1160  C     0.83941   0.37557   0.50141   0.00000  Uiso   1.00
C1161  C     0.87173   0.51998   0.36262   0.00000  Uiso   1.00
C1162  C     0.79516   0.47966   0.63724   0.00000  Uiso   1.00
C1163  C     0.87136   0.52124   0.64829   0.00000  Uiso   1.00
C1164  C     0.79439   0.47985   0.35144   0.00000  Uiso   1.00
H1165  H     0.99222   0.50064   0.44759   0.00000  Uiso   1.00
H1166  H     0.67450   0.50099   0.55245   0.00000  Uiso   1.00
H1167  H     0.90234   0.53564   0.38510   0.00000  Uiso   1.00
H1168  H     0.76512   0.46306   0.61466   0.00000  Uiso   1.00
N1169  N     0.83332   0.49999   0.61907   0.00000  Uiso   1.00
N1170  N     0.83335   0.50001   0.38093   0.00000  Uiso   1.00
O1171  O     0.83333   0.43892   0.53821   0.00000  Uiso   1.00
O1172  O     0.83334   0.56108   0.46179   0.00000  Uiso   1.00
O1173  O     0.83333   0.43893   0.46176   0.00000  Uiso   1.00
O1174  O     0.83334   0.56107   0.53824   0.00000  Uiso   1.00
O1175  O     0.75725   0.50000   0.52928   0.00000  Uiso   1.00
O1176  O     0.90942   0.50000   0.47072   0.00000  Uiso   1.00
O1177  O     0.75725   0.50000   0.45284   0.00000  Uiso   1.00
O1178  O     0.90942   0.50000   0.54716   0.00000  Uiso   1.00
Zn1179 Zn    0.83333   0.49999   0.55104   0.00000  Uiso   1.00
Zn1180 Zn    0.83333   0.50001   0.44896   0.00000  Uiso   1.00
O1181  O     0.86286   0.37118   0.42515   0.00000  Uiso   1.00
C1182  C     0.81581   0.37118   0.39501   0.00000  Uiso   1.00
H1183  H     0.82233   0.39207   0.36723   0.00000  Uiso   1.00
H1184  H     0.78361   0.38373   0.41155   0.00000  Uiso   1.00
C1185  C     0.79797   0.66154   0.37503   0.00000  Uiso   1.00
H1186  H     0.83020   0.64432   0.36371   0.00000  Uiso   1.00
H1187  H     0.78183   0.64267   0.40051   0.00000  Uiso   1.00
C1188  C     0.75620   0.66607   0.33527   0.00000  Uiso   1.00
H1189  H     0.72540   0.35253   0.34515   0.00000  Uiso   1.00
H1190  H     0.73942   0.63527   0.65685   0.00000  Uiso   1.00
H1191  H     0.77398   0.34798   0.64158   0.00000  Uiso   1.00
O1192  O     0.80197   0.62724   0.57404   0.00000  Uiso   1.00
C1193  C     0.75024   0.61185   0.56151   0.00000  Uiso   1.00
H1194  H     0.74164   0.59084   0.58860   0.00000  Uiso   1.00
H1195  H     0.74532   0.59253   0.53005   0.00000  Uiso   1.00
C1196  C     0.71014   0.64620   0.55639   0.00000  Uiso   1.00
H1197  H     0.72179   0.33941   0.57951   0.00000  Uiso   1.00
H1198  H     0.70765   0.65868   0.52215   0.00000  Uiso   1.00
C1199  C     0.99016   0.62972   0.56481   0.00000  Uiso   1.00
H1200  H     0.98114   0.59899   0.54816   0.00000  Uiso   1.00
H1201  H     0.95973   0.65167   0.55186   0.00000  Uiso   1.00
H1202  H     0.98985   0.62591   0.60149   0.00000  Uiso   1.00
O1203  O     0.87854   0.62286   0.43351   0.00000  Uiso   1.00
C1204  C     0.93192   0.61513   0.44462   0.00000  Uiso   1.00
H1205  H     0.94152   0.59083   0.42084   0.00000  Uiso   1.00
H1206  H     0.94095   0.60221   0.47868   0.00000  Uiso   1.00
C1207  C     0.96569   0.65367   0.43910   0.00000  Uiso   1.00
H1208  H     0.94803   0.33784   0.40968   0.00000  Uiso   1.00
H1209  H     0.96749   0.34078   0.46952   0.00000  Uiso   1.00
C1210  C     0.68711   0.64217   0.43156   0.00000  Uiso   1.00
H1211  H     0.70386   0.61985   0.45685   0.00000  Uiso   1.00
H1212  H     0.71228   0.33723   0.43417   0.00000  Uiso   1.00
H1213  H     0.68615   0.62767   0.39753   0.00000  Uiso   1.00
O1214  O     0.82639   0.37499   0.58135   0.00000  Uiso   1.00
C1215  C     0.87724   0.38617   0.60281   0.00000  Uiso   1.00
H1216  H     0.87393   0.41293   0.62597   0.00000  Uiso   1.00
H1217  H     0.90394   0.39651   0.57878   0.00000  Uiso   1.00
C1218  C     0.90154   0.35086   0.63049   0.00000  Uiso   1.00
H1219  H     0.87802   0.34405   0.65729   0.00000  Uiso   1.00
H1220  H     0.90241   0.65597   0.60905   0.00000  Uiso   1.00
C1221  C     0.95641   0.36248   0.65228   0.00000  Uiso   1.00
H1222  H     0.98102   0.37133   0.62629   0.00000  Uiso   1.00
H1223  H     0.97306   0.33522   0.33683   0.00000  Uiso   1.00
H1224  H     0.95597   0.38857   0.34357   0.00000  Uiso   1.00
C1225  C     0.91149   0.54733   0.63107   0.00000  Uiso   1.00
H1226  H     0.90586   0.55816   0.59704   0.00000  Uiso   1.00
O1227  O     0.95145   0.55811   0.65545   0.00000  Uiso   1.00
C1228  C     0.75106   0.45717   0.36799   0.00000  Uiso   1.00
H1229  H     0.75483   0.44635   0.40189   0.00000  Uiso   1.00
O1230  O     0.71037   0.44934   0.34321   0.00000  Uiso   1.00
C1231  C     0.16843   0.75332   0.50004   0.00000  Uiso   1.00
C1232  C     0.16812   0.91308   0.50068   0.00000  Uiso   1.00
C1233  C     0.06727   0.83354   0.48825   0.00000  Uiso   1.00
C1234  C     0.26608   0.83367   0.51176   0.00000  Uiso   1.00
C1235  C     0.01233   0.83401   0.48198   0.00000  Uiso   1.00
C1236  C     0.32105   0.83414   0.51807   0.00000  Uiso   1.00
C1237  C     0.18691   0.68627   0.46463   0.00000  Uiso   1.00
C1238  C     0.15399   0.97932   0.53800   0.00000  Uiso   1.00
C1239  C     0.19362   0.97758   0.46844   0.00000  Uiso   1.00
C1240  C     0.16312   0.68809   0.54067   0.00000  Uiso   1.00
C1241  C     0.17153   0.95711   0.50236   0.00000  Uiso   1.00
C1242  C     0.17274   0.70890   0.50141   0.00000  Uiso   1.00
C1243  C     0.20507   0.85332   0.36262   0.00000  Uiso   1.00
C1244  C     0.12850   0.81299   0.63724   0.00000  Uiso   1.00
C1245  C     0.20469   0.85457   0.64829   0.00000  Uiso   1.00
C1246  C     0.12772   0.81318   0.35144   0.00000  Uiso   1.00
H1247  H     0.32555   0.83398   0.44759   0.00000  Uiso   1.00
H1248  H     0.00784   0.83432   0.55245   0.00000  Uiso   1.00
H1249  H     0.23567   0.86897   0.38510   0.00000  Uiso   1.00
H1250  H     0.09845   0.79640   0.61466   0.00000  Uiso   1.00
N1251  N     0.16665   0.83332   0.61907   0.00000  Uiso   1.00
N1252  N     0.16668   0.83334   0.38093   0.00000  Uiso   1.00
O1253  O     0.16666   0.77225   0.53821   0.00000  Uiso   1.00
O1254  O     0.16667   0.89442   0.46179   0.00000  Uiso   1.00
O1255  O     0.16666   0.77226   0.46176   0.00000  Uiso   1.00
O1256  O     0.16667   0.89441   0.53824   0.00000  Uiso   1.00
O1257  O     0.09058   0.83333   0.52928   0.00000  Uiso   1.00
O1258  O     0.24275   0.83334   0.47072   0.00000  Uiso   1.00
O1259  O     0.09058   0.83334   0.45284   0.00000  Uiso   1.00
O1260  O     0.24275   0.83333   0.54716   0.00000  Uiso   1.00
Zn1261 Zn    0.16667   0.83333   0.55104   0.00000  Uiso   1.00
Zn1262 Zn    0.16667   0.83334   0.44896   0.00000  Uiso   1.00
O1263  O     0.19619   0.70452   0.42515   0.00000  Uiso   1.00
C1264  C     0.14914   0.70451   0.39501   0.00000  Uiso   1.00
H1265  H     0.15566   0.72540   0.36723   0.00000  Uiso   1.00
H1266  H     0.11694   0.71707   0.41155   0.00000  Uiso   1.00
C1267  C     0.13131   0.99487   0.37503   0.00000  Uiso   1.00
H1268  H     0.16353   0.97765   0.36371   0.00000  Uiso   1.00
H1269  H     0.11516   0.97600   0.40051   0.00000  Uiso   1.00
C1270  C     0.08953   0.99941   0.33527   0.00000  Uiso   1.00
H1271  H     0.05873   0.68587   0.34515   0.00000  Uiso   1.00
H1272  H     0.07275   0.96860   0.65685   0.00000  Uiso   1.00
H1273  H     0.10731   0.68131   0.64158   0.00000  Uiso   1.00
O1274  O     0.13530   0.96057   0.57404   0.00000  Uiso   1.00
C1275  C     0.08357   0.94519   0.56151   0.00000  Uiso   1.00
H1276  H     0.07498   0.92418   0.58860   0.00000  Uiso   1.00
H1277  H     0.07866   0.92586   0.53005   0.00000  Uiso   1.00
C1278  C     0.04348   0.97953   0.55639   0.00000  Uiso   1.00
H1279  H     0.05512   0.67275   0.57951   0.00000  Uiso   1.00
H1280  H     0.04099   0.99202   0.52215   0.00000  Uiso   1.00
C1281  C     0.32349   0.96305   0.56481   0.00000  Uiso   1.00
H1282  H     0.31447   0.93232   0.54816   0.00000  Uiso   1.00
H1283  H     0.29307   0.98500   0.55186   0.00000  Uiso   1.00
H1284  H     0.32319   0.95924   0.60149   0.00000  Uiso   1.00
O1285  O     0.21187   0.95619   0.43351   0.00000  Uiso   1.00
C1286  C     0.26525   0.94846   0.44462   0.00000  Uiso   1.00
H1287  H     0.27485   0.92416   0.42084   0.00000  Uiso   1.00
H1288  H     0.27428   0.93554   0.47868   0.00000  Uiso   1.00
C1289  C     0.29902   0.98700   0.43910   0.00000  Uiso   1.00
H1290  H     0.28136   0.67117   0.40968   0.00000  Uiso   1.00
H1291  H     0.30082   0.67411   0.46952   0.00000  Uiso   1.00
C1292  C     0.02044   0.97550   0.43156   0.00000  Uiso   1.00
H1293  H     0.03719   0.95318   0.45685   0.00000  Uiso   1.00
H1294  H     0.04561   0.67057   0.43417   0.00000  Uiso   1.00
H1295  H     0.01949   0.96101   0.39753   0.00000  Uiso   1.00
O1296  O     0.15973   0.70832   0.58135   0.00000  Uiso   1.00
C1297  C     0.21057   0.71951   0.60281   0.00000  Uiso   1.00
H1298  H     0.20727   0.74626   0.62597   0.00000  Uiso   1.00
H1299  H     0.23727   0.72985   0.57878   0.00000  Uiso   1.00
C1300  C     0.23487   0.68420   0.63049   0.00000  Uiso   1.00
H1301  H     0.21135   0.67738   0.65729   0.00000  Uiso   1.00
H1302  H     0.23575   0.98931   0.60905   0.00000  Uiso   1.00
C1303  C     0.28975   0.69582   0.65228   0.00000  Uiso   1.00
H1304  H     0.31436   0.70466   0.62629   0.00000  Uiso   1.00
H1305  H     0.30640   0.66855   0.33683   0.00000  Uiso   1.00
H1306  H     0.28931   0.72190   0.34357   0.00000  Uiso   1.00
C1307  C     0.24482   0.88067   0.63107   0.00000  Uiso   1.00
H1308  H     0.23919   0.89150   0.59704   0.00000  Uiso   1.00
O1309  O     0.28478   0.89145   0.65545   0.00000  Uiso   1.00
C1310  C     0.08439   0.79050   0.36799   0.00000  Uiso   1.00
H1311  H     0.08816   0.77968   0.40189   0.00000  Uiso   1.00
O1312  O     0.04370   0.78267   0.34321   0.00000  Uiso   1.00
C1313  C     0.50176   0.75332   0.50004   0.00000  Uiso   1.00
C1314  C     0.50145   0.91308   0.50068   0.00000  Uiso   1.00
C1315  C     0.40060   0.83354   0.48825   0.00000  Uiso   1.00
C1316  C     0.59941   0.83367   0.51176   0.00000  Uiso   1.00
C1317  C     0.34567   0.83401   0.48198   0.00000  Uiso   1.00
C1318  C     0.65438   0.83414   0.51807   0.00000  Uiso   1.00
C1319  C     0.52024   0.68627   0.46463   0.00000  Uiso   1.00
C1320  C     0.48732   0.97932   0.53800   0.00000  Uiso   1.00
C1321  C     0.52696   0.97758   0.46844   0.00000  Uiso   1.00
C1322  C     0.49645   0.68809   0.54067   0.00000  Uiso   1.00
C1323  C     0.50486   0.95711   0.50236   0.00000  Uiso   1.00
C1324  C     0.50607   0.70890   0.50141   0.00000  Uiso   1.00
C1325  C     0.53840   0.85332   0.36262   0.00000  Uiso   1.00
C1326  C     0.46183   0.81299   0.63724   0.00000  Uiso   1.00
C1327  C     0.53802   0.85457   0.64829   0.00000  Uiso   1.00
C1328  C     0.46106   0.81318   0.35144   0.00000  Uiso   1.00
H1329  H     0.65888   0.83398   0.44759   0.00000  Uiso   1.00
H1330  H     0.34117   0.83432   0.55245   0.00000  Uiso   1.00
H1331  H     0.56901   0.86897   0.38510   0.00000  Uiso   1.00
H1332  H     0.43179   0.79640   0.61466   0.00000  Uiso   1.00
N1333  N     0.49999   0.83332   0.61907   0.00000  Uiso   1.00
N1334  N     0.50001   0.83334   0.38093   0.00000  Uiso   1.00
O1335  O     0.50000   0.77225   0.53821   0.00000  Uiso   1.00
O1336  O     0.50000   0.89442   0.46179   0.00000  Uiso   1.00
O1337  O     0.50000   0.77226   0.46176   0.00000  Uiso   1.00
O1338  O     0.50000   0.89441   0.53824   0.00000  Uiso   1.00
O1339  O     0.42392   0.83333   0.52928   0.00000  Uiso   1.00
O1340  O     0.57608   0.83334   0.47072   0.00000  Uiso   1.00
O1341  O     0.42392   0.83334   0.45284   0.00000  Uiso   1.00
O1342  O     0.57608   0.83333   0.54716   0.00000  Uiso   1.00
Zn1343 Zn    0.50000   0.83333   0.55104   0.00000  Uiso   1.00
Zn1344 Zn    0.50000   0.83334   0.44896   0.00000  Uiso   1.00
O1345  O     0.52953   0.70452   0.42515   0.00000  Uiso   1.00
C1346  C     0.48248   0.70451   0.39501   0.00000  Uiso   1.00
H1347  H     0.48900   0.72540   0.36723   0.00000  Uiso   1.00
H1348  H     0.45028   0.71707   0.41155   0.00000  Uiso   1.00
C1349  C     0.46464   0.99487   0.37503   0.00000  Uiso   1.00
H1350  H     0.49687   0.97765   0.36371   0.00000  Uiso   1.00
H1351  H     0.44849   0.97600   0.40051   0.00000  Uiso   1.00
C1352  C     0.42286   0.99941   0.33527   0.00000  Uiso   1.00
H1353  H     0.39206   0.68587   0.34515   0.00000  Uiso   1.00
H1354  H     0.40609   0.96860   0.65685   0.00000  Uiso   1.00
H1355  H     0.44065   0.68131   0.64158   0.00000  Uiso   1.00
O1356  O     0.46863   0.96057   0.57404   0.00000  Uiso   1.00
C1357  C     0.41690   0.94519   0.56151   0.00000  Uiso   1.00
H1358  H     0.40831   0.92418   0.58860   0.00000  Uiso   1.00
H1359  H     0.41199   0.92586   0.53005   0.00000  Uiso   1.00
C1360  C     0.37681   0.97953   0.55639   0.00000  Uiso   1.00
H1361  H     0.38846   0.67275   0.57951   0.00000  Uiso   1.00
H1362  H     0.37432   0.99202   0.52215   0.00000  Uiso   1.00
C1363  C     0.65682   0.96305   0.56481   0.00000  Uiso   1.00
H1364  H     0.64781   0.93232   0.54816   0.00000  Uiso   1.00
H1365  H     0.62640   0.98500   0.55186   0.00000  Uiso   1.00
H1366  H     0.65652   0.95924   0.60149   0.00000  Uiso   1.00
O1367  O     0.54520   0.95619   0.43351   0.00000  Uiso   1.00
C1368  C     0.59859   0.94846   0.44462   0.00000  Uiso   1.00
H1369  H     0.60819   0.92416   0.42084   0.00000  Uiso   1.00
H1370  H     0.60761   0.93554   0.47868   0.00000  Uiso   1.00
C1371  C     0.63235   0.98700   0.43910   0.00000  Uiso   1.00
H1372  H     0.61470   0.67117   0.40968   0.00000  Uiso   1.00
H1373  H     0.63415   0.67411   0.46952   0.00000  Uiso   1.00
C1374  C     0.35378   0.97550   0.43156   0.00000  Uiso   1.00
H1375  H     0.37052   0.95318   0.45685   0.00000  Uiso   1.00
H1376  H     0.37895   0.67057   0.43417   0.00000  Uiso   1.00
H1377  H     0.35282   0.96101   0.39753   0.00000  Uiso   1.00
O1378  O     0.49306   0.70832   0.58135   0.00000  Uiso   1.00
C1379  C     0.54391   0.71951   0.60281   0.00000  Uiso   1.00
H1380  H     0.54060   0.74626   0.62597   0.00000  Uiso   1.00
H1381  H     0.57060   0.72985   0.57878   0.00000  Uiso   1.00
C1382  C     0.56821   0.68420   0.63049   0.00000  Uiso   1.00
H1383  H     0.54469   0.67738   0.65729   0.00000  Uiso   1.00
H1384  H     0.56908   0.98931   0.60905   0.00000  Uiso   1.00
C1385  C     0.62308   0.69582   0.65228   0.00000  Uiso   1.00
H1386  H     0.64769   0.70466   0.62629   0.00000  Uiso   1.00
H1387  H     0.63973   0.66855   0.33683   0.00000  Uiso   1.00
H1388  H     0.62264   0.72190   0.34357   0.00000  Uiso   1.00
C1389  C     0.57816   0.88067   0.63107   0.00000  Uiso   1.00
H1390  H     0.57253   0.89150   0.59704   0.00000  Uiso   1.00
O1391  O     0.61812   0.89145   0.65545   0.00000  Uiso   1.00
C1392  C     0.41773   0.79050   0.36799   0.00000  Uiso   1.00
H1393  H     0.42150   0.77968   0.40189   0.00000  Uiso   1.00
O1394  O     0.37704   0.78267   0.34321   0.00000  Uiso   1.00
C1395  C     0.83510   0.75332   0.50004   0.00000  Uiso   1.00
C1396  C     0.83479   0.91308   0.50068   0.00000  Uiso   1.00
C1397  C     0.73394   0.83354   0.48825   0.00000  Uiso   1.00
C1398  C     0.93275   0.83367   0.51176   0.00000  Uiso   1.00
C1399  C     0.67900   0.83401   0.48198   0.00000  Uiso   1.00
C1400  C     0.98771   0.83414   0.51807   0.00000  Uiso   1.00
C1401  C     0.85358   0.68627   0.46463   0.00000  Uiso   1.00
C1402  C     0.82066   0.97932   0.53800   0.00000  Uiso   1.00
C1403  C     0.86029   0.97758   0.46844   0.00000  Uiso   1.00
C1404  C     0.82979   0.68809   0.54067   0.00000  Uiso   1.00
C1405  C     0.83820   0.95711   0.50236   0.00000  Uiso   1.00
C1406  C     0.83941   0.70890   0.50141   0.00000  Uiso   1.00
C1407  C     0.87173   0.85332   0.36262   0.00000  Uiso   1.00
C1408  C     0.79516   0.81299   0.63724   0.00000  Uiso   1.00
C1409  C     0.87136   0.85457   0.64829   0.00000  Uiso   1.00
C1410  C     0.79439   0.81318   0.35144   0.00000  Uiso   1.00
H1411  H     0.99222   0.83398   0.44759   0.00000  Uiso   1.00
H1412  H     0.67450   0.83432   0.55245   0.00000  Uiso   1.00
H1413  H     0.90234   0.86897   0.38510   0.00000  Uiso   1.00
H1414  H     0.76512   0.79640   0.61466   0.00000  Uiso   1.00
N1415  N     0.83332   0.83332   0.61907   0.00000  Uiso   1.00
N1416  N     0.83335   0.83334   0.38093   0.00000  Uiso   1.00
O1417  O     0.83333   0.77225   0.53821   0.00000  Uiso   1.00
O1418  O     0.83334   0.89442   0.46179   0.00000  Uiso   1.00
O1419  O     0.83333   0.77226   0.46176   0.00000  Uiso   1.00
O1420  O     0.83334   0.89441   0.53824   0.00000  Uiso   1.00
O1421  O     0.75725   0.83333   0.52928   0.00000  Uiso   1.00
O1422  O     0.90942   0.83334   0.47072   0.00000  Uiso   1.00
O1423  O     0.75725   0.83334   0.45284   0.00000  Uiso   1.00
O1424  O     0.90942   0.83333   0.54716   0.00000  Uiso   1.00
Zn1425 Zn    0.83333   0.83333   0.55104   0.00000  Uiso   1.00
Zn1426 Zn    0.83333   0.83334   0.44896   0.00000  Uiso   1.00
O1427  O     0.86286   0.70452   0.42515   0.00000  Uiso   1.00
C1428  C     0.81581   0.70451   0.39501   0.00000  Uiso   1.00
H1429  H     0.82233   0.72540   0.36723   0.00000  Uiso   1.00
H1430  H     0.78361   0.71707   0.41155   0.00000  Uiso   1.00
C1431  C     0.79797   0.99487   0.37503   0.00000  Uiso   1.00
H1432  H     0.83020   0.97765   0.36371   0.00000  Uiso   1.00
H1433  H     0.78183   0.97600   0.40051   0.00000  Uiso   1.00
C1434  C     0.75620   0.99941   0.33527   0.00000  Uiso   1.00
H1435  H     0.72540   0.68587   0.34515   0.00000  Uiso   1.00
H1436  H     0.73942   0.96860   0.65685   0.00000  Uiso   1.00
H1437  H     0.77398   0.68131   0.64158   0.00000  Uiso   1.00
O1438  O     0.80197   0.96057   0.57404   0.00000  Uiso   1.00
C1439  C     0.75024   0.94519   0.56151   0.00000  Uiso   1.00
H1440  H     0.74164   0.92418   0.58860   0.00000  Uiso   1.00
H1441  H     0.74532   0.92586   0.53005   0.00000  Uiso   1.00
C1442  C     0.71014   0.97953   0.55639   0.00000  Uiso   1.00
H1443  H     0.72179   0.67275   0.57951   0.00000  Uiso   1.00
H1444  H     0.70765   0.99202   0.52215   0.00000  Uiso   1.00
C1445  C     0.99016   0.96305   0.56481   0.00000  Uiso   1.00
H1446  H     0.98114   0.93232   0.54816   0.00000  Uiso   1.00
H1447  H     0.95973   0.98500   0.55186   0.00000  Uiso   1.00
H1448  H     0.98985   0.95924   0.60149   0.00000  Uiso   1.00
O1449  O     0.87854   0.95619   0.43351   0.00000  Uiso   1.00
C1450  C     0.93192   0.94846   0.44462   0.00000  Uiso   1.00
H1451  H     0.94152   0.92416   0.42084   0.00000  Uiso   1.00
H1452  H     0.94095   0.93554   0.47868   0.00000  Uiso   1.00
C1453  C     0.96569   0.98700   0.43910   0.00000  Uiso   1.00
H1454  H     0.94803   0.67117   0.40968   0.00000  Uiso   1.00
H1455  H     0.96749   0.67411   0.46952   0.00000  Uiso   1.00
C1456  C     0.68711   0.97550   0.43156   0.00000  Uiso   1.00
H1457  H     0.70386   0.95318   0.45685   0.00000  Uiso   1.00
H1458  H     0.71228   0.67057   0.43417   0.00000  Uiso   1.00
H1459  H     0.68615   0.96101   0.39753   0.00000  Uiso   1.00
O1460  O     0.82639   0.70832   0.58135   0.00000  Uiso   1.00
C1461  C     0.87724   0.71951   0.60281   0.00000  Uiso   1.00
H1462  H     0.87393   0.74626   0.62597   0.00000  Uiso   1.00
H1463  H     0.90394   0.72985   0.57878   0.00000  Uiso   1.00
C1464  C     0.90154   0.68420   0.63049   0.00000  Uiso   1.00
H1465  H     0.87802   0.67738   0.65729   0.00000  Uiso   1.00
H1466  H     0.90241   0.98931   0.60905   0.00000  Uiso   1.00
C1467  C     0.95641   0.69582   0.65228   0.00000  Uiso   1.00
H1468  H     0.98102   0.70466   0.62629   0.00000  Uiso   1.00
H1469  H     0.97306   0.66855   0.33683   0.00000  Uiso   1.00
H1470  H     0.95597   0.72190   0.34357   0.00000  Uiso   1.00
C1471  C     0.91149   0.88067   0.63107   0.00000  Uiso   1.00
H1472  H     0.90586   0.89150   0.59704   0.00000  Uiso   1.00
O1473  O     0.95145   0.89145   0.65545   0.00000  Uiso   1.00
C1474  C     0.75106   0.79050   0.36799   0.00000  Uiso   1.00
H1475  H     0.75483   0.77968   0.40189   0.00000  Uiso   1.00
O1476  O     0.71037   0.78267   0.34321   0.00000  Uiso   1.00
C1477  C     0.16843   0.08666   0.83337   0.00000  Uiso   1.00
C1478  C     0.16812   0.24641   0.83402   0.00000  Uiso   1.00
C1479  C     0.06727   0.16687   0.82159   0.00000  Uiso   1.00
C1480  C     0.26608   0.16700   0.84510   0.00000  Uiso   1.00
C1481  C     0.01233   0.16734   0.81531   0.00000  Uiso   1.00
C1482  C     0.32105   0.16747   0.85140   0.00000  Uiso   1.00
C1483  C     0.18691   0.01960   0.79796   0.00000  Uiso   1.00
C1484  C     0.15399   0.31265   0.87133   0.00000  Uiso   1.00
C1485  C     0.19362   0.31091   0.80177   0.00000  Uiso   1.00
C1486  C     0.16312   0.02143   0.87401   0.00000  Uiso   1.00
C1487  C     0.17153   0.29044   0.83569   0.00000  Uiso   1.00
C1488  C     0.17274   0.04224   0.83474   0.00000  Uiso   1.00
C1489  C     0.20507   0.18665   0.69595   0.00000  Uiso   1.00
C1490  C     0.12850   0.14632   0.97058   0.00000  Uiso   1.00
C1491  C     0.20469   0.18791   0.98163   0.00000  Uiso   1.00
C1492  C     0.12772   0.14651   0.68477   0.00000  Uiso   1.00
H1493  H     0.32555   0.16731   0.78093   0.00000  Uiso   1.00
H1494  H     0.00784   0.16766   0.88579   0.00000  Uiso   1.00
H1495  H     0.23567   0.20230   0.71843   0.00000  Uiso   1.00
H1496  H     0.09845   0.12973   0.94800   0.00000  Uiso   1.00
N1497  N     0.16665   0.16666   0.95240   0.00000  Uiso   1.00
N1498  N     0.16668   0.16668   0.71427   0.00000  Uiso   1.00
O1499  O     0.16666   0.10558   0.87154   0.00000  Uiso   1.00
O1500  O     0.16667   0.22775   0.79513   0.00000  Uiso   1.00
O1501  O     0.16666   0.10559   0.79510   0.00000  Uiso   1.00
O1502  O     0.16667   0.22774   0.87157   0.00000  Uiso   1.00
O1503  O     0.09058   0.16666   0.86261   0.00000  Uiso   1.00
O1504  O     0.24275   0.16667   0.80405   0.00000  Uiso   1.00
O1505  O     0.09058   0.16667   0.78617   0.00000  Uiso   1.00
O1506  O     0.24275   0.16666   0.88050   0.00000  Uiso   1.00
Zn1507 Zn    0.16667   0.16666   0.88437   0.00000  Uiso   1.00
Zn1508 Zn    0.16667   0.16667   0.78229   0.00000  Uiso   1.00
O1509  O     0.19619   0.03785   0.75849   0.00000  Uiso   1.00
C1510  C     0.14914   0.03785   0.72834   0.00000  Uiso   1.00
H1511  H     0.15566   0.05873   0.70056   0.00000  Uiso   1.00
H1512  H     0.11694   0.05040   0.74488   0.00000  Uiso   1.00
C1513  C     0.13131   0.32820   0.70836   0.00000  Uiso   1.00
H1514  H     0.16353   0.31098   0.69705   0.00000  Uiso   1.00
H1515  H     0.11516   0.30934   0.73385   0.00000  Uiso   1.00
C1516  C     0.08953   0.33274   0.66861   0.00000  Uiso   1.00
H1517  H     0.05873   0.01920   0.67848   0.00000  Uiso   1.00
H1518  H     0.07275   0.30193   0.99018   0.00000  Uiso   1.00
H1519  H     0.10731   0.01464   0.97491   0.00000  Uiso   1.00
O1520  O     0.13530   0.29391   0.90737   0.00000  Uiso   1.00
C1521  C     0.08357   0.27852   0.89485   0.00000  Uiso   1.00
H1522  H     0.07498   0.25751   0.92194   0.00000  Uiso   1.00
H1523  H     0.07866   0.25920   0.86338   0.00000  Uiso   1.00
C1524  C     0.04348   0.31287   0.88973   0.00000  Uiso   1.00
H1525  H     0.05512   0.00608   0.91284   0.00000  Uiso   1.00
H1526  H     0.04099   0.32535   0.85548   0.00000  Uiso   1.00
C1527  C     0.32349   0.29639   0.89814   0.00000  Uiso   1.00
H1528  H     0.31447   0.26566   0.88150   0.00000  Uiso   1.00
H1529  H     0.29307   0.31833   0.88519   0.00000  Uiso   1.00
H1530  H     0.32319   0.29258   0.93483   0.00000  Uiso   1.00
O1531  O     0.21187   0.28952   0.76685   0.00000  Uiso   1.00
C1532  C     0.26525   0.28179   0.77795   0.00000  Uiso   1.00
H1533  H     0.27485   0.25749   0.75418   0.00000  Uiso   1.00
H1534  H     0.27428   0.26888   0.81202   0.00000  Uiso   1.00
C1535  C     0.29902   0.32033   0.77243   0.00000  Uiso   1.00
H1536  H     0.28136   0.00451   0.74301   0.00000  Uiso   1.00
H1537  H     0.30082   0.00744   0.80285   0.00000  Uiso   1.00
C1538  C     0.02044   0.30884   0.76489   0.00000  Uiso   1.00
H1539  H     0.03719   0.28651   0.79018   0.00000  Uiso   1.00
H1540  H     0.04561   0.00390   0.76751   0.00000  Uiso   1.00
H1541  H     0.01949   0.29434   0.73086   0.00000  Uiso   1.00
O1542  O     0.15973   0.04166   0.91468   0.00000  Uiso   1.00
C1543  C     0.21057   0.05284   0.93614   0.00000  Uiso   1.00
H1544  H     0.20727   0.07960   0.95930   0.00000  Uiso   1.00
H1545  H     0.23727   0.06318   0.91211   0.00000  Uiso   1.00
C1546  C     0.23487   0.01753   0.96382   0.00000  Uiso   1.00
H1547  H     0.21135   0.01072   0.99063   0.00000  Uiso   1.00
H1548  H     0.23575   0.32264   0.94239   0.00000  Uiso   1.00
C1549  C     0.28975   0.02915   0.98562   0.00000  Uiso   1.00
H1550  H     0.31436   0.03799   0.95963   0.00000  Uiso   1.00
H1551  H     0.30640   0.00188   0.67016   0.00000  Uiso   1.00
H1552  H     0.28931   0.05523   0.67690   0.00000  Uiso   1.00
C1553  C     0.24482   0.21400   0.96441   0.00000  Uiso   1.00
H1554  H     0.23919   0.22483   0.93037   0.00000  Uiso   1.00
O1555  O     0.28478   0.22478   0.98878   0.00000  Uiso   1.00
C1556  C     0.08439   0.12384   0.70133   0.00000  Uiso   1.00
H1557  H     0.08816   0.11302   0.73522   0.00000  Uiso   1.00
O1558  O     0.04370   0.11600   0.67655   0.00000  Uiso   1.00
C1559  C     0.50176   0.08666   0.83337   0.00000  Uiso   1.00
C1560  C     0.50145   0.24641   0.83402   0.00000  Uiso   1.00
C1561  C     0.40060   0.16687   0.82159   0.00000  Uiso   1.00
C1562  C     0.59941   0.16700   0.84510   0.00000  Uiso   1.00
C1563  C     0.34567   0.16734   0.81531   0.00000  Uiso   1.00
C1564  C     0.65438   0.16747   0.85140   0.00000  Uiso   1.00
C1565  C     0.52024   0.01960   0.79796   0.00000  Uiso   1.00
C1566  C     0.48732   0.31265   0.87133   0.00000  Uiso   1.00
C1567  C     0.52696   0.31091   0.80177   0.00000  Uiso   1.00
C1568  C     0.49645   0.02143   0.87401   0.00000  Uiso   1.00
C1569  C     0.50486   0.29044   0.83569   0.00000  Uiso   1.00
C1570  C     0.50607   0.04224   0.83474   0.00000  Uiso   1.00
C1571  C     0.53840   0.18665   0.69595   0.00000  Uiso   1.00
C1572  C     0.46183   0.14632   0.97058   0.00000  Uiso   1.00
C1573  C     0.53802   0.18791   0.98163   0.00000  Uiso   1.00
C1574  C     0.46106   0.14651   0.68477   0.00000  Uiso   1.00
H1575  H     0.65888   0.16731   0.78093   0.00000  Uiso   1.00
H1576  H     0.34117   0.16766   0.88579   0.00000  Uiso   1.00
H1577  H     0.56901   0.20230   0.71843   0.00000  Uiso   1.00
H1578  H     0.43179   0.12973   0.94800   0.00000  Uiso   1.00
N1579  N     0.49999   0.16666   0.95240   0.00000  Uiso   1.00
N1580  N     0.50001   0.16668   0.71427   0.00000  Uiso   1.00
O1581  O     0.50000   0.10558   0.87154   0.00000  Uiso   1.00
O1582  O     0.50000   0.22775   0.79513   0.00000  Uiso   1.00
O1583  O     0.50000   0.10559   0.79510   0.00000  Uiso   1.00
O1584  O     0.50000   0.22774   0.87157   0.00000  Uiso   1.00
O1585  O     0.42392   0.16666   0.86261   0.00000  Uiso   1.00
O1586  O     0.57608   0.16667   0.80405   0.00000  Uiso   1.00
O1587  O     0.42392   0.16667   0.78617   0.00000  Uiso   1.00
O1588  O     0.57608   0.16666   0.88050   0.00000  Uiso   1.00
Zn1589 Zn    0.50000   0.16666   0.88437   0.00000  Uiso   1.00
Zn1590 Zn    0.50000   0.16667   0.78229   0.00000  Uiso   1.00
O1591  O     0.52953   0.03785   0.75849   0.00000  Uiso   1.00
C1592  C     0.48248   0.03785   0.72834   0.00000  Uiso   1.00
H1593  H     0.48900   0.05873   0.70056   0.00000  Uiso   1.00
H1594  H     0.45028   0.05040   0.74488   0.00000  Uiso   1.00
C1595  C     0.46464   0.32820   0.70836   0.00000  Uiso   1.00
H1596  H     0.49687   0.31098   0.69705   0.00000  Uiso   1.00
H1597  H     0.44849   0.30934   0.73385   0.00000  Uiso   1.00
C1598  C     0.42286   0.33274   0.66861   0.00000  Uiso   1.00
H1599  H     0.39206   0.01920   0.67848   0.00000  Uiso   1.00
H1600  H     0.40609   0.30193   0.99018   0.00000  Uiso   1.00
H1601  H     0.44065   0.01464   0.97491   0.00000  Uiso   1.00
O1602  O     0.46863   0.29391   0.90737   0.00000  Uiso   1.00
C1603  C     0.41690   0.27852   0.89485   0.00000  Uiso   1.00
H1604  H     0.40831   0.25751   0.92194   0.00000  Uiso   1.00
H1605  H     0.41199   0.25920   0.86338   0.00000  Uiso   1.00
C1606  C     0.37681   0.31287   0.88973   0.00000  Uiso   1.00
H1607  H     0.38846   0.00608   0.91284   0.00000  Uiso   1.00
H1608  H     0.37432   0.32535   0.85548   0.00000  Uiso   1.00
C1609  C     0.65682   0.29639   0.89814   0.00000  Uiso   1.00
H1610  H     0.64781   0.26566   0.88150   0.00000  Uiso   1.00
H1611  H     0.62640   0.31833   0.88519   0.00000  Uiso   1.00
H1612  H     0.65652   0.29258   0.93483   0.00000  Uiso   1.00
O1613  O     0.54520   0.28952   0.76685   0.00000  Uiso   1.00
C1614  C     0.59859   0.28179   0.77795   0.00000  Uiso   1.00
H1615  H     0.60819   0.25749   0.75418   0.00000  Uiso   1.00
H1616  H     0.60761   0.26888   0.81202   0.00000  Uiso   1.00
C1617  C     0.63235   0.32033   0.77243   0.00000  Uiso   1.00
H1618  H     0.61470   0.00451   0.74301   0.00000  Uiso   1.00
H1619  H     0.63415   0.00744   0.80285   0.00000  Uiso   1.00
C1620  C     0.35378   0.30884   0.76489   0.00000  Uiso   1.00
H1621  H     0.37052   0.28651   0.79018   0.00000  Uiso   1.00
H1622  H     0.37895   0.00390   0.76751   0.00000  Uiso   1.00
H1623  H     0.35282   0.29434   0.73086   0.00000  Uiso   1.00
O1624  O     0.49306   0.04166   0.91468   0.00000  Uiso   1.00
C1625  C     0.54391   0.05284   0.93614   0.00000  Uiso   1.00
H1626  H     0.54060   0.07960   0.95930   0.00000  Uiso   1.00
H1627  H     0.57060   0.06318   0.91211   0.00000  Uiso   1.00
C1628  C     0.56821   0.01753   0.96382   0.00000  Uiso   1.00
H1629  H     0.54469   0.01072   0.99063   0.00000  Uiso   1.00
H1630  H     0.56908   0.32264   0.94239   0.00000  Uiso   1.00
C1631  C     0.62308   0.02915   0.98562   0.00000  Uiso   1.00
H1632  H     0.64769   0.03799   0.95963   0.00000  Uiso   1.00
H1633  H     0.63973   0.00188   0.67016   0.00000  Uiso   1.00
H1634  H     0.62264   0.05523   0.67690   0.00000  Uiso   1.00
C1635  C     0.57816   0.21400   0.96441   0.00000  Uiso   1.00
H1636  H     0.57253   0.22483   0.93037   0.00000  Uiso   1.00
O1637  O     0.61812   0.22478   0.98878   0.00000  Uiso   1.00
C1638  C     0.41773   0.12384   0.70133   0.00000  Uiso   1.00
H1639  H     0.42150   0.11302   0.73522   0.00000  Uiso   1.00
O1640  O     0.37704   0.11600   0.67655   0.00000  Uiso   1.00
C1641  C     0.83510   0.08666   0.83337   0.00000  Uiso   1.00
C1642  C     0.83479   0.24641   0.83402   0.00000  Uiso   1.00
C1643  C     0.73394   0.16687   0.82159   0.00000  Uiso   1.00
C1644  C     0.93275   0.16700   0.84510   0.00000  Uiso   1.00
C1645  C     0.67900   0.16734   0.81531   0.00000  Uiso   1.00
C1646  C     0.98771   0.16747   0.85140   0.00000  Uiso   1.00
C1647  C     0.85358   0.01960   0.79796   0.00000  Uiso   1.00
C1648  C     0.82066   0.31265   0.87133   0.00000  Uiso   1.00
C1649  C     0.86029   0.31091   0.80177   0.00000  Uiso   1.00
C1650  C     0.82979   0.02143   0.87401   0.00000  Uiso   1.00
C1651  C     0.83820   0.29044   0.83569   0.00000  Uiso   1.00
C1652  C     0.83941   0.04224   0.83474   0.00000  Uiso   1.00
C1653  C     0.87173   0.18665   0.69595   0.00000  Uiso   1.00
C1654  C     0.79516   0.14632   0.97058   0.00000  Uiso   1.00
C1655  C     0.87136   0.18791   0.98163   0.00000  Uiso   1.00
C1656  C     0.79439   0.14651   0.68477   0.00000  Uiso   1.00
H1657  H     0.99222   0.16731   0.78093   0.00000  Uiso   1.00
H1658  H     0.67450   0.16766   0.88579   0.00000  Uiso   1.00
H1659  H     0.90234   0.20230   0.71843   0.00000  Uiso   1.00
H1660  H     0.76512   0.12973   0.94800   0.00000  Uiso   1.00
N1661  N     0.83332   0.16666   0.95240   0.00000  Uiso   1.00
N1662  N     0.83335   0.16668   0.71427   0.00000  Uiso   1.00
O1663  O     0.83333   0.10558   0.87154   0.00000  Uiso   1.00
O1664  O     0.83334   0.22775   0.79513   0.00000  Uiso   1.00
O1665  O     0.83333   0.10559   0.79510   0.00000  Uiso   1.00
O1666  O     0.83334   0.22774   0.87157   0.00000  Uiso   1.00
O1667  O     0.75725   0.16666   0.86261   0.00000  Uiso   1.00
O1668  O     0.90942   0.16667   0.80405   0.00000  Uiso   1.00
O1669  O     0.75725   0.16667   0.78617   0.00000  Uiso   1.00
O1670  O     0.90942   0.16666   0.88050   0.00000  Uiso   1.00
Zn1671 Zn    0.83333   0.16666   0.88437   0.00000  Uiso   1.00
Zn1672 Zn    0.83333   0.16667   0.78229   0.00000  Uiso   1.00
O1673  O     0.86286   0.03785   0.75849   0.00000  Uiso   1.00
C1674  C     0.81581   0.03785   0.72834   0.00000  Uiso   1.00
H1675  H     0.82233   0.05873   0.70056   0.00000  Uiso   1.00
H1676  H     0.78361   0.05040   0.74488   0.00000  Uiso   1.00
C1677  C     0.79797   0.32820   0.70836   0.00000  Uiso   1.00
H1678  H     0.83020   0.31098   0.69705   0.00000  Uiso   1.00
H1679  H     0.78183   0.30934   0.73385   0.00000  Uiso   1.00
C1680  C     0.75620   0.33274   0.66861   0.00000  Uiso   1.00
H1681  H     0.72540   0.01920   0.67848   0.00000  Uiso   1.00
H1682  H     0.73942   0.30193   0.99018   0.00000  Uiso   1.00
H1683  H     0.77398   0.01464   0.97491   0.00000  Uiso   1.00
O1684  O     0.80197   0.29391   0.90737   0.00000  Uiso   1.00
C1685  C     0.75024   0.27852   0.89485   0.00000  Uiso   1.00
H1686  H     0.74164   0.25751   0.92194   0.00000  Uiso   1.00
H1687  H     0.74532   0.25920   0.86338   0.00000  Uiso   1.00
C1688  C     0.71014   0.31287   0.88973   0.00000  Uiso   1.00
H1689  H     0.72179   0.00608   0.91284   0.00000  Uiso   1.00
H1690  H     0.70765   0.32535   0.85548   0.00000  Uiso   1.00
C1691  C     0.99016   0.29639   0.89814   0.00000  Uiso   1.00
H1692  H     0.98114   0.26566   0.88150   0.00000  Uiso   1.00
H1693  H     0.95973   0.31833   0.88519   0.00000  Uiso   1.00
H1694  H     0.98985   0.29258   0.93483   0.00000  Uiso   1.00
O1695  O     0.87854   0.28952   0.76685   0.00000  Uiso   1.00
C1696  C     0.93192   0.28179   0.77795   0.00000  Uiso   1.00
H1697  H     0.94152   0.25749   0.75418   0.00000  Uiso   1.00
H1698  H     0.94095   0.26888   0.81202   0.00000  Uiso   1.00
C1699  C     0.96569   0.32033   0.77243   0.00000  Uiso   1.00
H1700  H     0.94803   0.00451   0.74301   0.00000  Uiso   1.00
H1701  H     0.96749   0.00744   0.80285   0.00000  Uiso   1.00
C1702  C     0.68711   0.30884   0.76489   0.00000  Uiso   1.00
H1703  H     0.70386   0.28651   0.79018   0.00000  Uiso   1.00
H1704  H     0.71228   0.00390   0.76751   0.00000  Uiso   1.00
H1705  H     0.68615   0.29434   0.73086   0.00000  Uiso   1.00
O1706  O     0.82639   0.04166   0.91468   0.00000  Uiso   1.00
C1707  C     0.87724   0.05284   0.93614   0.00000  Uiso   1.00
H1708  H     0.87393   0.07960   0.95930   0.00000  Uiso   1.00
H1709  H     0.90394   0.06318   0.91211   0.00000  Uiso   1.00
C1710  C     0.90154   0.01753   0.96382   0.00000  Uiso   1.00
H1711  H     0.87802   0.01072   0.99063   0.00000  Uiso   1.00
H1712  H     0.90241   0.32264   0.94239   0.00000  Uiso   1.00
C1713  C     0.95641   0.02915   0.98562   0.00000  Uiso   1.00
H1714  H     0.98102   0.03799   0.95963   0.00000  Uiso   1.00
H1715  H     0.97306   0.00188   0.67016   0.00000  Uiso   1.00
H1716  H     0.95597   0.05523   0.67690   0.00000  Uiso   1.00
C1717  C     0.91149   0.21400   0.96441   0.00000  Uiso   1.00
H1718  H     0.90586   0.22483   0.93037   0.00000  Uiso   1.00
O1719  O     0.95145   0.22478   0.98878   0.00000  Uiso   1.00
C1720  C     0.75106   0.12384   0.70133   0.00000  Uiso   1.00
H1721  H     0.75483   0.11302   0.73522   0.00000  Uiso   1.00
O1722  O     0.71037   0.11600   0.67655   0.00000  Uiso   1.00
C1723  C     0.16843   0.41999   0.83337   0.00000  Uiso   1.00
C1724  C     0.16812   0.57975   0.83402   0.00000  Uiso   1.00
C1725  C     0.06727   0.50020   0.82159   0.00000  Uiso   1.00
C1726  C     0.26608   0.50033   0.84510   0.00000  Uiso   1.00
C1727  C     0.01233   0.50067   0.81531   0.00000  Uiso   1.00
C1728  C     0.32105   0.50080   0.85140   0.00000  Uiso   1.00
C1729  C     0.18691   0.35293   0.79796   0.00000  Uiso   1.00
C1730  C     0.15399   0.64599   0.87133   0.00000  Uiso   1.00
C1731  C     0.19362   0.64424   0.80177   0.00000  Uiso   1.00
C1732  C     0.16312   0.35476   0.87401   0.00000  Uiso   1.00
C1733  C     0.17153   0.62377   0.83569   0.00000  Uiso   1.00
C1734  C     0.17274   0.37557   0.83474   0.00000  Uiso   1.00
C1735  C     0.20507   0.51998   0.69595   0.00000  Uiso   1.00
C1736  C     0.12850   0.47966   0.97058   0.00000  Uiso   1.00
C1737  C     0.20469   0.52124   0.98163   0.00000  Uiso   1.00
C1738  C     0.12772   0.47985   0.68477   0.00000  Uiso   1.00
H1739  H     0.32555   0.50064   0.78093   0.00000  Uiso   1.00
H1740  H     0.00784   0.50099   0.88579   0.00000  Uiso   1.00
H1741  H     0.23567   0.53564   0.71843   0.00000  Uiso   1.00
H1742  H     0.09845   0.46306   0.94800   0.00000  Uiso   1.00
N1743  N     0.16665   0.49999   0.95240   0.00000  Uiso   1.00
N1744  N     0.16668   0.50001   0.71427   0.00000  Uiso   1.00
O1745  O     0.16666   0.43892   0.87154   0.00000  Uiso   1.00
O1746  O     0.16667   0.56108   0.79513   0.00000  Uiso   1.00
O1747  O     0.16666   0.43893   0.79510   0.00000  Uiso   1.00
O1748  O     0.16667   0.56107   0.87157   0.00000  Uiso   1.00
O1749  O     0.09058   0.50000   0.86261   0.00000  Uiso   1.00
O1750  O     0.24275   0.50000   0.80405   0.00000  Uiso   1.00
O1751  O     0.09058   0.50000   0.78617   0.00000  Uiso   1.00
O1752  O     0.24275   0.50000   0.88050   0.00000  Uiso   1.00
Zn1753 Zn    0.16667   0.49999   0.88437   0.00000  Uiso   1.00
Zn1754 Zn    0.16667   0.50001   0.78229   0.00000  Uiso   1.00
O1755  O     0.19619   0.37118   0.75849   0.00000  Uiso   1.00
C1756  C     0.14914   0.37118   0.72834   0.00000  Uiso   1.00
H1757  H     0.15566   0.39207   0.70056   0.00000  Uiso   1.00
H1758  H     0.11694   0.38373   0.74488   0.00000  Uiso   1.00
C1759  C     0.13131   0.66154   0.70836   0.00000  Uiso   1.00
H1760  H     0.16353   0.64432   0.69705   0.00000  Uiso   1.00
H1761  H     0.11516   0.64267   0.73385   0.00000  Uiso   1.00
C1762  C     0.08953   0.66607   0.66861   0.00000  Uiso   1.00
H1763  H     0.05873   0.35253   0.67848   0.00000  Uiso   1.00
H1764  H     0.07275   0.63527   0.99018   0.00000  Uiso   1.00
H1765  H     0.10731   0.34798   0.97491   0.00000  Uiso   1.00
O1766  O     0.13530   0.62724   0.90737   0.00000  Uiso   1.00
C1767  C     0.08357   0.61185   0.89485   0.00000  Uiso   1.00
H1768  H     0.07498   0.59084   0.92194   0.00000  Uiso   1.00
H1769  H     0.07866   0.59253   0.86338   0.00000  Uiso   1.00
C1770  C     0.04348   0.64620   0.88973   0.00000  Uiso   1.00
H1771  H     0.05512   0.33941   0.91284   0.00000  Uiso   1.00
H1772  H     0.04099   0.65868   0.85548   0.00000  Uiso   1.00
C1773  C     0.32349   0.62972   0.89814   0.00000  Uiso   1.00
H1774  H     0.31447   0.59899   0.88150   0.00000  Uiso   1.00
H1775  H     0.29307   0.65167   0.88519   0.00000  Uiso   1.00
H1776  H     0.32319   0.62591   0.93483   0.00000  Uiso   1.00
O1777  O     0.21187   0.62286   0.76685   0.00000  Uiso   1.00
C1778  C     0.26525   0.61513   0.77795   0.00000  Uiso   1.00
H1779  H     0.27485   0.59083   0.75418   0.00000  Uiso   1.00
H1780  H     0.27428   0.60221   0.81202   0.00000  Uiso   1.00
C1781  C     0.29902   0.65367   0.77243   0.00000  Uiso   1.00
H1782  H     0.28136   0.33784   0.74301   0.00000  Uiso   1.00
H1783  H     0.30082   0.34078   0.80285   0.00000  Uiso   1.00
C1784  C     0.02044   0.64217   0.76489   0.00000  Uiso   1.00
H1785  H     0.03719   0.61985   0.79018   0.00000  Uiso   1.00
H1786  H     0.04561   0.33723   0.76751   0.00000  Uiso   1.00
H1787  H     0.01949   0.62767   0.73086   0.00000  Uiso   1.00
O1788  O     0.15973   0.37499   0.91468   0.00000  Uiso   1.00
C1789  C     0.21057   0.38617   0.93614   0.00000  Uiso   1.00
H1790  H     0.20727   0.41293   0.95930   0.00000  Uiso   1.00
H1791  H     0.23727   0.39651   0.91211   0.00000  Uiso   1.00
C1792  C     0.23487   0.35086   0.96382   0.00000  Uiso   1.00
H1793  H     0.21135   0.34405   0.99063   0.00000  Uiso   1.00
H1794  H     0.23575   0.65597   0.94239   0.00000  Uiso   1.00
C1795  C     0.28975   0.36248   0.98562   0.00000  Uiso   1.00
H1796  H     0.31436   0.37133   0.95963   0.00000  Uiso   1.00
H1797  H     0.30640   0.33522   0.67016   0.00000  Uiso   1.00
H1798  H     0.28931   0.38857   0.67690   0.00000  Uiso   1.00
C1799  C     0.24482   0.54733   0.96441   0.00000  Uiso   1.00
H1800  H     0.23919   0.55816   0.93037   0.00000  Uiso   1.00
O1801  O     0.28478   0.55811   0.98878   0.00000  Uiso   1.00
C1802  C     0.08439   0.45717   0.70133   0.00000  Uiso   1.00
H1803  H     0.08816   0.44635   0.73522   0.00000  Uiso   1.00
O1804  O     0.04370   0.44934   0.67655   0.00000  Uiso   1.00
C1805  C     0.50176   0.41999   0.83337   0.00000  Uiso   1.00
C1806  C     0.50145   0.57975   0.83402   0.00000  Uiso   1.00
C1807  C     0.40060   0.50020   0.82159   0.00000  Uiso   1.00
C1808  C     0.59941   0.50033   0.84510   0.00000  Uiso   1.00
C1809  C     0.34567   0.50067   0.81531   0.00000  Uiso   1.00
C1810  C     0.65438   0.50080   0.85140   0.00000  Uiso   1.00
C1811  C     0.52024   0.35293   0.79796   0.00000  Uiso   1.00
C1812  C     0.48732   0.64599   0.87133   0.00000  Uiso   1.00
C1813  C     0.52696   0.64424   0.80177   0.00000  Uiso   1.00
C1814  C     0.49645   0.35476   0.87401   0.00000  Uiso   1.00
C1815  C     0.50486   0.62377   0.83569   0.00000  Uiso   1.00
C1816  C     0.50607   0.37557   0.83474   0.00000  Uiso   1.00
C1817  C     0.53840   0.51998   0.69595   0.00000  Uiso   1.00
C1818  C     0.46183   0.47966   0.97058   0.00000  Uiso   1.00
C1819  C     0.53802   0.52124   0.98163   0.00000  Uiso   1.00
C1820  C     0.46106   0.47985   0.68477   0.00000  Uiso   1.00
H1821  H     0.65888   0.50064   0.78093   0.00000  Uiso   1.00
H1822  H     0.34117   0.50099   0.88579   0.00000  Uiso   1.00
H1823  H     0.56901   0.53564   0.71843   0.00000  Uiso   1.00
H1824  H     0.43179   0.46306   0.94800   0.00000  Uiso   1.00
N1825  N     0.49999   0.49999   0.95240   0.00000  Uiso   1.00
N1826  N     0.50001   0.50001   0.71427   0.00000  Uiso   1.00
O1827  O     0.50000   0.43892   0.87154   0.00000  Uiso   1.00
O1828  O     0.50000   0.56108   0.79513   0.00000  Uiso   1.00
O1829  O     0.50000   0.43893   0.79510   0.00000  Uiso   1.00
O1830  O     0.50000   0.56107   0.87157   0.00000  Uiso   1.00
O1831  O     0.42392   0.50000   0.86261   0.00000  Uiso   1.00
O1832  O     0.57608   0.50000   0.80405   0.00000  Uiso   1.00
O1833  O     0.42392   0.50000   0.78617   0.00000  Uiso   1.00
O1834  O     0.57608   0.50000   0.88050   0.00000  Uiso   1.00
Zn1835 Zn    0.50000   0.49999   0.88437   0.00000  Uiso   1.00
Zn1836 Zn    0.50000   0.50001   0.78229   0.00000  Uiso   1.00
O1837  O     0.52953   0.37118   0.75849   0.00000  Uiso   1.00
C1838  C     0.48248   0.37118   0.72834   0.00000  Uiso   1.00
H1839  H     0.48900   0.39207   0.70056   0.00000  Uiso   1.00
H1840  H     0.45028   0.38373   0.74488   0.00000  Uiso   1.00
C1841  C     0.46464   0.66154   0.70836   0.00000  Uiso   1.00
H1842  H     0.49687   0.64432   0.69705   0.00000  Uiso   1.00
H1843  H     0.44849   0.64267   0.73385   0.00000  Uiso   1.00
C1844  C     0.42286   0.66607   0.66861   0.00000  Uiso   1.00
H1845  H     0.39206   0.35253   0.67848   0.00000  Uiso   1.00
H1846  H     0.40609   0.63527   0.99018   0.00000  Uiso   1.00
H1847  H     0.44065   0.34798   0.97491   0.00000  Uiso   1.00
O1848  O     0.46863   0.62724   0.90737   0.00000  Uiso   1.00
C1849  C     0.41690   0.61185   0.89485   0.00000  Uiso   1.00
H1850  H     0.40831   0.59084   0.92194   0.00000  Uiso   1.00
H1851  H     0.41199   0.59253   0.86338   0.00000  Uiso   1.00
C1852  C     0.37681   0.64620   0.88973   0.00000  Uiso   1.00
H1853  H     0.38846   0.33941   0.91284   0.00000  Uiso   1.00
H1854  H     0.37432   0.65868   0.85548   0.00000  Uiso   1.00
C1855  C     0.65682   0.62972   0.89814   0.00000  Uiso   1.00
H1856  H     0.64781   0.59899   0.88150   0.00000  Uiso   1.00
H1857  H     0.62640   0.65167   0.88519   0.00000  Uiso   1.00
H1858  H     0.65652   0.62591   0.93483   0.00000  Uiso   1.00
O1859  O     0.54520   0.62286   0.76685   0.00000  Uiso   1.00
C1860  C     0.59859   0.61513   0.77795   0.00000  Uiso   1.00
H1861  H     0.60819   0.59083   0.75418   0.00000  Uiso   1.00
H1862  H     0.60761   0.60221   0.81202   0.00000  Uiso   1.00
C1863  C     0.63235   0.65367   0.77243   0.00000  Uiso   1.00
H1864  H     0.61470   0.33784   0.74301   0.00000  Uiso   1.00
H1865  H     0.63415   0.34078   0.80285   0.00000  Uiso   1.00
C1866  C     0.35378   0.64217   0.76489   0.00000  Uiso   1.00
H1867  H     0.37052   0.61985   0.79018   0.00000  Uiso   1.00
H1868  H     0.37895   0.33723   0.76751   0.00000  Uiso   1.00
H1869  H     0.35282   0.62767   0.73086   0.00000  Uiso   1.00
O1870  O     0.49306   0.37499   0.91468   0.00000  Uiso   1.00
C1871  C     0.54391   0.38617   0.93614   0.00000  Uiso   1.00
H1872  H     0.54060   0.41293   0.95930   0.00000  Uiso   1.00
H1873  H     0.57060   0.39651   0.91211   0.00000  Uiso   1.00
C1874  C     0.56821   0.35086   0.96382   0.00000  Uiso   1.00
H1875  H     0.54469   0.34405   0.99063   0.00000  Uiso   1.00
H1876  H     0.56908   0.65597   0.94239   0.00000  Uiso   1.00
C1877  C     0.62308   0.36248   0.98562   0.00000  Uiso   1.00
H1878  H     0.64769   0.37133   0.95963   0.00000  Uiso   1.00
H1879  H     0.63973   0.33522   0.67016   0.00000  Uiso   1.00
H1880  H     0.62264   0.38857   0.67690   0.00000  Uiso   1.00
C1881  C     0.57816   0.54733   0.96441   0.00000  Uiso   1.00
H1882  H     0.57253   0.55816   0.93037   0.00000  Uiso   1.00
O1883  O     0.61812   0.55811   0.98878   0.00000  Uiso   1.00
C1884  C     0.41773   0.45717   0.70133   0.00000  Uiso   1.00
H1885  H     0.42150   0.44635   0.73522   0.00000  Uiso   1.00
O1886  O     0.37704   0.44934   0.67655   0.00000  Uiso   1.00
C1887  C     0.83510   0.41999   0.83337   0.00000  Uiso   1.00
C1888  C     0.83479   0.57975   0.83402   0.00000  Uiso   1.00
C1889  C     0.73394   0.50020   0.82159   0.00000  Uiso   1.00
C1890  C     0.93275   0.50033   0.84510   0.00000  Uiso   1.00
C1891  C     0.67900   0.50067   0.81531   0.00000  Uiso   1.00
C1892  C     0.98771   0.50080   0.85140   0.00000  Uiso   1.00
C1893  C     0.85358   0.35293   0.79796   0.00000  Uiso   1.00
C1894  C     0.82066   0.64599   0.87133   0.00000  Uiso   1.00
C1895  C     0.86029   0.64424   0.80177   0.00000  Uiso   1.00
C1896  C     0.82979   0.35476   0.87401   0.00000  Uiso   1.00
C1897  C     0.83820   0.62377   0.83569   0.00000  Uiso   1.00
C1898  C     0.83941   0.37557   0.83474   0.00000  Uiso   1.00
C1899  C     0.87173   0.51998   0.69595   0.00000  Uiso   1.00
C1900  C     0.79516   0.47966   0.97058   0.00000  Uiso   1.00
C1901  C     0.87136   0.52124   0.98163   0.00000  Uiso   1.00
C1902  C     0.79439   0.47985   0.68477   0.00000  Uiso   1.00
H1903  H     0.99222   0.50064   0.78093   0.00000  Uiso   1.00
H1904  H     0.67450   0.50099   0.88579   0.00000  Uiso   1.00
H1905  H     0.90234   0.53564   0.71843   0.00000  Uiso   1.00
H1906  H     0.76512   0.46306   0.94800   0.00000  Uiso   1.00
N1907  N     0.83332   0.49999   0.95240   0.00000  Uiso   1.00
N1908  N     0.83335   0.50001   0.71427   0.00000  Uiso   1.00
O1909  O     0.83333   0.43892   0.87154   0.00000  Uiso   1.00
O1910  O     0.83334   0.56108   0.79513   0.00000  Uiso   1.00
O1911  O     0.83333   0.43893   0.79510   0.00000  Uiso   1.00
O1912  O     0.83334   0.56107   0.87157   0.00000  Uiso   1.00
O1913  O     0.75725   0.50000   0.86261   0.00000  Uiso   1.00
O1914  O     0.90942   0.50000   0.80405   0.00000  Uiso   1.00
O1915  O     0.75725   0.50000   0.78617   0.00000  Uiso   1.00
O1916  O     0.90942   0.50000   0.88050   0.00000  Uiso   1.00
Zn1917 Zn    0.83333   0.49999   0.88437   0.00000  Uiso   1.00
Zn1918 Zn    0.83333   0.50001   0.78229   0.00000  Uiso   1.00
O1919  O     0.86286   0.37118   0.75849   0.00000  Uiso   1.00
C1920  C     0.81581   0.37118   0.72834   0.00000  Uiso   1.00
H1921  H     0.82233   0.39207   0.70056   0.00000  Uiso   1.00
H1922  H     0.78361   0.38373   0.74488   0.00000  Uiso   1.00
C1923  C     0.79797   0.66154   0.70836   0.00000  Uiso   1.00
H1924  H     0.83020   0.64432   0.69705   0.00000  Uiso   1.00
H1925  H     0.78183   0.64267   0.73385   0.00000  Uiso   1.00
C1926  C     0.75620   0.66607   0.66861   0.00000  Uiso   1.00
H1927  H     0.72540   0.35253   0.67848   0.00000  Uiso   1.00
H1928  H     0.73942   0.63527   0.99018   0.00000  Uiso   1.00
H1929  H     0.77398   0.34798   0.97491   0.00000  Uiso   1.00
O1930  O     0.80197   0.62724   0.90737   0.00000  Uiso   1.00
C1931  C     0.75024   0.61185   0.89485   0.00000  Uiso   1.00
H1932  H     0.74164   0.59084   0.92194   0.00000  Uiso   1.00
H1933  H     0.74532   0.59253   0.86338   0.00000  Uiso   1.00
C1934  C     0.71014   0.64620   0.88973   0.00000  Uiso   1.00
H1935  H     0.72179   0.33941   0.91284   0.00000  Uiso   1.00
H1936  H     0.70765   0.65868   0.85548   0.00000  Uiso   1.00
C1937  C     0.99016   0.62972   0.89814   0.00000  Uiso   1.00
H1938  H     0.98114   0.59899   0.88150   0.00000  Uiso   1.00
H1939  H     0.95973   0.65167   0.88519   0.00000  Uiso   1.00
H1940  H     0.98985   0.62591   0.93483   0.00000  Uiso   1.00
O1941  O     0.87854   0.62286   0.76685   0.00000  Uiso   1.00
C1942  C     0.93192   0.61513   0.77795   0.00000  Uiso   1.00
H1943  H     0.94152   0.59083   0.75418   0.00000  Uiso   1.00
H1944  H     0.94095   0.60221   0.81202   0.00000  Uiso   1.00
C1945  C     0.96569   0.65367   0.77243   0.00000  Uiso   1.00
H1946  H     0.94803   0.33784   0.74301   0.00000  Uiso   1.00
H1947  H     0.96749   0.34078   0.80285   0.00000  Uiso   1.00
C1948  C     0.68711   0.64217   0.76489   0.00000  Uiso   1.00
H1949  H     0.70386   0.61985   0.79018   0.00000  Uiso   1.00
H1950  H     0.71228   0.33723   0.76751   0.00000  Uiso   1.00
H1951  H     0.68615   0.62767   0.73086   0.00000  Uiso   1.00
O1952  O     0.82639   0.37499   0.91468   0.00000  Uiso   1.00
C1953  C     0.87724   0.38617   0.93614   0.00000  Uiso   1.00
H1954  H     0.87393   0.41293   0.95930   0.00000  Uiso   1.00
H1955  H     0.90394   0.39651   0.91211   0.00000  Uiso   1.00
C1956  C     0.90154   0.35086   0.96382   0.00000  Uiso   1.00
H1957  H     0.87802   0.34405   0.99063   0.00000  Uiso   1.00
H1958  H     0.90241   0.65597   0.94239   0.00000  Uiso   1.00
C1959  C     0.95641   0.36248   0.98562   0.00000  Uiso   1.00
H1960  H     0.98102   0.37133   0.95963   0.00000  Uiso   1.00
H1961  H     0.97306   0.33522   0.67016   0.00000  Uiso   1.00
H1962  H     0.95597   0.38857   0.67690   0.00000  Uiso   1.00
C1963  C     0.91149   0.54733   0.96441   0.00000  Uiso   1.00
H1964  H     0.90586   0.55816   0.93037   0.00000  Uiso   1.00
O1965  O     0.95145   0.55811   0.98878   0.00000  Uiso   1.00
C1966  C     0.75106   0.45717   0.70133   0.00000  Uiso   1.00
H1967  H     0.75483   0.44635   0.73522   0.00000  Uiso   1.00
O1968  O     0.71037   0.44934   0.67655   0.00000  Uiso   1.00
C1969  C     0.16843   0.75332   0.83337   0.00000  Uiso   1.00
C1970  C     0.16812   0.91308   0.83402   0.00000  Uiso   1.00
C1971  C     0.06727   0.83354   0.82159   0.00000  Uiso   1.00
C1972  C     0.26608   0.83367   0.84510   0.00000  Uiso   1.00
C1973  C     0.01233   0.83401   0.81531   0.00000  Uiso   1.00
C1974  C     0.32105   0.83414   0.85140   0.00000  Uiso   1.00
C1975  C     0.18691   0.68627   0.79796   0.00000  Uiso   1.00
C1976  C     0.15399   0.97932   0.87133   0.00000  Uiso   1.00
C1977  C     0.19362   0.97758   0.80177   0.00000  Uiso   1.00
C1978  C     0.16312   0.68809   0.87401   0.00000  Uiso   1.00
C1979  C     0.17153   0.95711   0.83569   0.00000  Uiso   1.00
C1980  C     0.17274   0.70890   0.83474   0.00000  Uiso   1.00
C1981  C     0.20507   0.85332   0.69595   0.00000  Uiso   1.00
C1982  C     0.12850   0.81299   0.97058   0.00000  Uiso   1.00
C1983  C     0.20469   0.85457   0.98163   0.00000  Uiso   1.00
C1984  C     0.12772   0.81318   0.68477   0.00000  Uiso   1.00
H1985  H     0.32555   0.83398   0.78093   0.00000  Uiso   1.00
H1986  H     0.00784   0.83432   0.88579   0.00000  Uiso   1.00
H1987  H     0.23567   0.86897   0.71843   0.00000  Uiso   1.00
H1988  H     0.09845   0.79640   0.94800   0.00000  Uiso   1.00
N1989  N     0.16665   0.83332   0.95240   0.00000  Uiso   1.00
N1990  N     0.16668   0.83334   0.71427   0.00000  Uiso   1.00
O1991  O     0.16666   0.77225   0.87154   0.00000  Uiso   1.00
O1992  O     0.16667   0.89442   0.79513   0.00000  Uiso   1.00
O1993  O     0.16666   0.77226   0.79510   0.00000  Uiso   1.00
O1994  O     0.16667   0.89441   0.87157   0.00000  Uiso   1.00
O1995  O     0.09058   0.83333   0.86261   0.00000  Uiso   1.00
O1996  O     0.24275   0.83334   0.80405   0.00000  Uiso   1.00
O1997  O     0.09058   0.83334   0.78617   0.00000  Uiso   1.00
O1998  O     0.24275   0.83333   0.88050   0.00000  Uiso   1.00
Zn1999 Zn    0.16667   0.83333   0.88437   0.00000  Uiso   1.00
Zn2000 Zn    0.16667   0.83334   0.78229   0.00000  Uiso   1.00
O2001  O     0.19619   0.70452   0.75849   0.00000  Uiso   1.00
C2002  C     0.14914   0.70451   0.72834   0.00000  Uiso   1.00
H2003  H     0.15566   0.72540   0.70056   0.00000  Uiso   1.00
H2004  H     0.11694   0.71707   0.74488   0.00000  Uiso   1.00
C2005  C     0.13131   0.99487   0.70836   0.00000  Uiso   1.00
H2006  H     0.16353   0.97765   0.69705   0.00000  Uiso   1.00
H2007  H     0.11516   0.97600   0.73385   0.00000  Uiso   1.00
C2008  C     0.08953   0.99941   0.66861   0.00000  Uiso   1.00
H2009  H     0.05873   0.68587   0.67848   0.00000  Uiso   1.00
H2010  H     0.07275   0.96860   0.99018   0.00000  Uiso   1.00
H2011  H     0.10731   0.68131   0.97491   0.00000  Uiso   1.00
O2012  O     0.13530   0.96057   0.90737   0.00000  Uiso   1.00
C2013  C     0.08357   0.94519   0.89485   0.00000  Uiso   1.00
H2014  H     0.07498   0.92418   0.92194   0.00000  Uiso   1.00
H2015  H     0.07866   0.92586   0.86338   0.00000  Uiso   1.00
C2016  C     0.04348   0.97953   0.88973   0.00000  Uiso   1.00
H2017  H     0.05512   0.67275   0.91284   0.00000  Uiso   1.00
H2018  H     0.04099   0.99202   0.85548   0.00000  Uiso   1.00
C2019  C     0.32349   0.96305   0.89814   0.00000  Uiso   1.00
H2020  H     0.31447   0.93232   0.88150   0.00000  Uiso   1.00
H2021  H     0.29307   0.98500   0.88519   0.00000  Uiso   1.00
H2022  H     0.32319   0.95924   0.93483   0.00000  Uiso   1.00
O2023  O     0.21187   0.95619   0.76685   0.00000  Uiso   1.00
C2024  C     0.26525   0.94846   0.77795   0.00000  Uiso   1.00
H2025  H     0.27485   0.92416   0.75418   0.00000  Uiso   1.00
H2026  H     0.27428   0.93554   0.81202   0.00000  Uiso   1.00
C2027  C     0.29902   0.98700   0.77243   0.00000  Uiso   1.00
H2028  H     0.28136   0.67117   0.74301   0.00000  Uiso   1.00
H2029  H     0.30082   0.67411   0.80285   0.00000  Uiso   1.00
C2030  C     0.02044   0.97550   0.76489   0.00000  Uiso   1.00
H2031  H     0.03719   0.95318   0.79018   0.00000  Uiso   1.00
H2032  H     0.04561   0.67057   0.76751   0.00000  Uiso   1.00
H2033  H     0.01949   0.96101   0.73086   0.00000  Uiso   1.00
O2034  O     0.15973   0.70832   0.91468   0.00000  Uiso   1.00
C2035  C     0.21057   0.71951   0.93614   0.00000  Uiso   1.00
H2036  H     0.20727   0.74626   0.95930   0.00000  Uiso   1.00
H2037  H     0.23727   0.72985   0.91211   0.00000  Uiso   1.00
C2038  C     0.23487   0.68420   0.96382   0.00000  Uiso   1.00
H2039  H     0.21135   0.67738   0.99063   0.00000  Uiso   1.00
H2040  H     0.23575   0.98931   0.94239   0.00000  Uiso   1.00
C2041  C     0.28975   0.69582   0.98562   0.00000  Uiso   1.00
H2042  H     0.31436   0.70466   0.95963   0.00000  Uiso   1.00
H2043  H     0.30640   0.66855   0.67016   0.00000  Uiso   1.00
H2044  H     0.28931   0.72190   0.67690   0.00000  Uiso   1.00
C2045  C     0.24482   0.88067   0.96441   0.00000  Uiso   1.00
H2046  H     0.23919   0.89150   0.93037   0.00000  Uiso   1.00
O2047  O     0.28478   0.89145   0.98878   0.00000  Uiso   1.00
C2048  C     0.08439   0.79050   0.70133   0.00000  Uiso   1.00
H2049  H     0.08816   0.77968   0.73522   0.00000  Uiso   1.00
O2050  O     0.04370   0.78267   0.67655   0.00000  Uiso   1.00
C2051  C     0.50176   0.75332   0.83337   0.00000  Uiso   1.00
C2052  C     0.50145   0.91308   0.83402   0.00000  Uiso   1.00
C2053  C     0.40060   0.83354   0.82159   0.00000  Uiso   1.00
C2054  C     0.59941   0.83367   0.84510   0.00000  Uiso   1.00
C2055  C     0.34567   0.83401   0.81531   0.00000  Uiso   1.00
C2056  C     0.65438   0.83414   0.85140   0.00000  Uiso   1.00
C2057  C     0.52024   0.68627   0.79796   0.00000  Uiso   1.00
C2058  C     0.48732   0.97932   0.87133   0.00000  Uiso   1.00
C2059  C     0.52696   0.97758   0.80177   0.00000  Uiso   1.00
C2060  C     0.49645   0.68809   0.87401   0.00000  Uiso   1.00
C2061  C     0.50486   0.95711   0.83569   0.00000  Uiso   1.00
C2062  C     0.50607   0.70890   0.83474   0.00000  Uiso   1.00
C2063  C     0.53840   0.85332   0.69595   0.00000  Uiso   1.00
C2064  C     0.46183   0.81299   0.97058   0.00000  Uiso   1.00
C2065  C     0.53802   0.85457   0.98163   0.00000  Uiso   1.00
C2066  C     0.46106   0.81318   0.68477   0.00000  Uiso   1.00
H2067  H     0.65888   0.83398   0.78093   0.00000  Uiso   1.00
H2068  H     0.34117   0.83432   0.88579   0.00000  Uiso   1.00
H2069  H     0.56901   0.86897   0.71843   0.00000  Uiso   1.00
H2070  H     0.43179   0.79640   0.94800   0.00000  Uiso   1.00
N2071  N     0.49999   0.83332   0.95240   0.00000  Uiso   1.00
N2072  N     0.50001   0.83334   0.71427   0.00000  Uiso   1.00
O2073  O     0.50000   0.77225   0.87154   0.00000  Uiso   1.00
O2074  O     0.50000   0.89442   0.79513   0.00000  Uiso   1.00
O2075  O     0.50000   0.77226   0.79510   0.00000  Uiso   1.00
O2076  O     0.50000   0.89441   0.87157   0.00000  Uiso   1.00
O2077  O     0.42392   0.83333   0.86261   0.00000  Uiso   1.00
O2078  O     0.57608   0.83334   0.80405   0.00000  Uiso   1.00
O2079  O     0.42392   0.83334   0.78617   0.00000  Uiso   1.00
O2080  O     0.57608   0.83333   0.88050   0.00000  Uiso   1.00
Zn2081 Zn    0.50000   0.83333   0.88437   0.00000  Uiso   1.00
Zn2082 Zn    0.50000   0.83334   0.78229   0.00000  Uiso   1.00
O2083  O     0.52953   0.70452   0.75849   0.00000  Uiso   1.00
C2084  C     0.48248   0.70451   0.72834   0.00000  Uiso   1.00
H2085  H     0.48900   0.72540   0.70056   0.00000  Uiso   1.00
H2086  H     0.45028   0.71707   0.74488   0.00000  Uiso   1.00
C2087  C     0.46464   0.99487   0.70836   0.00000  Uiso   1.00
H2088  H     0.49687   0.97765   0.69705   0.00000  Uiso   1.00
H2089  H     0.44849   0.97600   0.73385   0.00000  Uiso   1.00
C2090  C     0.42286   0.99941   0.66861   0.00000  Uiso   1.00
H2091  H     0.39206   0.68587   0.67848   0.00000  Uiso   1.00
H2092  H     0.40609   0.96860   0.99018   0.00000  Uiso   1.00
H2093  H     0.44065   0.68131   0.97491   0.00000  Uiso   1.00
O2094  O     0.46863   0.96057   0.90737   0.00000  Uiso   1.00
C2095  C     0.41690   0.94519   0.89485   0.00000  Uiso   1.00
H2096  H     0.40831   0.92418   0.92194   0.00000  Uiso   1.00
H2097  H     0.41199   0.92586   0.86338   0.00000  Uiso   1.00
C2098  C     0.37681   0.97953   0.88973   0.00000  Uiso   1.00
H2099  H     0.38846   0.67275   0.91284   0.00000  Uiso   1.00
H2100  H     0.37432   0.99202   0.85548   0.00000  Uiso   1.00
C2101  C     0.65682   0.96305   0.89814   0.00000  Uiso   1.00
H2102  H     0.64781   0.93232   0.88150   0.00000  Uiso   1.00
H2103  H     0.62640   0.98500   0.88519   0.00000  Uiso   1.00
H2104  H     0.65652   0.95924   0.93483   0.00000  Uiso   1.00
O2105  O     0.54520   0.95619   0.76685   0.00000  Uiso   1.00
C2106  C     0.59859   0.94846   0.77795   0.00000  Uiso   1.00
H2107  H     0.60819   0.92416   0.75418   0.00000  Uiso   1.00
H2108  H     0.60761   0.93554   0.81202   0.00000  Uiso   1.00
C2109  C     0.63235   0.98700   0.77243   0.00000  Uiso   1.00
H2110  H     0.61470   0.67117   0.74301   0.00000  Uiso   1.00
H2111  H     0.63415   0.67411   0.80285   0.00000  Uiso   1.00
C2112  C     0.35378   0.97550   0.76489   0.00000  Uiso   1.00
H2113  H     0.37052   0.95318   0.79018   0.00000  Uiso   1.00
H2114  H     0.37895   0.67057   0.76751   0.00000  Uiso   1.00
H2115  H     0.35282   0.96101   0.73086   0.00000  Uiso   1.00
O2116  O     0.49306   0.70832   0.91468   0.00000  Uiso   1.00
C2117  C     0.54391   0.71951   0.93614   0.00000  Uiso   1.00
H2118  H     0.54060   0.74626   0.95930   0.00000  Uiso   1.00
H2119  H     0.57060   0.72985   0.91211   0.00000  Uiso   1.00
C2120  C     0.56821   0.68420   0.96382   0.00000  Uiso   1.00
H2121  H     0.54469   0.67738   0.99063   0.00000  Uiso   1.00
H2122  H     0.56908   0.98931   0.94239   0.00000  Uiso   1.00
C2123  C     0.62308   0.69582   0.98562   0.00000  Uiso   1.00
H2124  H     0.64769   0.70466   0.95963   0.00000  Uiso   1.00
H2125  H     0.63973   0.66855   0.67016   0.00000  Uiso   1.00
H2126  H     0.62264   0.72190   0.67690   0.00000  Uiso   1.00
C2127  C     0.57816   0.88067   0.96441   0.00000  Uiso   1.00
H2128  H     0.57253   0.89150   0.93037   0.00000  Uiso   1.00
O2129  O     0.61812   0.89145   0.98878   0.00000  Uiso   1.00
C2130  C     0.41773   0.79050   0.70133   0.00000  Uiso   1.00
H2131  H     0.42150   0.77968   0.73522   0.00000  Uiso   1.00
O2132  O     0.37704   0.78267   0.67655   0.00000  Uiso   1.00
C2133  C     0.83510   0.75332   0.83337   0.00000  Uiso   1.00
C2134  C     0.83479   0.91308   0.83402   0.00000  Uiso   1.00
C2135  C     0.73394   0.83354   0.82159   0.00000  Uiso   1.00
C2136  C     0.93275   0.83367   0.84510   0.00000  Uiso   1.00
C2137  C     0.67900   0.83401   0.81531   0.00000  Uiso   1.00
C2138  C     0.98771   0.83414   0.85140   0.00000  Uiso   1.00
C2139  C     0.85358   0.68627   0.79796   0.00000  Uiso   1.00
C2140  C     0.82066   0.97932   0.87133   0.00000  Uiso   1.00
C2141  C     0.86029   0.97758   0.80177   0.00000  Uiso   1.00
C2142  C     0.82979   0.68809   0.87401   0.00000  Uiso   1.00
C2143  C     0.83820   0.95711   0.83569   0.00000  Uiso   1.00
C2144  C     0.83941   0.70890   0.83474   0.00000  Uiso   1.00
C2145  C     0.87173   0.85332   0.69595   0.00000  Uiso   1.00
C2146  C     0.79516   0.81299   0.97058   0.00000  Uiso   1.00
C2147  C     0.87136   0.85457   0.98163   0.00000  Uiso   1.00
C2148  C     0.79439   0.81318   0.68477   0.00000  Uiso   1.00
H2149  H     0.99222   0.83398   0.78093   0.00000  Uiso   1.00
H2150  H     0.67450   0.83432   0.88579   0.00000  Uiso   1.00
H2151  H     0.90234   0.86897   0.71843   0.00000  Uiso   1.00
H2152  H     0.76512   0.79640   0.94800   0.00000  Uiso   1.00
N2153  N     0.83332   0.83332   0.95240   0.00000  Uiso   1.00
N2154  N     0.83335   0.83334   0.71427   0.00000  Uiso   1.00
O2155  O     0.83333   0.77225   0.87154   0.00000  Uiso   1.00
O2156  O     0.83334   0.89442   0.79513   0.00000  Uiso   1.00
O2157  O     0.83333   0.77226   0.79510   0.00000  Uiso   1.00
O2158  O     0.83334   0.89441   0.87157   0.00000  Uiso   1.00
O2159  O     0.75725   0.83333   0.86261   0.00000  Uiso   1.00
O2160  O     0.90942   0.83334   0.80405   0.00000  Uiso   1.00
O2161  O     0.75725   0.83334   0.78617   0.00000  Uiso   1.00
O2162  O     0.90942   0.83333   0.88050   0.00000  Uiso   1.00
Zn2163 Zn    0.83333   0.83333   0.88437   0.00000  Uiso   1.00
Zn2164 Zn    0.83333   0.83334   0.78229   0.00000  Uiso   1.00
O2165  O     0.86286   0.70452   0.75849   0.00000  Uiso   1.00
C2166  C     0.81581   0.70451   0.72834   0.00000  Uiso   1.00
H2167  H     0.82233   0.72540   0.70056   0.00000  Uiso   1.00
H2168  H     0.78361   0.71707   0.74488   0.00000  Uiso   1.00
C2169  C     0.79797   0.99487   0.70836   0.00000  Uiso   1.00
H2170  H     0.83020   0.97765   0.69705   0.00000  Uiso   1.00
H2171  H     0.78183   0.97600   0.73385   0.00000  Uiso   1.00
C2172  C     0.75620   0.99941   0.66861   0.00000  Uiso   1.00
H2173  H     0.72540   0.68587   0.67848   0.00000  Uiso   1.00
H2174  H     0.73942   0.96860   0.99018   0.00000  Uiso   1.00
H2175  H     0.77398   0.68131   0.97491   0.00000  Uiso   1.00
O2176  O     0.80197   0.96057   0.90737   0.00000  Uiso   1.00
C2177  C     0.75024   0.94519   0.89485   0.00000  Uiso   1.00
H2178  H     0.74164   0.92418   0.92194   0.00000  Uiso   1.00
H2179  H     0.74532   0.92586   0.86338   0.00000  Uiso   1.00
C2180  C     0.71014   0.97953   0.88973   0.00000  Uiso   1.00
H2181  H     0.72179   0.67275   0.91284   0.00000  Uiso   1.00
H2182  H     0.70765   0.99202   0.85548   0.00000  Uiso   1.00
C2183  C     0.99016   0.96305   0.89814   0.00000  Uiso   1.00
H2184  H     0.98114   0.93232   0.88150   0.00000  Uiso   1.00
H2185  H     0.95973   0.98500   0.88519   0.00000  Uiso   1.00
H2186  H     0.98985   0.95924   0.93483   0.00000  Uiso   1.00
O2187  O     0.87854   0.95619   0.76685   0.00000  Uiso   1.00
C2188  C     0.93192   0.94846   0.77795   0.00000  Uiso   1.00
H2189  H     0.94152   0.92416   0.75418   0.00000  Uiso   1.00
H2190  H     0.94095   0.93554   0.81202   0.00000  Uiso   1.00
C2191  C     0.96569   0.98700   0.77243   0.00000  Uiso   1.00
H2192  H     0.94803   0.67117   0.74301   0.00000  Uiso   1.00
H2193  H     0.96749   0.67411   0.80285   0.00000  Uiso   1.00
C2194  C     0.68711   0.97550   0.76489   0.00000  Uiso   1.00
H2195  H     0.70386   0.95318   0.79018   0.00000  Uiso   1.00
H2196  H     0.71228   0.67057   0.76751   0.00000  Uiso   1.00
H2197  H     0.68615   0.96101   0.73086   0.00000  Uiso   1.00
O2198  O     0.82639   0.70832   0.91468   0.00000  Uiso   1.00
C2199  C     0.87724   0.71951   0.93614   0.00000  Uiso   1.00
H2200  H     0.87393   0.74626   0.95930   0.00000  Uiso   1.00
H2201  H     0.90394   0.72985   0.91211   0.00000  Uiso   1.00
C2202  C     0.90154   0.68420   0.96382   0.00000  Uiso   1.00
H2203  H     0.87802   0.67738   0.99063   0.00000  Uiso   1.00
H2204  H     0.90241   0.98931   0.94239   0.00000  Uiso   1.00
C2205  C     0.95641   0.69582   0.98562   0.00000  Uiso   1.00
H2206  H     0.98102   0.70466   0.95963   0.00000  Uiso   1.00
H2207  H     0.97306   0.66855   0.67016   0.00000  Uiso   1.00
H2208  H     0.95597   0.72190   0.67690   0.00000  Uiso   1.00
C2209  C     0.91149   0.88067   0.96441   0.00000  Uiso   1.00
H2210  H     0.90586   0.89150   0.93037   0.00000  Uiso   1.00
O2211  O     0.95145   0.89145   0.98878   0.00000  Uiso   1.00
C2212  C     0.75106   0.79050   0.70133   0.00000  Uiso   1.00
H2213  H     0.75483   0.77968   0.73522   0.00000  Uiso   1.00
O2214  O     0.71037   0.78267   0.67655   0.00000  Uiso   1.00
loop_
_geom_bond_atom_site_label_1
_geom_bond_atom_site_label_2
_geom_bond_distance
_geom_bond_site_symmetry_2
_ccdc_geom_bond_type
C1     O25     1.306   .     A
C1     C12     1.446   .     S
C1     O23     1.293   .     A
C2     C11     1.425   .     S
C2     O26     1.292   .     A
C2     O24     1.297   .     A
C3     O29     1.292   .     A
C3     C5      1.413   .     S
C3     O27     1.292   .     A
C4     O28     1.292   .     A
C4     C6      1.413   .     S
C4     O30     1.292   .     A
C5     C170    1.330   1_455 S
C5     H181    1.088   1_455 S
C6     C87     1.330   .     S
C6     H100    1.088   .     S
C7     O33     1.380   .     S
C7     C12     1.407   .     A
C7     C501    1.380   1_545 S
C8     O44     1.387   .     S
C8     C11     1.409   .     A
C8     C256    1.376   .     S
C9     O55     1.386   .     S
C9     C11     1.403   .     A
C9     C253    1.380   .     S
C10    O66     1.386   .     S
C10    C12     1.415   .     A
C10    C500    1.376   1_545 S
C13    H19     1.077   .     S
C13    N22     1.359   .     A
C13    C1491   1.427   1_554 S
C14    N21     1.357   .     A
C14    H20     1.083   .     S
C14    C754    1.426   .     S
C15    C77     1.479   .     S
C15    N21     1.384   .     A
C15    C751    1.427   .     S
C16    C80     1.476   .     S
C16    N22     1.387   .     A
C16    C1490   1.426   1_554 S
H17    C87     1.088   .     S
H18    C170    1.088   1_455 S
N21    Zn31    2.037   .     S
N22    Zn32    2.037   .     S
O23    Zn31    2.006   .     S
O24    Zn32    2.006   .     S
O25    Zn32    2.021   .     S
O26    Zn31    2.021   .     S
O27    Zn31    1.992   .     S
O28    Zn32    1.992   .     S
O29    Zn32    1.995   .     S
O30    Zn31    1.995   .     S
O33    C34     1.414   .     S
C34    H35     1.111   .     S
C34    H36     1.110   .     S
C34    C529    1.538   1_545 S
C37    H38     1.104   .     S
C37    C40     1.507   .     S
C37    H39     1.107   .     S
C37    C280    1.538   .     S
C40    H287    1.105   .     S
C40    H1518   1.109   1_554 S
C40    H1765   1.104   1_554 S
H41    C532    1.105   1_545 S
H42    C778    1.109   .     S
H43    C1270   1.104   1_545 S
O44    C45     1.418   .     S
C45    H47     1.111   .     S
C45    H46     1.111   .     S
C45    C48     1.537   .     S
C48    H50     1.104   .     S
C48    H295    1.102   .     S
C48    C215    1.526   1_455 S
H49    C540    1.102   1_545 S
C51    H52     1.109   .     S
C51    H54     1.109   .     S
C51    H53     1.110   .     S
C51    C130    1.526   .     S
O55    C56     1.409   .     S
C56    H57     1.106   .     S
C56    C59     1.532   .     S
C56    H58     1.107   .     S
C59    H306    1.108   .     S
C59    H307    1.110   .     S
C59    C144    1.524   .     S
H60    C551    1.108   1_545 S
H61    C551    1.110   1_545 S
C62    H63     1.109   .     S
C62    H65     1.110   .     S
C62    C223    1.524   1_455 S
C62    H310    1.109   .     S
H64    C554    1.109   1_545 S
O66    C67     1.420   .     S
C67    H68     1.111   .     S
C67    H69     1.117   .     S
C67    C70     1.523   .     S
C70    H71     1.096   .     S
C70    C73     1.517   .     S
C70    H564    1.108   1_545 S
H72    C316    1.108   .     S
C73    H74     1.111   .     S
C73    H813    1.107   .     S
C73    H814    1.111   .     S
H75    C1549   1.107   1_554 S
H76    C1549   1.111   1_554 S
C77    H78     1.076   .     S
C77    O79     1.222   .     D
C80    O82     1.222   .     D
C80    H81     1.073   .     S
C83    O107    1.306   .     A
C83    C94     1.446   .     S
C83    O105    1.293   .     A
C84    C93     1.425   .     S
C84    O108    1.292   .     A
C84    O106    1.297   .     A
C85    O111    1.292   .     A
C85    C87     1.413   .     S
C85    O109    1.292   .     A
C86    O110    1.292   .     A
C86    C88     1.413   .     S
C86    O112    1.292   .     A
C88    C169    1.330   .     S
C88    H182    1.088   .     S
C89    O115    1.380   .     S
C89    C94     1.407   .     A
C89    C583    1.380   1_545 S
C90    O126    1.387   .     S
C90    C93     1.409   .     A
C90    C338    1.376   .     S
C91    O137    1.386   .     S
C91    C93     1.403   .     A
C91    C335    1.380   .     S
C92    O148    1.386   .     S
C92    C94     1.415   .     A
C92    C582    1.376   1_545 S
C95    H101    1.077   .     S
C95    N104    1.359   .     A
C95    C1573   1.427   1_554 S
C96    N103    1.357   .     A
C96    H102    1.083   .     S
C96    C836    1.426   .     S
C97    C159    1.479   .     S
C97    N103    1.384   .     A
C97    C833    1.427   .     S
C98    C162    1.476   .     S
C98    N104    1.387   .     A
C98    C1572   1.426   1_554 S
H99    C169    1.088   .     S
N103   Zn113   2.037   .     S
N104   Zn114   2.037   .     S
O105   Zn113   2.006   .     S
O106   Zn114   2.006   .     S
O107   Zn114   2.021   .     S
O108   Zn113   2.021   .     S
O109   Zn113   1.992   .     S
O110   Zn114   1.992   .     S
O111   Zn114   1.995   .     S
O112   Zn113   1.995   .     S
O115   C116    1.414   .     S
C116   H117    1.111   .     S
C116   H118    1.110   .     S
C116   C611    1.538   1_545 S
C119   H120    1.104   .     S
C119   C122    1.507   .     S
C119   H121    1.107   .     S
C119   C362    1.538   .     S
C122   H369    1.105   .     S
C122   H1600   1.109   1_554 S
C122   H1847   1.104   1_554 S
H123   C614    1.105   1_545 S
H124   C860    1.109   .     S
H125   C1352   1.104   1_545 S
O126   C127    1.418   .     S
C127   H129    1.111   .     S
C127   H128    1.111   .     S
C127   C130    1.537   .     S
C130   H132    1.104   .     S
C130   H377    1.102   .     S
H131   C622    1.102   1_545 S
C133   H134    1.109   .     S
C133   H136    1.109   .     S
C133   H135    1.110   .     S
C133   C212    1.526   .     S
O137   C138    1.409   .     S
C138   H139    1.106   .     S
C138   C141    1.532   .     S
C138   H140    1.107   .     S
C141   H388    1.108   .     S
C141   H389    1.110   .     S
C141   C226    1.524   .     S
H142   C633    1.108   1_545 S
H143   C633    1.110   1_545 S
C144   H145    1.109   .     S
C144   H147    1.110   .     S
C144   H392    1.109   .     S
H146   C636    1.109   1_545 S
O148   C149    1.420   .     S
C149   H150    1.111   .     S
C149   H151    1.117   .     S
C149   C152    1.523   .     S
C152   H153    1.096   .     S
C152   C155    1.517   .     S
C152   H646    1.108   1_545 S
H154   C398    1.108   .     S
C155   H156    1.111   .     S
C155   H895    1.107   .     S
C155   H896    1.111   .     S
H157   C1631   1.107   1_554 S
H158   C1631   1.111   1_554 S
C159   H160    1.076   .     S
C159   O161    1.222   .     D
C162   O164    1.222   .     D
C162   H163    1.073   .     S
C165   O189    1.306   .     A
C165   C176    1.446   .     S
C165   O187    1.293   .     A
C166   C175    1.425   .     S
C166   O190    1.292   .     A
C166   O188    1.297   .     A
C167   O193    1.292   .     A
C167   C169    1.413   .     S
C167   O191    1.292   .     A
C168   O192    1.292   .     A
C168   C170    1.413   .     S
C168   O194    1.292   .     A
C170   C5      1.330   1_655 S
C170   H18     1.088   1_655 S
C171   O197    1.380   .     S
C171   C176    1.407   .     A
C171   C665    1.380   1_545 S
C172   O208    1.387   .     S
C172   C175    1.409   .     A
C172   C420    1.376   .     S
C173   O219    1.386   .     S
C173   C175    1.403   .     A
C173   C417    1.380   .     S
C174   O230    1.386   .     S
C174   C176    1.415   .     A
C174   C664    1.376   1_545 S
C177   H183    1.077   .     S
C177   N186    1.359   .     A
C177   C1655   1.427   1_554 S
C178   N185    1.357   .     A
C178   H184    1.083   .     S
C178   C918    1.426   .     S
C179   C241    1.479   .     S
C179   N185    1.384   .     A
C179   C915    1.427   .     S
C180   C244    1.476   .     S
C180   N186    1.387   .     A
C180   C1654   1.426   1_554 S
H181   C5      1.088   1_655 S
N185   Zn195   2.037   .     S
N186   Zn196   2.037   .     S
O187   Zn195   2.006   .     S
O188   Zn196   2.006   .     S
O189   Zn196   2.021   .     S
O190   Zn195   2.021   .     S
O191   Zn195   1.992   .     S
O192   Zn196   1.992   .     S
O193   Zn196   1.995   .     S
O194   Zn195   1.995   .     S
O197   C198    1.414   .     S
C198   H199    1.111   .     S
C198   H200    1.110   .     S
C198   C693    1.538   1_545 S
C201   H202    1.104   .     S
C201   C204    1.507   .     S
C201   H203    1.107   .     S
C201   C444    1.538   .     S
C204   H451    1.105   .     S
C204   H1682   1.109   1_554 S
C204   H1929   1.104   1_554 S
H205   C696    1.105   1_545 S
H206   C942    1.109   .     S
H207   C1434   1.104   1_545 S
O208   C209    1.418   .     S
C209   H211    1.111   .     S
C209   H210    1.111   .     S
C209   C212    1.537   .     S
C212   H214    1.104   .     S
C212   H459    1.102   .     S
H213   C704    1.102   1_545 S
C215   H216    1.109   .     S
C215   H218    1.109   .     S
C215   H217    1.110   .     S
C215   C48     1.526   1_655 S
O219   C220    1.409   .     S
C220   H221    1.106   .     S
C220   C223    1.532   .     S
C220   H222    1.107   .     S
C223   H470    1.108   .     S
C223   H471    1.110   .     S
C223   C62     1.524   1_655 S
H224   C715    1.108   1_545 S
H225   C715    1.110   1_545 S
C226   H227    1.109   .     S
C226   H229    1.110   .     S
C226   H474    1.109   .     S
H228   C718    1.109   1_545 S
O230   C231    1.420   .     S
C231   H232    1.111   .     S
C231   H233    1.117   .     S
C231   C234    1.523   .     S
C234   H235    1.096   .     S
C234   C237    1.517   .     S
C234   H728    1.108   1_545 S
H236   C480    1.108   .     S
C237   H238    1.111   .     S
C237   H977    1.107   .     S
C237   H978    1.111   .     S
H239   C1713   1.107   1_554 S
H240   C1713   1.111   1_554 S
C241   H242    1.076   .     S
C241   O243    1.222   .     D
C244   O246    1.222   .     D
C244   H245    1.073   .     S
C247   O271    1.306   .     A
C247   C258    1.446   .     S
C247   O269    1.293   .     A
C248   C257    1.425   .     S
C248   O272    1.292   .     A
C248   O270    1.297   .     A
C249   O275    1.292   .     A
C249   C251    1.413   .     S
C249   O273    1.292   .     A
C250   O274    1.292   .     A
C250   C252    1.413   .     S
C250   O276    1.292   .     A
C251   C416    1.330   1_455 S
C251   H427    1.088   1_455 S
C252   C333    1.330   .     S
C252   H346    1.088   .     S
C253   O279    1.380   .     S
C253   C258    1.407   .     A
C254   O290    1.387   .     S
C254   C257    1.409   .     A
C254   C502    1.376   .     S
C255   O301    1.386   .     S
C255   C257    1.403   .     A
C255   C499    1.380   .     S
C256   O312    1.386   .     S
C256   C258    1.415   .     A
C259   H265    1.077   .     S
C259   N268    1.359   .     A
C259   C1737   1.427   1_554 S
C260   N267    1.357   .     A
C260   H266    1.083   .     S
C260   C1000   1.426   .     S
C261   C323    1.479   .     S
C261   N267    1.384   .     A
C261   C997    1.427   .     S
C262   C326    1.476   .     S
C262   N268    1.387   .     A
C262   C1736   1.426   1_554 S
H263   C333    1.088   .     S
H264   C416    1.088   1_455 S
N267   Zn277   2.037   .     S
N268   Zn278   2.037   .     S
O269   Zn277   2.006   .     S
O270   Zn278   2.006   .     S
O271   Zn278   2.021   .     S
O272   Zn277   2.021   .     S
O273   Zn277   1.992   .     S
O274   Zn278   1.992   .     S
O275   Zn278   1.995   .     S
O276   Zn277   1.995   .     S
O279   C280    1.414   .     S
C280   H281    1.111   .     S
C280   H282    1.110   .     S
C283   H284    1.104   .     S
C283   C286    1.507   .     S
C283   H285    1.107   .     S
C283   C526    1.538   .     S
C286   H533    1.105   .     S
C286   H1764   1.109   1_554 S
C286   H2011   1.104   1_554 S
H288   C1024   1.109   .     S
H289   C778    1.104   .     S
O290   C291    1.418   .     S
C291   H293    1.111   .     S
C291   H292    1.111   .     S
C291   C294    1.537   .     S
C294   H296    1.104   .     S
C294   H541    1.102   .     S
C294   C461    1.526   1_455 S
C297   H298    1.109   .     S
C297   H300    1.109   .     S
C297   H299    1.110   .     S
C297   C376    1.526   .     S
O301   C302    1.409   .     S
C302   H303    1.106   .     S
C302   C305    1.532   .     S
C302   H304    1.107   .     S
C305   H552    1.108   .     S
C305   H553    1.110   .     S
C305   C390    1.524   .     S
C308   H309    1.109   .     S
C308   H311    1.110   .     S
C308   C469    1.524   1_455 S
C308   H556    1.109   .     S
O312   C313    1.420   .     S
C313   H314    1.111   .     S
C313   H315    1.117   .     S
C313   C316    1.523   .     S
C316   H317    1.096   .     S
C316   C319    1.517   .     S
H318   C562    1.108   .     S
C319   H320    1.111   .     S
C319   H1059   1.107   .     S
C319   H1060   1.111   .     S
H321   C1795   1.107   1_554 S
H322   C1795   1.111   1_554 S
C323   H324    1.076   .     S
C323   O325    1.222   .     D
C326   O328    1.222   .     D
C326   H327    1.073   .     S
C329   O353    1.306   .     A
C329   C340    1.446   .     S
C329   O351    1.293   .     A
C330   C339    1.425   .     S
C330   O354    1.292   .     A
C330   O352    1.297   .     A
C331   O357    1.292   .     A
C331   C333    1.413   .     S
C331   O355    1.292   .     A
C332   O356    1.292   .     A
C332   C334    1.413   .     S
C332   O358    1.292   .     A
C334   C415    1.330   .     S
C334   H428    1.088   .     S
C335   O361    1.380   .     S
C335   C340    1.407   .     A
C336   O372    1.387   .     S
C336   C339    1.409   .     A
C336   C584    1.376   .     S
C337   O383    1.386   .     S
C337   C339    1.403   .     A
C337   C581    1.380   .     S
C338   O394    1.386   .     S
C338   C340    1.415   .     A
C341   H347    1.077   .     S
C341   N350    1.359   .     A
C341   C1819   1.427   1_554 S
C342   N349    1.357   .     A
C342   H348    1.083   .     S
C342   C1082   1.426   .     S
C343   C405    1.479   .     S
C343   N349    1.384   .     A
C343   C1079   1.427   .     S
C344   C408    1.476   .     S
C344   N350    1.387   .     A
C344   C1818   1.426   1_554 S
H345   C415    1.088   .     S
N349   Zn359   2.037   .     S
N350   Zn360   2.037   .     S
O351   Zn359   2.006   .     S
O352   Zn360   2.006   .     S
O353   Zn360   2.021   .     S
O354   Zn359   2.021   .     S
O355   Zn359   1.992   .     S
O356   Zn360   1.992   .     S
O357   Zn360   1.995   .     S
O358   Zn359   1.995   .     S
O361   C362    1.414   .     S
C362   H363    1.111   .     S
C362   H364    1.110   .     S
C365   H366    1.104   .     S
C365   C368    1.507   .     S
C365   H367    1.107   .     S
C365   C608    1.538   .     S
C368   H615    1.105   .     S
C368   H1846   1.109   1_554 S
C368   H2093   1.104   1_554 S
H370   C1106   1.109   .     S
H371   C860    1.104   .     S
O372   C373    1.418   .     S
C373   H375    1.111   .     S
C373   H374    1.111   .     S
C373   C376    1.537   .     S
C376   H378    1.104   .     S
C376   H623    1.102   .     S
C379   H380    1.109   .     S
C379   H382    1.109   .     S
C379   H381    1.110   .     S
C379   C458    1.526   .     S
O383   C384    1.409   .     S
C384   H385    1.106   .     S
C384   C387    1.532   .     S
C384   H386    1.107   .     S
C387   H634    1.108   .     S
C387   H635    1.110   .     S
C387   C472    1.524   .     S
C390   H391    1.109   .     S
C390   H393    1.110   .     S
C390   H638    1.109   .     S
O394   C395    1.420   .     S
C395   H396    1.111   .     S
C395   H397    1.117   .     S
C395   C398    1.523   .     S
C398   H399    1.096   .     S
C398   C401    1.517   .     S
H400   C644    1.108   .     S
C401   H402    1.111   .     S
C401   H1141   1.107   .     S
C401   H1142   1.111   .     S
H403   C1877   1.107   1_554 S
H404   C1877   1.111   1_554 S
C405   H406    1.076   .     S
C405   O407    1.222   .     D
C408   O410    1.222   .     D
C408   H409    1.073   .     S
C411   O435    1.306   .     A
C411   C422    1.446   .     S
C411   O433    1.293   .     A
C412   C421    1.425   .     S
C412   O436    1.292   .     A
C412   O434    1.297   .     A
C413   O439    1.292   .     A
C413   C415    1.413   .     S
C413   O437    1.292   .     A
C414   O438    1.292   .     A
C414   C416    1.413   .     S
C414   O440    1.292   .     A
C416   C251    1.330   1_655 S
C416   H264    1.088   1_655 S
C417   O443    1.380   .     S
C417   C422    1.407   .     A
C418   O454    1.387   .     S
C418   C421    1.409   .     A
C418   C666    1.376   .     S
C419   O465    1.386   .     S
C419   C421    1.403   .     A
C419   C663    1.380   .     S
C420   O476    1.386   .     S
C420   C422    1.415   .     A
C423   H429    1.077   .     S
C423   N432    1.359   .     A
C423   C1901   1.427   1_554 S
C424   N431    1.357   .     A
C424   H430    1.083   .     S
C424   C1164   1.426   .     S
C425   C487    1.479   .     S
C425   N431    1.384   .     A
C425   C1161   1.427   .     S
C426   C490    1.476   .     S
C426   N432    1.387   .     A
C426   C1900   1.426   1_554 S
H427   C251    1.088   1_655 S
N431   Zn441   2.037   .     S
N432   Zn442   2.037   .     S
O433   Zn441   2.006   .     S
O434   Zn442   2.006   .     S
O435   Zn442   2.021   .     S
O436   Zn441   2.021   .     S
O437   Zn441   1.992   .     S
O438   Zn442   1.992   .     S
O439   Zn442   1.995   .     S
O440   Zn441   1.995   .     S
O443   C444    1.414   .     S
C444   H445    1.111   .     S
C444   H446    1.110   .     S
C447   H448    1.104   .     S
C447   C450    1.507   .     S
C447   H449    1.107   .     S
C447   C690    1.538   .     S
C450   H697    1.105   .     S
C450   H1928   1.109   1_554 S
C450   H2175   1.104   1_554 S
H452   C1188   1.109   .     S
H453   C942    1.104   .     S
O454   C455    1.418   .     S
C455   H457    1.111   .     S
C455   H456    1.111   .     S
C455   C458    1.537   .     S
C458   H460    1.104   .     S
C458   H705    1.102   .     S
C461   H462    1.109   .     S
C461   H464    1.109   .     S
C461   H463    1.110   .     S
C461   C294    1.526   1_655 S
O465   C466    1.409   .     S
C466   H467    1.106   .     S
C466   C469    1.532   .     S
C466   H468    1.107   .     S
C469   H716    1.108   .     S
C469   H717    1.110   .     S
C469   C308    1.524   1_655 S
C472   H473    1.109   .     S
C472   H475    1.110   .     S
C472   H720    1.109   .     S
O476   C477    1.420   .     S
C477   H478    1.111   .     S
C477   H479    1.117   .     S
C477   C480    1.523   .     S
C480   H481    1.096   .     S
C480   C483    1.517   .     S
H482   C726    1.108   .     S
C483   H484    1.111   .     S
C483   H1223   1.107   .     S
C483   H1224   1.111   .     S
H485   C1959   1.107   1_554 S
H486   C1959   1.111   1_554 S
C487   H488    1.076   .     S
C487   O489    1.222   .     D
C490   O492    1.222   .     D
C490   H491    1.073   .     S
C493   O517    1.306   .     A
C493   C504    1.446   .     S
C493   O515    1.293   .     A
C494   C503    1.425   .     S
C494   O518    1.292   .     A
C494   O516    1.297   .     A
C495   O521    1.292   .     A
C495   C497    1.413   .     S
C495   O519    1.292   .     A
C496   O520    1.292   .     A
C496   C498    1.413   .     S
C496   O522    1.292   .     A
C497   C662    1.330   1_455 S
C497   H673    1.088   1_455 S
C498   C579    1.330   .     S
C498   H592    1.088   .     S
C499   O525    1.380   .     S
C499   C504    1.407   .     A
C500   O536    1.387   .     S
C500   C503    1.409   .     A
C500   C10     1.376   1_565 S
C501   O547    1.386   .     S
C501   C503    1.403   .     A
C501   C7      1.380   1_565 S
C502   O558    1.386   .     S
C502   C504    1.415   .     A
C505   H511    1.077   .     S
C505   N514    1.359   .     A
C505   C1983   1.427   1_554 S
C506   N513    1.357   .     A
C506   H512    1.083   .     S
C506   C1246   1.426   .     S
C507   C569    1.479   .     S
C507   N513    1.384   .     A
C507   C1243   1.427   .     S
C508   C572    1.476   .     S
C508   N514    1.387   .     A
C508   C1982   1.426   1_554 S
H509   C579    1.088   .     S
H510   C662    1.088   1_455 S
N513   Zn523   2.037   .     S
N514   Zn524   2.037   .     S
O515   Zn523   2.006   .     S
O516   Zn524   2.006   .     S
O517   Zn524   2.021   .     S
O518   Zn523   2.021   .     S
O519   Zn523   1.992   .     S
O520   Zn524   1.992   .     S
O521   Zn524   1.995   .     S
O522   Zn523   1.995   .     S
O525   C526    1.414   .     S
C526   H527    1.111   .     S
C526   H528    1.110   .     S
C529   H530    1.104   .     S
C529   C532    1.507   .     S
C529   H531    1.107   .     S
C529   C34     1.538   1_565 S
C532   H41     1.105   1_565 S
C532   H2010   1.109   1_554 S
C532   H1519   1.104   1_564 S
H534   C1270   1.109   .     S
H535   C1024   1.104   .     S
O536   C537    1.418   .     S
C537   H539    1.111   .     S
C537   H538    1.111   .     S
C537   C540    1.537   .     S
C540   H542    1.104   .     S
C540   H49     1.102   1_565 S
C540   C707    1.526   1_455 S
C543   H544    1.109   .     S
C543   H546    1.109   .     S
C543   H545    1.110   .     S
C543   C622    1.526   .     S
O547   C548    1.409   .     S
C548   H549    1.106   .     S
C548   C551    1.532   .     S
C548   H550    1.107   .     S
C551   H60     1.108   1_565 S
C551   H61     1.110   1_565 S
C551   C636    1.524   .     S
C554   H555    1.109   .     S
C554   H557    1.110   .     S
C554   C715    1.524   1_455 S
C554   H64     1.109   1_565 S
O558   C559    1.420   .     S
C559   H560    1.111   .     S
C559   H561    1.117   .     S
C559   C562    1.523   .     S
C562   H563    1.096   .     S
C562   C565    1.517   .     S
H564   C70     1.108   1_565 S
C565   H566    1.111   .     S
C565   H1305   1.107   .     S
C565   H1306   1.111   .     S
H567   C2041   1.107   1_554 S
H568   C2041   1.111   1_554 S
C569   H570    1.076   .     S
C569   O571    1.222   .     D
C572   O574    1.222   .     D
C572   H573    1.073   .     S
C575   O599    1.306   .     A
C575   C586    1.446   .     S
C575   O597    1.293   .     A
C576   C585    1.425   .     S
C576   O600    1.292   .     A
C576   O598    1.297   .     A
C577   O603    1.292   .     A
C577   C579    1.413   .     S
C577   O601    1.292   .     A
C578   O602    1.292   .     A
C578   C580    1.413   .     S
C578   O604    1.292   .     A
C580   C661    1.330   .     S
C580   H674    1.088   .     S
C581   O607    1.380   .     S
C581   C586    1.407   .     A
C582   O618    1.387   .     S
C582   C585    1.409   .     A
C582   C92     1.376   1_565 S
C583   O629    1.386   .     S
C583   C585    1.403   .     A
C583   C89     1.380   1_565 S
C584   O640    1.386   .     S
C584   C586    1.415   .     A
C587   H593    1.077   .     S
C587   N596    1.359   .     A
C587   C2065   1.427   1_554 S
C588   N595    1.357   .     A
C588   H594    1.083   .     S
C588   C1328   1.426   .     S
C589   C651    1.479   .     S
C589   N595    1.384   .     A
C589   C1325   1.427   .     S
C590   C654    1.476   .     S
C590   N596    1.387   .     A
C590   C2064   1.426   1_554 S
H591   C661    1.088   .     S
N595   Zn605   2.037   .     S
N596   Zn606   2.037   .     S
O597   Zn605   2.006   .     S
O598   Zn606   2.006   .     S
O599   Zn606   2.021   .     S
O600   Zn605   2.021   .     S
O601   Zn605   1.992   .     S
O602   Zn606   1.992   .     S
O603   Zn606   1.995   .     S
O604   Zn605   1.995   .     S
O607   C608    1.414   .     S
C608   H609    1.111   .     S
C608   H610    1.110   .     S
C611   H612    1.104   .     S
C611   C614    1.507   .     S
C611   H613    1.107   .     S
C611   C116    1.538   1_565 S
C614   H123    1.105   1_565 S
C614   H2092   1.109   1_554 S
C614   H1601   1.104   1_564 S
H616   C1352   1.109   .     S
H617   C1106   1.104   .     S
O618   C619    1.418   .     S
C619   H621    1.111   .     S
C619   H620    1.111   .     S
C619   C622    1.537   .     S
C622   H624    1.104   .     S
C622   H131    1.102   1_565 S
C625   H626    1.109   .     S
C625   H628    1.109   .     S
C625   H627    1.110   .     S
C625   C704    1.526   .     S
O629   C630    1.409   .     S
C630   H631    1.106   .     S
C630   C633    1.532   .     S
C630   H632    1.107   .     S
C633   H142    1.108   1_565 S
C633   H143    1.110   1_565 S
C633   C718    1.524   .     S
C636   H637    1.109   .     S
C636   H639    1.110   .     S
C636   H146    1.109   1_565 S
O640   C641    1.420   .     S
C641   H642    1.111   .     S
C641   H643    1.117   .     S
C641   C644    1.523   .     S
C644   H645    1.096   .     S
C644   C647    1.517   .     S
H646   C152    1.108   1_565 S
C647   H648    1.111   .     S
C647   H1387   1.107   .     S
C647   H1388   1.111   .     S
H649   C2123   1.107   1_554 S
H650   C2123   1.111   1_554 S
C651   H652    1.076   .     S
C651   O653    1.222   .     D
C654   O656    1.222   .     D
C654   H655    1.073   .     S
C657   O681    1.306   .     A
C657   C668    1.446   .     S
C657   O679    1.293   .     A
C658   C667    1.425   .     S
C658   O682    1.292   .     A
C658   O680    1.297   .     A
C659   O685    1.292   .     A
C659   C661    1.413   .     S
C659   O683    1.292   .     A
C660   O684    1.292   .     A
C660   C662    1.413   .     S
C660   O686    1.292   .     A
C662   C497    1.330   1_655 S
C662   H510    1.088   1_655 S
C663   O689    1.380   .     S
C663   C668    1.407   .     A
C664   O700    1.387   .     S
C664   C667    1.409   .     A
C664   C174    1.376   1_565 S
C665   O711    1.386   .     S
C665   C667    1.403   .     A
C665   C171    1.380   1_565 S
C666   O722    1.386   .     S
C666   C668    1.415   .     A
C669   H675    1.077   .     S
C669   N678    1.359   .     A
C669   C2147   1.427   1_554 S
C670   N677    1.357   .     A
C670   H676    1.083   .     S
C670   C1410   1.426   .     S
C671   C733    1.479   .     S
C671   N677    1.384   .     A
C671   C1407   1.427   .     S
C672   C736    1.476   .     S
C672   N678    1.387   .     A
C672   C2146   1.426   1_554 S
H673   C497    1.088   1_655 S
N677   Zn687   2.037   .     S
N678   Zn688   2.037   .     S
O679   Zn687   2.006   .     S
O680   Zn688   2.006   .     S
O681   Zn688   2.021   .     S
O682   Zn687   2.021   .     S
O683   Zn687   1.992   .     S
O684   Zn688   1.992   .     S
O685   Zn688   1.995   .     S
O686   Zn687   1.995   .     S
O689   C690    1.414   .     S
C690   H691    1.111   .     S
C690   H692    1.110   .     S
C693   H694    1.104   .     S
C693   C696    1.507   .     S
C693   H695    1.107   .     S
C693   C198    1.538   1_565 S
C696   H205    1.105   1_565 S
C696   H2174   1.109   1_554 S
C696   H1683   1.104   1_564 S
H698   C1434   1.109   .     S
H699   C1188   1.104   .     S
O700   C701    1.418   .     S
C701   H703    1.111   .     S
C701   H702    1.111   .     S
C701   C704    1.537   .     S
C704   H706    1.104   .     S
C704   H213    1.102   1_565 S
C707   H708    1.109   .     S
C707   H710    1.109   .     S
C707   H709    1.110   .     S
C707   C540    1.526   1_655 S
O711   C712    1.409   .     S
C712   H713    1.106   .     S
C712   C715    1.532   .     S
C712   H714    1.107   .     S
C715   H224    1.108   1_565 S
C715   H225    1.110   1_565 S
C715   C554    1.524   1_655 S
C718   H719    1.109   .     S
C718   H721    1.110   .     S
C718   H228    1.109   1_565 S
O722   C723    1.420   .     S
C723   H724    1.111   .     S
C723   H725    1.117   .     S
C723   C726    1.523   .     S
C726   H727    1.096   .     S
C726   C729    1.517   .     S
H728   C234    1.108   1_565 S
C729   H730    1.111   .     S
C729   H1469   1.107   .     S
C729   H1470   1.111   .     S
H731   C2205   1.107   1_554 S
H732   C2205   1.111   1_554 S
C733   H734    1.076   .     S
C733   O735    1.222   .     D
C736   O738    1.222   .     D
C736   H737    1.073   .     S
C739   O763    1.306   .     A
C739   C750    1.446   .     S
C739   O761    1.293   .     A
C740   C749    1.425   .     S
C740   O764    1.292   .     A
C740   O762    1.297   .     A
C741   O767    1.292   .     A
C741   C743    1.413   .     S
C741   O765    1.292   .     A
C742   O766    1.292   .     A
C742   C744    1.413   .     S
C742   O768    1.292   .     A
C743   C908    1.330   1_455 S
C743   H919    1.088   1_455 S
C744   C825    1.330   .     S
C744   H838    1.088   .     S
C745   O771    1.380   .     S
C745   C750    1.407   .     A
C745   C1239   1.380   1_545 S
C746   O782    1.387   .     S
C746   C749    1.409   .     A
C746   C994    1.376   .     S
C747   O793    1.386   .     S
C747   C749    1.403   .     A
C747   C991    1.380   .     S
C748   O804    1.386   .     S
C748   C750    1.415   .     A
C748   C1238   1.376   1_545 S
C751   H757    1.077   .     S
C751   N760    1.359   .     A
C752   N759    1.357   .     A
C752   H758    1.083   .     S
C752   C1492   1.426   .     S
C753   C815    1.479   .     S
C753   N759    1.384   .     A
C753   C1489   1.427   .     S
C754   C818    1.476   .     S
C754   N760    1.387   .     A
H755   C825    1.088   .     S
H756   C908    1.088   1_455 S
N759   Zn769   2.037   .     S
N760   Zn770   2.037   .     S
O761   Zn769   2.006   .     S
O762   Zn770   2.006   .     S
O763   Zn770   2.021   .     S
O764   Zn769   2.021   .     S
O765   Zn769   1.992   .     S
O766   Zn770   1.992   .     S
O767   Zn770   1.995   .     S
O768   Zn769   1.995   .     S
O771   C772    1.414   .     S
C772   H773    1.111   .     S
C772   H774    1.110   .     S
C772   C1267   1.538   1_545 S
C775   H776    1.104   .     S
C775   C778    1.507   .     S
C775   H777    1.107   .     S
C775   C1018   1.538   .     S
C778   H1025   1.105   .     S
H779   C1270   1.105   1_545 S
H780   C1516   1.109   .     S
H781   C2008   1.104   1_545 S
O782   C783    1.418   .     S
C783   H785    1.111   .     S
C783   H784    1.111   .     S
C783   C786    1.537   .     S
C786   H788    1.104   .     S
C786   H1033   1.102   .     S
C786   C953    1.526   1_455 S
H787   C1278   1.102   1_545 S
C789   H790    1.109   .     S
C789   H792    1.109   .     S
C789   H791    1.110   .     S
C789   C868    1.526   .     S
O793   C794    1.409   .     S
C794   H795    1.106   .     S
C794   C797    1.532   .     S
C794   H796    1.107   .     S
C797   H1044   1.108   .     S
C797   H1045   1.110   .     S
C797   C882    1.524   .     S
H798   C1289   1.108   1_545 S
H799   C1289   1.110   1_545 S
C800   H801    1.109   .     S
C800   H803    1.110   .     S
C800   C961    1.524   1_455 S
C800   H1048   1.109   .     S
H802   C1292   1.109   1_545 S
O804   C805    1.420   .     S
C805   H806    1.111   .     S
C805   H807    1.117   .     S
C805   C808    1.523   .     S
C808   H809    1.096   .     S
C808   C811    1.517   .     S
C808   H1302   1.108   1_545 S
H810   C1054   1.108   .     S
C811   H812    1.111   .     S
C811   H1551   1.107   .     S
C811   H1552   1.111   .     S
C815   H816    1.076   .     S
C815   O817    1.222   .     D
C818   O820    1.222   .     D
C818   H819    1.073   .     S
C821   O845    1.306   .     A
C821   C832    1.446   .     S
C821   O843    1.293   .     A
C822   C831    1.425   .     S
C822   O846    1.292   .     A
C822   O844    1.297   .     A
C823   O849    1.292   .     A
C823   C825    1.413   .     S
C823   O847    1.292   .     A
C824   O848    1.292   .     A
C824   C826    1.413   .     S
C824   O850    1.292   .     A
C826   C907    1.330   .     S
C826   H920    1.088   .     S
C827   O853    1.380   .     S
C827   C832    1.407   .     A
C827   C1321   1.380   1_545 S
C828   O864    1.387   .     S
C828   C831    1.409   .     A
C828   C1076   1.376   .     S
C829   O875    1.386   .     S
C829   C831    1.403   .     A
C829   C1073   1.380   .     S
C830   O886    1.386   .     S
C830   C832    1.415   .     A
C830   C1320   1.376   1_545 S
C833   H839    1.077   .     S
C833   N842    1.359   .     A
C834   N841    1.357   .     A
C834   H840    1.083   .     S
C834   C1574   1.426   .     S
C835   C897    1.479   .     S
C835   N841    1.384   .     A
C835   C1571   1.427   .     S
C836   C900    1.476   .     S
C836   N842    1.387   .     A
H837   C907    1.088   .     S
N841   Zn851   2.037   .     S
N842   Zn852   2.037   .     S
O843   Zn851   2.006   .     S
O844   Zn852   2.006   .     S
O845   Zn852   2.021   .     S
O846   Zn851   2.021   .     S
O847   Zn851   1.992   .     S
O848   Zn852   1.992   .     S
O849   Zn852   1.995   .     S
O850   Zn851   1.995   .     S
O853   C854    1.414   .     S
C854   H855    1.111   .     S
C854   H856    1.110   .     S
C854   C1349   1.538   1_545 S
C857   H858    1.104   .     S
C857   C860    1.507   .     S
C857   H859    1.107   .     S
C857   C1100   1.538   .     S
C860   H1107   1.105   .     S
H861   C1352   1.105   1_545 S
H862   C1598   1.109   .     S
H863   C2090   1.104   1_545 S
O864   C865    1.418   .     S
C865   H867    1.111   .     S
C865   H866    1.111   .     S
C865   C868    1.537   .     S
C868   H870    1.104   .     S
C868   H1115   1.102   .     S
H869   C1360   1.102   1_545 S
C871   H872    1.109   .     S
C871   H874    1.109   .     S
C871   H873    1.110   .     S
C871   C950    1.526   .     S
O875   C876    1.409   .     S
C876   H877    1.106   .     S
C876   C879    1.532   .     S
C876   H878    1.107   .     S
C879   H1126   1.108   .     S
C879   H1127   1.110   .     S
C879   C964    1.524   .     S
H880   C1371   1.108   1_545 S
H881   C1371   1.110   1_545 S
C882   H883    1.109   .     S
C882   H885    1.110   .     S
C882   H1130   1.109   .     S
H884   C1374   1.109   1_545 S
O886   C887    1.420   .     S
C887   H888    1.111   .     S
C887   H889    1.117   .     S
C887   C890    1.523   .     S
C890   H891    1.096   .     S
C890   C893    1.517   .     S
C890   H1384   1.108   1_545 S
H892   C1136   1.108   .     S
C893   H894    1.111   .     S
C893   H1633   1.107   .     S
C893   H1634   1.111   .     S
C897   H898    1.076   .     S
C897   O899    1.222   .     D
C900   O902    1.222   .     D
C900   H901    1.073   .     S
C903   O927    1.306   .     A
C903   C914    1.446   .     S
C903   O925    1.293   .     A
C904   C913    1.425   .     S
C904   O928    1.292   .     A
C904   O926    1.297   .     A
C905   O931    1.292   .     A
C905   C907    1.413   .     S
C905   O929    1.292   .     A
C906   O930    1.292   .     A
C906   C908    1.413   .     S
C906   O932    1.292   .     A
C908   C743    1.330   1_655 S
C908   H756    1.088   1_655 S
C909   O935    1.380   .     S
C909   C914    1.407   .     A
C909   C1403   1.380   1_545 S
C910   O946    1.387   .     S
C910   C913    1.409   .     A
C910   C1158   1.376   .     S
C911   O957    1.386   .     S
C911   C913    1.403   .     A
C911   C1155   1.380   .     S
C912   O968    1.386   .     S
C912   C914    1.415   .     A
C912   C1402   1.376   1_545 S
C915   H921    1.077   .     S
C915   N924    1.359   .     A
C916   N923    1.357   .     A
C916   H922    1.083   .     S
C916   C1656   1.426   .     S
C917   C979    1.479   .     S
C917   N923    1.384   .     A
C917   C1653   1.427   .     S
C918   C982    1.476   .     S
C918   N924    1.387   .     A
H919   C743    1.088   1_655 S
N923   Zn933   2.037   .     S
N924   Zn934   2.037   .     S
O925   Zn933   2.006   .     S
O926   Zn934   2.006   .     S
O927   Zn934   2.021   .     S
O928   Zn933   2.021   .     S
O929   Zn933   1.992   .     S
O930   Zn934   1.992   .     S
O931   Zn934   1.995   .     S
O932   Zn933   1.995   .     S
O935   C936    1.414   .     S
C936   H937    1.111   .     S
C936   H938    1.110   .     S
C936   C1431   1.538   1_545 S
C939   H940    1.104   .     S
C939   C942    1.507   .     S
C939   H941    1.107   .     S
C939   C1182   1.538   .     S
C942   H1189   1.105   .     S
H943   C1434   1.105   1_545 S
H944   C1680   1.109   .     S
H945   C2172   1.104   1_545 S
O946   C947    1.418   .     S
C947   H949    1.111   .     S
C947   H948    1.111   .     S
C947   C950    1.537   .     S
C950   H952    1.104   .     S
C950   H1197   1.102   .     S
H951   C1442   1.102   1_545 S
C953   H954    1.109   .     S
C953   H956    1.109   .     S
C953   H955    1.110   .     S
C953   C786    1.526   1_655 S
O957   C958    1.409   .     S
C958   H959    1.106   .     S
C958   C961    1.532   .     S
C958   H960    1.107   .     S
C961   H1208   1.108   .     S
C961   H1209   1.110   .     S
C961   C800    1.524   1_655 S
H962   C1453   1.108   1_545 S
H963   C1453   1.110   1_545 S
C964   H965    1.109   .     S
C964   H967    1.110   .     S
C964   H1212   1.109   .     S
H966   C1456   1.109   1_545 S
O968   C969    1.420   .     S
C969   H970    1.111   .     S
C969   H971    1.117   .     S
C969   C972    1.523   .     S
C972   H973    1.096   .     S
C972   C975    1.517   .     S
C972   H1466   1.108   1_545 S
H974   C1218   1.108   .     S
C975   H976    1.111   .     S
C975   H1715   1.107   .     S
C975   H1716   1.111   .     S
C979   H980    1.076   .     S
C979   O981    1.222   .     D
C982   O984    1.222   .     D
C982   H983    1.073   .     S
C985   O1009   1.306   .     A
C985   C996    1.446   .     S
C985   O1007   1.293   .     A
C986   C995    1.425   .     S
C986   O1010   1.292   .     A
C986   O1008   1.297   .     A
C987   O1013   1.292   .     A
C987   C989    1.413   .     S
C987   O1011   1.292   .     A
C988   O1012   1.292   .     A
C988   C990    1.413   .     S
C988   O1014   1.292   .     A
C989   C1154   1.330   1_455 S
C989   H1165   1.088   1_455 S
C990   C1071   1.330   .     S
C990   H1084   1.088   .     S
C991   O1017   1.380   .     S
C991   C996    1.407   .     A
C992   O1028   1.387   .     S
C992   C995    1.409   .     A
C992   C1240   1.376   .     S
C993   O1039   1.386   .     S
C993   C995    1.403   .     A
C993   C1237   1.380   .     S
C994   O1050   1.386   .     S
C994   C996    1.415   .     A
C997   H1003   1.077   .     S
C997   N1006   1.359   .     A
C998   N1005   1.357   .     A
C998   H1004   1.083   .     S
C998   C1738   1.426   .     S
C999   C1061   1.479   .     S
C999   N1005   1.384   .     A
C999   C1735   1.427   .     S
C1000  C1064   1.476   .     S
C1000  N1006   1.387   .     A
H1001  C1071   1.088   .     S
H1002  C1154   1.088   1_455 S
N1005  Zn1015  2.037   .     S
N1006  Zn1016  2.037   .     S
O1007  Zn1015  2.006   .     S
O1008  Zn1016  2.006   .     S
O1009  Zn1016  2.021   .     S
O1010  Zn1015  2.021   .     S
O1011  Zn1015  1.992   .     S
O1012  Zn1016  1.992   .     S
O1013  Zn1016  1.995   .     S
O1014  Zn1015  1.995   .     S
O1017  C1018   1.414   .     S
C1018  H1019   1.111   .     S
C1018  H1020   1.110   .     S
C1021  H1022   1.104   .     S
C1021  C1024   1.507   .     S
C1021  H1023   1.107   .     S
C1021  C1264   1.538   .     S
C1024  H1271   1.105   .     S
H1026  C1762   1.109   .     S
H1027  C1516   1.104   .     S
O1028  C1029   1.418   .     S
C1029  H1031   1.111   .     S
C1029  H1030   1.111   .     S
C1029  C1032   1.537   .     S
C1032  H1034   1.104   .     S
C1032  H1279   1.102   .     S
C1032  C1199   1.526   1_455 S
C1035  H1036   1.109   .     S
C1035  H1038   1.109   .     S
C1035  H1037   1.110   .     S
C1035  C1114   1.526   .     S
O1039  C1040   1.409   .     S
C1040  H1041   1.106   .     S
C1040  C1043   1.532   .     S
C1040  H1042   1.107   .     S
C1043  H1290   1.108   .     S
C1043  H1291   1.110   .     S
C1043  C1128   1.524   .     S
C1046  H1047   1.109   .     S
C1046  H1049   1.110   .     S
C1046  C1207   1.524   1_455 S
C1046  H1294   1.109   .     S
O1050  C1051   1.420   .     S
C1051  H1052   1.111   .     S
C1051  H1053   1.117   .     S
C1051  C1054   1.523   .     S
C1054  H1055   1.096   .     S
C1054  C1057   1.517   .     S
H1056  C1300   1.108   .     S
C1057  H1058   1.111   .     S
C1057  H1797   1.107   .     S
C1057  H1798   1.111   .     S
C1061  H1062   1.076   .     S
C1061  O1063   1.222   .     D
C1064  O1066   1.222   .     D
C1064  H1065   1.073   .     S
C1067  O1091   1.306   .     A
C1067  C1078   1.446   .     S
C1067  O1089   1.293   .     A
C1068  C1077   1.425   .     S
C1068  O1092   1.292   .     A
C1068  O1090   1.297   .     A
C1069  O1095   1.292   .     A
C1069  C1071   1.413   .     S
C1069  O1093   1.292   .     A
C1070  O1094   1.292   .     A
C1070  C1072   1.413   .     S
C1070  O1096   1.292   .     A
C1072  C1153   1.330   .     S
C1072  H1166   1.088   .     S
C1073  O1099   1.380   .     S
C1073  C1078   1.407   .     A
C1074  O1110   1.387   .     S
C1074  C1077   1.409   .     A
C1074  C1322   1.376   .     S
C1075  O1121   1.386   .     S
C1075  C1077   1.403   .     A
C1075  C1319   1.380   .     S
C1076  O1132   1.386   .     S
C1076  C1078   1.415   .     A
C1079  H1085   1.077   .     S
C1079  N1088   1.359   .     A
C1080  N1087   1.357   .     A
C1080  H1086   1.083   .     S
C1080  C1820   1.426   .     S
C1081  C1143   1.479   .     S
C1081  N1087   1.384   .     A
C1081  C1817   1.427   .     S
C1082  C1146   1.476   .     S
C1082  N1088   1.387   .     A
H1083  C1153   1.088   .     S
N1087  Zn1097  2.037   .     S
N1088  Zn1098  2.037   .     S
O1089  Zn1097  2.006   .     S
O1090  Zn1098  2.006   .     S
O1091  Zn1098  2.021   .     S
O1092  Zn1097  2.021   .     S
O1093  Zn1097  1.992   .     S
O1094  Zn1098  1.992   .     S
O1095  Zn1098  1.995   .     S
O1096  Zn1097  1.995   .     S
O1099  C1100   1.414   .     S
C1100  H1101   1.111   .     S
C1100  H1102   1.110   .     S
C1103  H1104   1.104   .     S
C1103  C1106   1.507   .     S
C1103  H1105   1.107   .     S
C1103  C1346   1.538   .     S
C1106  H1353   1.105   .     S
H1108  C1844   1.109   .     S
H1109  C1598   1.104   .     S
O1110  C1111   1.418   .     S
C1111  H1113   1.111   .     S
C1111  H1112   1.111   .     S
C1111  C1114   1.537   .     S
C1114  H1116   1.104   .     S
C1114  H1361   1.102   .     S
C1117  H1118   1.109   .     S
C1117  H1120   1.109   .     S
C1117  H1119   1.110   .     S
C1117  C1196   1.526   .     S
O1121  C1122   1.409   .     S
C1122  H1123   1.106   .     S
C1122  C1125   1.532   .     S
C1122  H1124   1.107   .     S
C1125  H1372   1.108   .     S
C1125  H1373   1.110   .     S
C1125  C1210   1.524   .     S
C1128  H1129   1.109   .     S
C1128  H1131   1.110   .     S
C1128  H1376   1.109   .     S
O1132  C1133   1.420   .     S
C1133  H1134   1.111   .     S
C1133  H1135   1.117   .     S
C1133  C1136   1.523   .     S
C1136  H1137   1.096   .     S
C1136  C1139   1.517   .     S
H1138  C1382   1.108   .     S
C1139  H1140   1.111   .     S
C1139  H1879   1.107   .     S
C1139  H1880   1.111   .     S
C1143  H1144   1.076   .     S
C1143  O1145   1.222   .     D
C1146  O1148   1.222   .     D
C1146  H1147   1.073   .     S
C1149  O1173   1.306   .     A
C1149  C1160   1.446   .     S
C1149  O1171   1.293   .     A
C1150  C1159   1.425   .     S
C1150  O1174   1.292   .     A
C1150  O1172   1.297   .     A
C1151  O1177   1.292   .     A
C1151  C1153   1.413   .     S
C1151  O1175   1.292   .     A
C1152  O1176   1.292   .     A
C1152  C1154   1.413   .     S
C1152  O1178   1.292   .     A
C1154  C989    1.330   1_655 S
C1154  H1002   1.088   1_655 S
C1155  O1181   1.380   .     S
C1155  C1160   1.407   .     A
C1156  O1192   1.387   .     S
C1156  C1159   1.409   .     A
C1156  C1404   1.376   .     S
C1157  O1203   1.386   .     S
C1157  C1159   1.403   .     A
C1157  C1401   1.380   .     S
C1158  O1214   1.386   .     S
C1158  C1160   1.415   .     A
C1161  H1167   1.077   .     S
C1161  N1170   1.359   .     A
C1162  N1169   1.357   .     A
C1162  H1168   1.083   .     S
C1162  C1902   1.426   .     S
C1163  C1225   1.479   .     S
C1163  N1169   1.384   .     A
C1163  C1899   1.427   .     S
C1164  C1228   1.476   .     S
C1164  N1170   1.387   .     A
H1165  C989    1.088   1_655 S
N1169  Zn1179  2.037   .     S
N1170  Zn1180  2.037   .     S
O1171  Zn1179  2.006   .     S
O1172  Zn1180  2.006   .     S
O1173  Zn1180  2.021   .     S
O1174  Zn1179  2.021   .     S
O1175  Zn1179  1.992   .     S
O1176  Zn1180  1.992   .     S
O1177  Zn1180  1.995   .     S
O1178  Zn1179  1.995   .     S
O1181  C1182   1.414   .     S
C1182  H1183   1.111   .     S
C1182  H1184   1.110   .     S
C1185  H1186   1.104   .     S
C1185  C1188   1.507   .     S
C1185  H1187   1.107   .     S
C1185  C1428   1.538   .     S
C1188  H1435   1.105   .     S
H1190  C1926   1.109   .     S
H1191  C1680   1.104   .     S
O1192  C1193   1.418   .     S
C1193  H1195   1.111   .     S
C1193  H1194   1.111   .     S
C1193  C1196   1.537   .     S
C1196  H1198   1.104   .     S
C1196  H1443   1.102   .     S
C1199  H1200   1.109   .     S
C1199  H1202   1.109   .     S
C1199  H1201   1.110   .     S
C1199  C1032   1.526   1_655 S
O1203  C1204   1.409   .     S
C1204  H1205   1.106   .     S
C1204  C1207   1.532   .     S
C1204  H1206   1.107   .     S
C1207  H1454   1.108   .     S
C1207  H1455   1.110   .     S
C1207  C1046   1.524   1_655 S
C1210  H1211   1.109   .     S
C1210  H1213   1.110   .     S
C1210  H1458   1.109   .     S
O1214  C1215   1.420   .     S
C1215  H1216   1.111   .     S
C1215  H1217   1.117   .     S
C1215  C1218   1.523   .     S
C1218  H1219   1.096   .     S
C1218  C1221   1.517   .     S
H1220  C1464   1.108   .     S
C1221  H1222   1.111   .     S
C1221  H1961   1.107   .     S
C1221  H1962   1.111   .     S
C1225  H1226   1.076   .     S
C1225  O1227   1.222   .     D
C1228  O1230   1.222   .     D
C1228  H1229   1.073   .     S
C1231  O1255   1.306   .     A
C1231  C1242   1.446   .     S
C1231  O1253   1.293   .     A
C1232  C1241   1.425   .     S
C1232  O1256   1.292   .     A
C1232  O1254   1.297   .     A
C1233  O1259   1.292   .     A
C1233  C1235   1.413   .     S
C1233  O1257   1.292   .     A
C1234  O1258   1.292   .     A
C1234  C1236   1.413   .     S
C1234  O1260   1.292   .     A
C1235  C1400   1.330   1_455 S
C1235  H1411   1.088   1_455 S
C1236  C1317   1.330   .     S
C1236  H1330   1.088   .     S
C1237  O1263   1.380   .     S
C1237  C1242   1.407   .     A
C1238  O1274   1.387   .     S
C1238  C1241   1.409   .     A
C1238  C748    1.376   1_565 S
C1239  O1285   1.386   .     S
C1239  C1241   1.403   .     A
C1239  C745    1.380   1_565 S
C1240  O1296   1.386   .     S
C1240  C1242   1.415   .     A
C1243  H1249   1.077   .     S
C1243  N1252   1.359   .     A
C1244  N1251   1.357   .     A
C1244  H1250   1.083   .     S
C1244  C1984   1.426   .     S
C1245  C1307   1.479   .     S
C1245  N1251   1.384   .     A
C1245  C1981   1.427   .     S
C1246  C1310   1.476   .     S
C1246  N1252   1.387   .     A
H1247  C1317   1.088   .     S
H1248  C1400   1.088   1_455 S
N1251  Zn1261  2.037   .     S
N1252  Zn1262  2.037   .     S
O1253  Zn1261  2.006   .     S
O1254  Zn1262  2.006   .     S
O1255  Zn1262  2.021   .     S
O1256  Zn1261  2.021   .     S
O1257  Zn1261  1.992   .     S
O1258  Zn1262  1.992   .     S
O1259  Zn1262  1.995   .     S
O1260  Zn1261  1.995   .     S
O1263  C1264   1.414   .     S
C1264  H1265   1.111   .     S
C1264  H1266   1.110   .     S
C1267  H1268   1.104   .     S
C1267  C1270   1.507   .     S
C1267  H1269   1.107   .     S
C1267  C772    1.538   1_565 S
C1270  H779    1.105   1_565 S
C1270  H43     1.104   1_565 S
H1272  C2008   1.109   .     S
H1273  C1762   1.104   .     S
O1274  C1275   1.418   .     S
C1275  H1277   1.111   .     S
C1275  H1276   1.111   .     S
C1275  C1278   1.537   .     S
C1278  H1280   1.104   .     S
C1278  H787    1.102   1_565 S
C1278  C1445   1.526   1_455 S
C1281  H1282   1.109   .     S
C1281  H1284   1.109   .     S
C1281  H1283   1.110   .     S
C1281  C1360   1.526   .     S
O1285  C1286   1.409   .     S
C1286  H1287   1.106   .     S
C1286  C1289   1.532   .     S
C1286  H1288   1.107   .     S
C1289  H798    1.108   1_565 S
C1289  H799    1.110   1_565 S
C1289  C1374   1.524   .     S
C1292  H1293   1.109   .     S
C1292  H1295   1.110   .     S
C1292  C1453   1.524   1_455 S
C1292  H802    1.109   1_565 S
O1296  C1297   1.420   .     S
C1297  H1298   1.111   .     S
C1297  H1299   1.117   .     S
C1297  C1300   1.523   .     S
C1300  H1301   1.096   .     S
C1300  C1303   1.517   .     S
H1302  C808    1.108   1_565 S
C1303  H1304   1.111   .     S
C1303  H2043   1.107   .     S
C1303  H2044   1.111   .     S
C1307  H1308   1.076   .     S
C1307  O1309   1.222   .     D
C1310  O1312   1.222   .     D
C1310  H1311   1.073   .     S
C1313  O1337   1.306   .     A
C1313  C1324   1.446   .     S
C1313  O1335   1.293   .     A
C1314  C1323   1.425   .     S
C1314  O1338   1.292   .     A
C1314  O1336   1.297   .     A
C1315  O1341   1.292   .     A
C1315  C1317   1.413   .     S
C1315  O1339   1.292   .     A
C1316  O1340   1.292   .     A
C1316  C1318   1.413   .     S
C1316  O1342   1.292   .     A
C1318  C1399   1.330   .     S
C1318  H1412   1.088   .     S
C1319  O1345   1.380   .     S
C1319  C1324   1.407   .     A
C1320  O1356   1.387   .     S
C1320  C1323   1.409   .     A
C1320  C830    1.376   1_565 S
C1321  O1367   1.386   .     S
C1321  C1323   1.403   .     A
C1321  C827    1.380   1_565 S
C1322  O1378   1.386   .     S
C1322  C1324   1.415   .     A
C1325  H1331   1.077   .     S
C1325  N1334   1.359   .     A
C1326  N1333   1.357   .     A
C1326  H1332   1.083   .     S
C1326  C2066   1.426   .     S
C1327  C1389   1.479   .     S
C1327  N1333   1.384   .     A
C1327  C2063   1.427   .     S
C1328  C1392   1.476   .     S
C1328  N1334   1.387   .     A
H1329  C1399   1.088   .     S
N1333  Zn1343  2.037   .     S
N1334  Zn1344  2.037   .     S
O1335  Zn1343  2.006   .     S
O1336  Zn1344  2.006   .     S
O1337  Zn1344  2.021   .     S
O1338  Zn1343  2.021   .     S
O1339  Zn1343  1.992   .     S
O1340  Zn1344  1.992   .     S
O1341  Zn1344  1.995   .     S
O1342  Zn1343  1.995   .     S
O1345  C1346   1.414   .     S
C1346  H1347   1.111   .     S
C1346  H1348   1.110   .     S
C1349  H1350   1.104   .     S
C1349  C1352   1.507   .     S
C1349  H1351   1.107   .     S
C1349  C854    1.538   1_565 S
C1352  H861    1.105   1_565 S
C1352  H125    1.104   1_565 S
H1354  C2090   1.109   .     S
H1355  C1844   1.104   .     S
O1356  C1357   1.418   .     S
C1357  H1359   1.111   .     S
C1357  H1358   1.111   .     S
C1357  C1360   1.537   .     S
C1360  H1362   1.104   .     S
C1360  H869    1.102   1_565 S
C1363  H1364   1.109   .     S
C1363  H1366   1.109   .     S
C1363  H1365   1.110   .     S
C1363  C1442   1.526   .     S
O1367  C1368   1.409   .     S
C1368  H1369   1.106   .     S
C1368  C1371   1.532   .     S
C1368  H1370   1.107   .     S
C1371  H880    1.108   1_565 S
C1371  H881    1.110   1_565 S
C1371  C1456   1.524   .     S
C1374  H1375   1.109   .     S
C1374  H1377   1.110   .     S
C1374  H884    1.109   1_565 S
O1378  C1379   1.420   .     S
C1379  H1380   1.111   .     S
C1379  H1381   1.117   .     S
C1379  C1382   1.523   .     S
C1382  H1383   1.096   .     S
C1382  C1385   1.517   .     S
H1384  C890    1.108   1_565 S
C1385  H1386   1.111   .     S
C1385  H2125   1.107   .     S
C1385  H2126   1.111   .     S
C1389  H1390   1.076   .     S
C1389  O1391   1.222   .     D
C1392  O1394   1.222   .     D
C1392  H1393   1.073   .     S
C1395  O1419   1.306   .     A
C1395  C1406   1.446   .     S
C1395  O1417   1.293   .     A
C1396  C1405   1.425   .     S
C1396  O1420   1.292   .     A
C1396  O1418   1.297   .     A
C1397  O1423   1.292   .     A
C1397  C1399   1.413   .     S
C1397  O1421   1.292   .     A
C1398  O1422   1.292   .     A
C1398  C1400   1.413   .     S
C1398  O1424   1.292   .     A
C1400  C1235   1.330   1_655 S
C1400  H1248   1.088   1_655 S
C1401  O1427   1.380   .     S
C1401  C1406   1.407   .     A
C1402  O1438   1.387   .     S
C1402  C1405   1.409   .     A
C1402  C912    1.376   1_565 S
C1403  O1449   1.386   .     S
C1403  C1405   1.403   .     A
C1403  C909    1.380   1_565 S
C1404  O1460   1.386   .     S
C1404  C1406   1.415   .     A
C1407  H1413   1.077   .     S
C1407  N1416   1.359   .     A
C1408  N1415   1.357   .     A
C1408  H1414   1.083   .     S
C1408  C2148   1.426   .     S
C1409  C1471   1.479   .     S
C1409  N1415   1.384   .     A
C1409  C2145   1.427   .     S
C1410  C1474   1.476   .     S
C1410  N1416   1.387   .     A
H1411  C1235   1.088   1_655 S
N1415  Zn1425  2.037   .     S
N1416  Zn1426  2.037   .     S
O1417  Zn1425  2.006   .     S
O1418  Zn1426  2.006   .     S
O1419  Zn1426  2.021   .     S
O1420  Zn1425  2.021   .     S
O1421  Zn1425  1.992   .     S
O1422  Zn1426  1.992   .     S
O1423  Zn1426  1.995   .     S
O1424  Zn1425  1.995   .     S
O1427  C1428   1.414   .     S
C1428  H1429   1.111   .     S
C1428  H1430   1.110   .     S
C1431  H1432   1.104   .     S
C1431  C1434   1.507   .     S
C1431  H1433   1.107   .     S
C1431  C936    1.538   1_565 S
C1434  H943    1.105   1_565 S
C1434  H207    1.104   1_565 S
H1436  C2172   1.109   .     S
H1437  C1926   1.104   .     S
O1438  C1439   1.418   .     S
C1439  H1441   1.111   .     S
C1439  H1440   1.111   .     S
C1439  C1442   1.537   .     S
C1442  H1444   1.104   .     S
C1442  H951    1.102   1_565 S
C1445  H1446   1.109   .     S
C1445  H1448   1.109   .     S
C1445  H1447   1.110   .     S
C1445  C1278   1.526   1_655 S
O1449  C1450   1.409   .     S
C1450  H1451   1.106   .     S
C1450  C1453   1.532   .     S
C1450  H1452   1.107   .     S
C1453  H962    1.108   1_565 S
C1453  H963    1.110   1_565 S
C1453  C1292   1.524   1_655 S
C1456  H1457   1.109   .     S
C1456  H1459   1.110   .     S
C1456  H966    1.109   1_565 S
O1460  C1461   1.420   .     S
C1461  H1462   1.111   .     S
C1461  H1463   1.117   .     S
C1461  C1464   1.523   .     S
C1464  H1465   1.096   .     S
C1464  C1467   1.517   .     S
H1466  C972    1.108   1_565 S
C1467  H1468   1.111   .     S
C1467  H2207   1.107   .     S
C1467  H2208   1.111   .     S
C1471  H1472   1.076   .     S
C1471  O1473   1.222   .     D
C1474  O1476   1.222   .     D
C1474  H1475   1.073   .     S
C1477  O1501   1.306   .     A
C1477  C1488   1.446   .     S
C1477  O1499   1.293   .     A
C1478  C1487   1.425   .     S
C1478  O1502   1.292   .     A
C1478  O1500   1.297   .     A
C1479  O1505   1.292   .     A
C1479  C1481   1.413   .     S
C1479  O1503   1.292   .     A
C1480  O1504   1.292   .     A
C1480  C1482   1.413   .     S
C1480  O1506   1.292   .     A
C1481  C1646   1.330   1_455 S
C1481  H1657   1.088   1_455 S
C1482  C1563   1.330   .     S
C1482  H1576   1.088   .     S
C1483  O1509   1.380   .     S
C1483  C1488   1.407   .     A
C1483  C1977   1.380   1_545 S
C1484  O1520   1.387   .     S
C1484  C1487   1.409   .     A
C1484  C1732   1.376   .     S
C1485  O1531   1.386   .     S
C1485  C1487   1.403   .     A
C1485  C1729   1.380   .     S
C1486  O1542   1.386   .     S
C1486  C1488   1.415   .     A
C1486  C1976   1.376   1_545 S
C1489  H1495   1.077   .     S
C1489  N1498   1.359   .     A
C1490  N1497   1.357   .     A
C1490  H1496   1.083   .     S
C1490  C16     1.426   1_556 S
C1491  C1553   1.479   .     S
C1491  N1497   1.384   .     A
C1491  C13     1.427   1_556 S
C1492  C1556   1.476   .     S
C1492  N1498   1.387   .     A
H1493  C1563   1.088   .     S
H1494  C1646   1.088   1_455 S
N1497  Zn1507  2.037   .     S
N1498  Zn1508  2.037   .     S
O1499  Zn1507  2.006   .     S
O1500  Zn1508  2.006   .     S
O1501  Zn1508  2.021   .     S
O1502  Zn1507  2.021   .     S
O1503  Zn1507  1.992   .     S
O1504  Zn1508  1.992   .     S
O1505  Zn1508  1.995   .     S
O1506  Zn1507  1.995   .     S
O1509  C1510   1.414   .     S
C1510  H1511   1.111   .     S
C1510  H1512   1.110   .     S
C1510  C2005   1.538   1_545 S
C1513  H1514   1.104   .     S
C1513  C1516   1.507   .     S
C1513  H1515   1.107   .     S
C1513  C1756   1.538   .     S
C1516  H1763   1.105   .     S
H1517  C2008   1.105   1_545 S
H1518  C40     1.109   1_556 S
H1519  C532    1.104   1_546 S
O1520  C1521   1.418   .     S
C1521  H1523   1.111   .     S
C1521  H1522   1.111   .     S
C1521  C1524   1.537   .     S
C1524  H1526   1.104   .     S
C1524  H1771   1.102   .     S
C1524  C1691   1.526   1_455 S
H1525  C2016   1.102   1_545 S
C1527  H1528   1.109   .     S
C1527  H1530   1.109   .     S
C1527  H1529   1.110   .     S
C1527  C1606   1.526   .     S
O1531  C1532   1.409   .     S
C1532  H1533   1.106   .     S
C1532  C1535   1.532   .     S
C1532  H1534   1.107   .     S
C1535  H1782   1.108   .     S
C1535  H1783   1.110   .     S
C1535  C1620   1.524   .     S
H1536  C2027   1.108   1_545 S
H1537  C2027   1.110   1_545 S
C1538  H1539   1.109   .     S
C1538  H1541   1.110   .     S
C1538  C1699   1.524   1_455 S
C1538  H1786   1.109   .     S
H1540  C2030   1.109   1_545 S
O1542  C1543   1.420   .     S
C1543  H1544   1.111   .     S
C1543  H1545   1.117   .     S
C1543  C1546   1.523   .     S
C1546  H1547   1.096   .     S
C1546  C1549   1.517   .     S
C1546  H2040   1.108   1_545 S
H1548  C1792   1.108   .     S
C1549  H1550   1.111   .     S
C1549  H75     1.107   1_556 S
C1549  H76     1.111   1_556 S
C1553  H1554   1.076   .     S
C1553  O1555   1.222   .     D
C1556  O1558   1.222   .     D
C1556  H1557   1.073   .     S
C1559  O1583   1.306   .     A
C1559  C1570   1.446   .     S
C1559  O1581   1.293   .     A
C1560  C1569   1.425   .     S
C1560  O1584   1.292   .     A
C1560  O1582   1.297   .     A
C1561  O1587   1.292   .     A
C1561  C1563   1.413   .     S
C1561  O1585   1.292   .     A
C1562  O1586   1.292   .     A
C1562  C1564   1.413   .     S
C1562  O1588   1.292   .     A
C1564  C1645   1.330   .     S
C1564  H1658   1.088   .     S
C1565  O1591   1.380   .     S
C1565  C1570   1.407   .     A
C1565  C2059   1.380   1_545 S
C1566  O1602   1.387   .     S
C1566  C1569   1.409   .     A
C1566  C1814   1.376   .     S
C1567  O1613   1.386   .     S
C1567  C1569   1.403   .     A
C1567  C1811   1.380   .     S
C1568  O1624   1.386   .     S
C1568  C1570   1.415   .     A
C1568  C2058   1.376   1_545 S
C1571  H1577   1.077   .     S
C1571  N1580   1.359   .     A
C1572  N1579   1.357   .     A
C1572  H1578   1.083   .     S
C1572  C98     1.426   1_556 S
C1573  C1635   1.479   .     S
C1573  N1579   1.384   .     A
C1573  C95     1.427   1_556 S
C1574  C1638   1.476   .     S
C1574  N1580   1.387   .     A
H1575  C1645   1.088   .     S
N1579  Zn1589  2.037   .     S
N1580  Zn1590  2.037   .     S
O1581  Zn1589  2.006   .     S
O1582  Zn1590  2.006   .     S
O1583  Zn1590  2.021   .     S
O1584  Zn1589  2.021   .     S
O1585  Zn1589  1.992   .     S
O1586  Zn1590  1.992   .     S
O1587  Zn1590  1.995   .     S
O1588  Zn1589  1.995   .     S
O1591  C1592   1.414   .     S
C1592  H1593   1.111   .     S
C1592  H1594   1.110   .     S
C1592  C2087   1.538   1_545 S
C1595  H1596   1.104   .     S
C1595  C1598   1.507   .     S
C1595  H1597   1.107   .     S
C1595  C1838   1.538   .     S
C1598  H1845   1.105   .     S
H1599  C2090   1.105   1_545 S
H1600  C122    1.109   1_556 S
H1601  C614    1.104   1_546 S
O1602  C1603   1.418   .     S
C1603  H1605   1.111   .     S
C1603  H1604   1.111   .     S
C1603  C1606   1.537   .     S
C1606  H1608   1.104   .     S
C1606  H1853   1.102   .     S
H1607  C2098   1.102   1_545 S
C1609  H1610   1.109   .     S
C1609  H1612   1.109   .     S
C1609  H1611   1.110   .     S
C1609  C1688   1.526   .     S
O1613  C1614   1.409   .     S
C1614  H1615   1.106   .     S
C1614  C1617   1.532   .     S
C1614  H1616   1.107   .     S
C1617  H1864   1.108   .     S
C1617  H1865   1.110   .     S
C1617  C1702   1.524   .     S
H1618  C2109   1.108   1_545 S
H1619  C2109   1.110   1_545 S
C1620  H1621   1.109   .     S
C1620  H1623   1.110   .     S
C1620  H1868   1.109   .     S
H1622  C2112   1.109   1_545 S
O1624  C1625   1.420   .     S
C1625  H1626   1.111   .     S
C1625  H1627   1.117   .     S
C1625  C1628   1.523   .     S
C1628  H1629   1.096   .     S
C1628  C1631   1.517   .     S
C1628  H2122   1.108   1_545 S
H1630  C1874   1.108   .     S
C1631  H1632   1.111   .     S
C1631  H157    1.107   1_556 S
C1631  H158    1.111   1_556 S
C1635  H1636   1.076   .     S
C1635  O1637   1.222   .     D
C1638  O1640   1.222   .     D
C1638  H1639   1.073   .     S
C1641  O1665   1.306   .     A
C1641  C1652   1.446   .     S
C1641  O1663   1.293   .     A
C1642  C1651   1.425   .     S
C1642  O1666   1.292   .     A
C1642  O1664   1.297   .     A
C1643  O1669   1.292   .     A
C1643  C1645   1.413   .     S
C1643  O1667   1.292   .     A
C1644  O1668   1.292   .     A
C1644  C1646   1.413   .     S
C1644  O1670   1.292   .     A
C1646  C1481   1.330   1_655 S
C1646  H1494   1.088   1_655 S
C1647  O1673   1.380   .     S
C1647  C1652   1.407   .     A
C1647  C2141   1.380   1_545 S
C1648  O1684   1.387   .     S
C1648  C1651   1.409   .     A
C1648  C1896   1.376   .     S
C1649  O1695   1.386   .     S
C1649  C1651   1.403   .     A
C1649  C1893   1.380   .     S
C1650  O1706   1.386   .     S
C1650  C1652   1.415   .     A
C1650  C2140   1.376   1_545 S
C1653  H1659   1.077   .     S
C1653  N1662   1.359   .     A
C1654  N1661   1.357   .     A
C1654  H1660   1.083   .     S
C1654  C180    1.426   1_556 S
C1655  C1717   1.479   .     S
C1655  N1661   1.384   .     A
C1655  C177    1.427   1_556 S
C1656  C1720   1.476   .     S
C1656  N1662   1.387   .     A
H1657  C1481   1.088   1_655 S
N1661  Zn1671  2.037   .     S
N1662  Zn1672  2.037   .     S
O1663  Zn1671  2.006   .     S
O1664  Zn1672  2.006   .     S
O1665  Zn1672  2.021   .     S
O1666  Zn1671  2.021   .     S
O1667  Zn1671  1.992   .     S
O1668  Zn1672  1.992   .     S
O1669  Zn1672  1.995   .     S
O1670  Zn1671  1.995   .     S
O1673  C1674   1.414   .     S
C1674  H1675   1.111   .     S
C1674  H1676   1.110   .     S
C1674  C2169   1.538   1_545 S
C1677  H1678   1.104   .     S
C1677  C1680   1.507   .     S
C1677  H1679   1.107   .     S
C1677  C1920   1.538   .     S
C1680  H1927   1.105   .     S
H1681  C2172   1.105   1_545 S
H1682  C204    1.109   1_556 S
H1683  C696    1.104   1_546 S
O1684  C1685   1.418   .     S
C1685  H1687   1.111   .     S
C1685  H1686   1.111   .     S
C1685  C1688   1.537   .     S
C1688  H1690   1.104   .     S
C1688  H1935   1.102   .     S
H1689  C2180   1.102   1_545 S
C1691  H1692   1.109   .     S
C1691  H1694   1.109   .     S
C1691  H1693   1.110   .     S
C1691  C1524   1.526   1_655 S
O1695  C1696   1.409   .     S
C1696  H1697   1.106   .     S
C1696  C1699   1.532   .     S
C1696  H1698   1.107   .     S
C1699  H1946   1.108   .     S
C1699  H1947   1.110   .     S
C1699  C1538   1.524   1_655 S
H1700  C2191   1.108   1_545 S
H1701  C2191   1.110   1_545 S
C1702  H1703   1.109   .     S
C1702  H1705   1.110   .     S
C1702  H1950   1.109   .     S
H1704  C2194   1.109   1_545 S
O1706  C1707   1.420   .     S
C1707  H1708   1.111   .     S
C1707  H1709   1.117   .     S
C1707  C1710   1.523   .     S
C1710  H1711   1.096   .     S
C1710  C1713   1.517   .     S
C1710  H2204   1.108   1_545 S
H1712  C1956   1.108   .     S
C1713  H1714   1.111   .     S
C1713  H239    1.107   1_556 S
C1713  H240    1.111   1_556 S
C1717  H1718   1.076   .     S
C1717  O1719   1.222   .     D
C1720  O1722   1.222   .     D
C1720  H1721   1.073   .     S
C1723  O1747   1.306   .     A
C1723  C1734   1.446   .     S
C1723  O1745   1.293   .     A
C1724  C1733   1.425   .     S
C1724  O1748   1.292   .     A
C1724  O1746   1.297   .     A
C1725  O1751   1.292   .     A
C1725  C1727   1.413   .     S
C1725  O1749   1.292   .     A
C1726  O1750   1.292   .     A
C1726  C1728   1.413   .     S
C1726  O1752   1.292   .     A
C1727  C1892   1.330   1_455 S
C1727  H1903   1.088   1_455 S
C1728  C1809   1.330   .     S
C1728  H1822   1.088   .     S
C1729  O1755   1.380   .     S
C1729  C1734   1.407   .     A
C1730  O1766   1.387   .     S
C1730  C1733   1.409   .     A
C1730  C1978   1.376   .     S
C1731  O1777   1.386   .     S
C1731  C1733   1.403   .     A
C1731  C1975   1.380   .     S
C1732  O1788   1.386   .     S
C1732  C1734   1.415   .     A
C1735  H1741   1.077   .     S
C1735  N1744   1.359   .     A
C1736  N1743   1.357   .     A
C1736  H1742   1.083   .     S
C1736  C262    1.426   1_556 S
C1737  C1799   1.479   .     S
C1737  N1743   1.384   .     A
C1737  C259    1.427   1_556 S
C1738  C1802   1.476   .     S
C1738  N1744   1.387   .     A
H1739  C1809   1.088   .     S
H1740  C1892   1.088   1_455 S
N1743  Zn1753  2.037   .     S
N1744  Zn1754  2.037   .     S
O1745  Zn1753  2.006   .     S
O1746  Zn1754  2.006   .     S
O1747  Zn1754  2.021   .     S
O1748  Zn1753  2.021   .     S
O1749  Zn1753  1.992   .     S
O1750  Zn1754  1.992   .     S
O1751  Zn1754  1.995   .     S
O1752  Zn1753  1.995   .     S
O1755  C1756   1.414   .     S
C1756  H1757   1.111   .     S
C1756  H1758   1.110   .     S
C1759  H1760   1.104   .     S
C1759  C1762   1.507   .     S
C1759  H1761   1.107   .     S
C1759  C2002   1.538   .     S
C1762  H2009   1.105   .     S
H1764  C286    1.109   1_556 S
H1765  C40     1.104   1_556 S
O1766  C1767   1.418   .     S
C1767  H1769   1.111   .     S
C1767  H1768   1.111   .     S
C1767  C1770   1.537   .     S
C1770  H1772   1.104   .     S
C1770  H2017   1.102   .     S
C1770  C1937   1.526   1_455 S
C1773  H1774   1.109   .     S
C1773  H1776   1.109   .     S
C1773  H1775   1.110   .     S
C1773  C1852   1.526   .     S
O1777  C1778   1.409   .     S
C1778  H1779   1.106   .     S
C1778  C1781   1.532   .     S
C1778  H1780   1.107   .     S
C1781  H2028   1.108   .     S
C1781  H2029   1.110   .     S
C1781  C1866   1.524   .     S
C1784  H1785   1.109   .     S
C1784  H1787   1.110   .     S
C1784  C1945   1.524   1_455 S
C1784  H2032   1.109   .     S
O1788  C1789   1.420   .     S
C1789  H1790   1.111   .     S
C1789  H1791   1.117   .     S
C1789  C1792   1.523   .     S
C1792  H1793   1.096   .     S
C1792  C1795   1.517   .     S
H1794  C2038   1.108   .     S
C1795  H1796   1.111   .     S
C1795  H321    1.107   1_556 S
C1795  H322    1.111   1_556 S
C1799  H1800   1.076   .     S
C1799  O1801   1.222   .     D
C1802  O1804   1.222   .     D
C1802  H1803   1.073   .     S
C1805  O1829   1.306   .     A
C1805  C1816   1.446   .     S
C1805  O1827   1.293   .     A
C1806  C1815   1.425   .     S
C1806  O1830   1.292   .     A
C1806  O1828   1.297   .     A
C1807  O1833   1.292   .     A
C1807  C1809   1.413   .     S
C1807  O1831   1.292   .     A
C1808  O1832   1.292   .     A
C1808  C1810   1.413   .     S
C1808  O1834   1.292   .     A
C1810  C1891   1.330   .     S
C1810  H1904   1.088   .     S
C1811  O1837   1.380   .     S
C1811  C1816   1.407   .     A
C1812  O1848   1.387   .     S
C1812  C1815   1.409   .     A
C1812  C2060   1.376   .     S
C1813  O1859   1.386   .     S
C1813  C1815   1.403   .     A
C1813  C2057   1.380   .     S
C1814  O1870   1.386   .     S
C1814  C1816   1.415   .     A
C1817  H1823   1.077   .     S
C1817  N1826   1.359   .     A
C1818  N1825   1.357   .     A
C1818  H1824   1.083   .     S
C1818  C344    1.426   1_556 S
C1819  C1881   1.479   .     S
C1819  N1825   1.384   .     A
C1819  C341    1.427   1_556 S
C1820  C1884   1.476   .     S
C1820  N1826   1.387   .     A
H1821  C1891   1.088   .     S
N1825  Zn1835  2.037   .     S
N1826  Zn1836  2.037   .     S
O1827  Zn1835  2.006   .     S
O1828  Zn1836  2.006   .     S
O1829  Zn1836  2.021   .     S
O1830  Zn1835  2.021   .     S
O1831  Zn1835  1.992   .     S
O1832  Zn1836  1.992   .     S
O1833  Zn1836  1.995   .     S
O1834  Zn1835  1.995   .     S
O1837  C1838   1.414   .     S
C1838  H1839   1.111   .     S
C1838  H1840   1.110   .     S
C1841  H1842   1.104   .     S
C1841  C1844   1.507   .     S
C1841  H1843   1.107   .     S
C1841  C2084   1.538   .     S
C1844  H2091   1.105   .     S
H1846  C368    1.109   1_556 S
H1847  C122    1.104   1_556 S
O1848  C1849   1.418   .     S
C1849  H1851   1.111   .     S
C1849  H1850   1.111   .     S
C1849  C1852   1.537   .     S
C1852  H1854   1.104   .     S
C1852  H2099   1.102   .     S
C1855  H1856   1.109   .     S
C1855  H1858   1.109   .     S
C1855  H1857   1.110   .     S
C1855  C1934   1.526   .     S
O1859  C1860   1.409   .     S
C1860  H1861   1.106   .     S
C1860  C1863   1.532   .     S
C1860  H1862   1.107   .     S
C1863  H2110   1.108   .     S
C1863  H2111   1.110   .     S
C1863  C1948   1.524   .     S
C1866  H1867   1.109   .     S
C1866  H1869   1.110   .     S
C1866  H2114   1.109   .     S
O1870  C1871   1.420   .     S
C1871  H1872   1.111   .     S
C1871  H1873   1.117   .     S
C1871  C1874   1.523   .     S
C1874  H1875   1.096   .     S
C1874  C1877   1.517   .     S
H1876  C2120   1.108   .     S
C1877  H1878   1.111   .     S
C1877  H403    1.107   1_556 S
C1877  H404    1.111   1_556 S
C1881  H1882   1.076   .     S
C1881  O1883   1.222   .     D
C1884  O1886   1.222   .     D
C1884  H1885   1.073   .     S
C1887  O1911   1.306   .     A
C1887  C1898   1.446   .     S
C1887  O1909   1.293   .     A
C1888  C1897   1.425   .     S
C1888  O1912   1.292   .     A
C1888  O1910   1.297   .     A
C1889  O1915   1.292   .     A
C1889  C1891   1.413   .     S
C1889  O1913   1.292   .     A
C1890  O1914   1.292   .     A
C1890  C1892   1.413   .     S
C1890  O1916   1.292   .     A
C1892  C1727   1.330   1_655 S
C1892  H1740   1.088   1_655 S
C1893  O1919   1.380   .     S
C1893  C1898   1.407   .     A
C1894  O1930   1.387   .     S
C1894  C1897   1.409   .     A
C1894  C2142   1.376   .     S
C1895  O1941   1.386   .     S
C1895  C1897   1.403   .     A
C1895  C2139   1.380   .     S
C1896  O1952   1.386   .     S
C1896  C1898   1.415   .     A
C1899  H1905   1.077   .     S
C1899  N1908   1.359   .     A
C1900  N1907   1.357   .     A
C1900  H1906   1.083   .     S
C1900  C426    1.426   1_556 S
C1901  C1963   1.479   .     S
C1901  N1907   1.384   .     A
C1901  C423    1.427   1_556 S
C1902  C1966   1.476   .     S
C1902  N1908   1.387   .     A
H1903  C1727   1.088   1_655 S
N1907  Zn1917  2.037   .     S
N1908  Zn1918  2.037   .     S
O1909  Zn1917  2.006   .     S
O1910  Zn1918  2.006   .     S
O1911  Zn1918  2.021   .     S
O1912  Zn1917  2.021   .     S
O1913  Zn1917  1.992   .     S
O1914  Zn1918  1.992   .     S
O1915  Zn1918  1.995   .     S
O1916  Zn1917  1.995   .     S
O1919  C1920   1.414   .     S
C1920  H1921   1.111   .     S
C1920  H1922   1.110   .     S
C1923  H1924   1.104   .     S
C1923  C1926   1.507   .     S
C1923  H1925   1.107   .     S
C1923  C2166   1.538   .     S
C1926  H2173   1.105   .     S
H1928  C450    1.109   1_556 S
H1929  C204    1.104   1_556 S
O1930  C1931   1.418   .     S
C1931  H1933   1.111   .     S
C1931  H1932   1.111   .     S
C1931  C1934   1.537   .     S
C1934  H1936   1.104   .     S
C1934  H2181   1.102   .     S
C1937  H1938   1.109   .     S
C1937  H1940   1.109   .     S
C1937  H1939   1.110   .     S
C1937  C1770   1.526   1_655 S
O1941  C1942   1.409   .     S
C1942  H1943   1.106   .     S
C1942  C1945   1.532   .     S
C1942  H1944   1.107   .     S
C1945  H2192   1.108   .     S
C1945  H2193   1.110   .     S
C1945  C1784   1.524   1_655 S
C1948  H1949   1.109   .     S
C1948  H1951   1.110   .     S
C1948  H2196   1.109   .     S
O1952  C1953   1.420   .     S
C1953  H1954   1.111   .     S
C1953  H1955   1.117   .     S
C1953  C1956   1.523   .     S
C1956  H1957   1.096   .     S
C1956  C1959   1.517   .     S
H1958  C2202   1.108   .     S
C1959  H1960   1.111   .     S
C1959  H485    1.107   1_556 S
C1959  H486    1.111   1_556 S
C1963  H1964   1.076   .     S
C1963  O1965   1.222   .     D
C1966  O1968   1.222   .     D
C1966  H1967   1.073   .     S
C1969  O1993   1.306   .     A
C1969  C1980   1.446   .     S
C1969  O1991   1.293   .     A
C1970  C1979   1.425   .     S
C1970  O1994   1.292   .     A
C1970  O1992   1.297   .     A
C1971  O1997   1.292   .     A
C1971  C1973   1.413   .     S
C1971  O1995   1.292   .     A
C1972  O1996   1.292   .     A
C1972  C1974   1.413   .     S
C1972  O1998   1.292   .     A
C1973  C2138   1.330   1_455 S
C1973  H2149   1.088   1_455 S
C1974  C2055   1.330   .     S
C1974  H2068   1.088   .     S
C1975  O2001   1.380   .     S
C1975  C1980   1.407   .     A
C1976  O2012   1.387   .     S
C1976  C1979   1.409   .     A
C1976  C1486   1.376   1_565 S
C1977  O2023   1.386   .     S
C1977  C1979   1.403   .     A
C1977  C1483   1.380   1_565 S
C1978  O2034   1.386   .     S
C1978  C1980   1.415   .     A
C1981  H1987   1.077   .     S
C1981  N1990   1.359   .     A
C1982  N1989   1.357   .     A
C1982  H1988   1.083   .     S
C1982  C508    1.426   1_556 S
C1983  C2045   1.479   .     S
C1983  N1989   1.384   .     A
C1983  C505    1.427   1_556 S
C1984  C2048   1.476   .     S
C1984  N1990   1.387   .     A
H1985  C2055   1.088   .     S
H1986  C2138   1.088   1_455 S
N1989  Zn1999  2.037   .     S
N1990  Zn2000  2.037   .     S
O1991  Zn1999  2.006   .     S
O1992  Zn2000  2.006   .     S
O1993  Zn2000  2.021   .     S
O1994  Zn1999  2.021   .     S
O1995  Zn1999  1.992   .     S
O1996  Zn2000  1.992   .     S
O1997  Zn2000  1.995   .     S
O1998  Zn1999  1.995   .     S
O2001  C2002   1.414   .     S
C2002  H2003   1.111   .     S
C2002  H2004   1.110   .     S
C2005  H2006   1.104   .     S
C2005  C2008   1.507   .     S
C2005  H2007   1.107   .     S
C2005  C1510   1.538   1_565 S
C2008  H1517   1.105   1_565 S
C2008  H781    1.104   1_565 S
H2010  C532    1.109   1_556 S
H2011  C286    1.104   1_556 S
O2012  C2013   1.418   .     S
C2013  H2015   1.111   .     S
C2013  H2014   1.111   .     S
C2013  C2016   1.537   .     S
C2016  H2018   1.104   .     S
C2016  H1525   1.102   1_565 S
C2016  C2183   1.526   1_455 S
C2019  H2020   1.109   .     S
C2019  H2022   1.109   .     S
C2019  H2021   1.110   .     S
C2019  C2098   1.526   .     S
O2023  C2024   1.409   .     S
C2024  H2025   1.106   .     S
C2024  C2027   1.532   .     S
C2024  H2026   1.107   .     S
C2027  H1536   1.108   1_565 S
C2027  H1537   1.110   1_565 S
C2027  C2112   1.524   .     S
C2030  H2031   1.109   .     S
C2030  H2033   1.110   .     S
C2030  C2191   1.524   1_455 S
C2030  H1540   1.109   1_565 S
O2034  C2035   1.420   .     S
C2035  H2036   1.111   .     S
C2035  H2037   1.117   .     S
C2035  C2038   1.523   .     S
C2038  H2039   1.096   .     S
C2038  C2041   1.517   .     S
H2040  C1546   1.108   1_565 S
C2041  H2042   1.111   .     S
C2041  H567    1.107   1_556 S
C2041  H568    1.111   1_556 S
C2045  H2046   1.076   .     S
C2045  O2047   1.222   .     D
C2048  O2050   1.222   .     D
C2048  H2049   1.073   .     S
C2051  O2075   1.306   .     A
C2051  C2062   1.446   .     S
C2051  O2073   1.293   .     A
C2052  C2061   1.425   .     S
C2052  O2076   1.292   .     A
C2052  O2074   1.297   .     A
C2053  O2079   1.292   .     A
C2053  C2055   1.413   .     S
C2053  O2077   1.292   .     A
C2054  O2078   1.292   .     A
C2054  C2056   1.413   .     S
C2054  O2080   1.292   .     A
C2056  C2137   1.330   .     S
C2056  H2150   1.088   .     S
C2057  O2083   1.380   .     S
C2057  C2062   1.407   .     A
C2058  O2094   1.387   .     S
C2058  C2061   1.409   .     A
C2058  C1568   1.376   1_565 S
C2059  O2105   1.386   .     S
C2059  C2061   1.403   .     A
C2059  C1565   1.380   1_565 S
C2060  O2116   1.386   .     S
C2060  C2062   1.415   .     A
C2063  H2069   1.077   .     S
C2063  N2072   1.359   .     A
C2064  N2071   1.357   .     A
C2064  H2070   1.083   .     S
C2064  C590    1.426   1_556 S
C2065  C2127   1.479   .     S
C2065  N2071   1.384   .     A
C2065  C587    1.427   1_556 S
C2066  C2130   1.476   .     S
C2066  N2072   1.387   .     A
H2067  C2137   1.088   .     S
N2071  Zn2081  2.037   .     S
N2072  Zn2082  2.037   .     S
O2073  Zn2081  2.006   .     S
O2074  Zn2082  2.006   .     S
O2075  Zn2082  2.021   .     S
O2076  Zn2081  2.021   .     S
O2077  Zn2081  1.992   .     S
O2078  Zn2082  1.992   .     S
O2079  Zn2082  1.995   .     S
O2080  Zn2081  1.995   .     S
O2083  C2084   1.414   .     S
C2084  H2085   1.111   .     S
C2084  H2086   1.110   .     S
C2087  H2088   1.104   .     S
C2087  C2090   1.507   .     S
C2087  H2089   1.107   .     S
C2087  C1592   1.538   1_565 S
C2090  H1599   1.105   1_565 S
C2090  H863    1.104   1_565 S
H2092  C614    1.109   1_556 S
H2093  C368    1.104   1_556 S
O2094  C2095   1.418   .     S
C2095  H2097   1.111   .     S
C2095  H2096   1.111   .     S
C2095  C2098   1.537   .     S
C2098  H2100   1.104   .     S
C2098  H1607   1.102   1_565 S
C2101  H2102   1.109   .     S
C2101  H2104   1.109   .     S
C2101  H2103   1.110   .     S
C2101  C2180   1.526   .     S
O2105  C2106   1.409   .     S
C2106  H2107   1.106   .     S
C2106  C2109   1.532   .     S
C2106  H2108   1.107   .     S
C2109  H1618   1.108   1_565 S
C2109  H1619   1.110   1_565 S
C2109  C2194   1.524   .     S
C2112  H2113   1.109   .     S
C2112  H2115   1.110   .     S
C2112  H1622   1.109   1_565 S
O2116  C2117   1.420   .     S
C2117  H2118   1.111   .     S
C2117  H2119   1.117   .     S
C2117  C2120   1.523   .     S
C2120  H2121   1.096   .     S
C2120  C2123   1.517   .     S
H2122  C1628   1.108   1_565 S
C2123  H2124   1.111   .     S
C2123  H649    1.107   1_556 S
C2123  H650    1.111   1_556 S
C2127  H2128   1.076   .     S
C2127  O2129   1.222   .     D
C2130  O2132   1.222   .     D
C2130  H2131   1.073   .     S
C2133  O2157   1.306   .     A
C2133  C2144   1.446   .     S
C2133  O2155   1.293   .     A
C2134  C2143   1.425   .     S
C2134  O2158   1.292   .     A
C2134  O2156   1.297   .     A
C2135  O2161   1.292   .     A
C2135  C2137   1.413   .     S
C2135  O2159   1.292   .     A
C2136  O2160   1.292   .     A
C2136  C2138   1.413   .     S
C2136  O2162   1.292   .     A
C2138  C1973   1.330   1_655 S
C2138  H1986   1.088   1_655 S
C2139  O2165   1.380   .     S
C2139  C2144   1.407   .     A
C2140  O2176   1.387   .     S
C2140  C2143   1.409   .     A
C2140  C1650   1.376   1_565 S
C2141  O2187   1.386   .     S
C2141  C2143   1.403   .     A
C2141  C1647   1.380   1_565 S
C2142  O2198   1.386   .     S
C2142  C2144   1.415   .     A
C2145  H2151   1.077   .     S
C2145  N2154   1.359   .     A
C2146  N2153   1.357   .     A
C2146  H2152   1.083   .     S
C2146  C672    1.426   1_556 S
C2147  C2209   1.479   .     S
C2147  N2153   1.384   .     A
C2147  C669    1.427   1_556 S
C2148  C2212   1.476   .     S
C2148  N2154   1.387   .     A
H2149  C1973   1.088   1_655 S
N2153  Zn2163  2.037   .     S
N2154  Zn2164  2.037   .     S
O2155  Zn2163  2.006   .     S
O2156  Zn2164  2.006   .     S
O2157  Zn2164  2.021   .     S
O2158  Zn2163  2.021   .     S
O2159  Zn2163  1.992   .     S
O2160  Zn2164  1.992   .     S
O2161  Zn2164  1.995   .     S
O2162  Zn2163  1.995   .     S
O2165  C2166   1.414   .     S
C2166  H2167   1.111   .     S
C2166  H2168   1.110   .     S
C2169  H2170   1.104   .     S
C2169  C2172   1.507   .     S
C2169  H2171   1.107   .     S
C2169  C1674   1.538   1_565 S
C2172  H1681   1.105   1_565 S
C2172  H945    1.104   1_565 S
H2174  C696    1.109   1_556 S
H2175  C450    1.104   1_556 S
O2176  C2177   1.418   .     S
C2177  H2179   1.111   .     S
C2177  H2178   1.111   .     S
C2177  C2180   1.537   .     S
C2180  H2182   1.104   .     S
C2180  H1689   1.102   1_565 S
C2183  H2184   1.109   .     S
C2183  H2186   1.109   .     S
C2183  H2185   1.110   .     S
C2183  C2016   1.526   1_655 S
O2187  C2188   1.409   .     S
C2188  H2189   1.106   .     S
C2188  C2191   1.532   .     S
C2188  H2190   1.107   .     S
C2191  H1700   1.108   1_565 S
C2191  H1701   1.110   1_565 S
C2191  C2030   1.524   1_655 S
C2194  H2195   1.109   .     S
C2194  H2197   1.110   .     S
C2194  H1704   1.109   1_565 S
O2198  C2199   1.420   .     S
C2199  H2200   1.111   .     S
C2199  H2201   1.117   .     S
C2199  C2202   1.523   .     S
C2202  H2203   1.096   .     S
C2202  C2205   1.517   .     S
H2204  C1710   1.108   1_565 S
C2205  H2206   1.111   .     S
C2205  H731    1.107   1_556 S
C2205  H732    1.111   1_556 S
C2209  H2210   1.076   .     S
C2209  O2211   1.222   .     D
C2212  O2214   1.222   .     D
C2212  H2213   1.073   .     S
