data_str_m2_o1_o10_pcu_sym.80
_audit_creation_date              2020-01-03
_audit_creation_method            'Materials Studio'
_symmetry_space_group_name_H-M    'P1'
_symmetry_Int_Tables_number       1
_symmetry_cell_setting            triclinic
loop_
_symmetry_equiv_pos_as_xyz
  x,y,z
_cell_length_a                    26.1327
_cell_length_b                    32.2812
_cell_length_c                    28.5811
_cell_angle_alpha                 90.2504
_cell_angle_beta                  98.3107
_cell_angle_gamma                 90.5291
loop_
_atom_site_label
_atom_site_type_symbol
_atom_site_fract_x
_atom_site_fract_y
_atom_site_fract_z
_atom_site_U_iso_or_equiv
_atom_site_adp_type
_atom_site_occupancy
C1     C     0.16667   0.08749   0.16657   0.00000  Uiso   1.00
C2     C     0.12528   0.02133   0.18189   0.00000  Uiso   1.00
C3     C     0.16687   0.29045   0.16691   0.00000  Uiso   1.00
C4     C     0.16665   0.04288   0.16644   0.00000  Uiso   1.00
C5     C     0.13330   0.14091   0.02081   0.00000  Uiso   1.00
C6     C     0.20065   0.19143   0.31303   0.00000  Uiso   1.00
C7     C     0.13328   0.14175   0.30376   0.00000  Uiso   1.00
C8     C     0.19934   0.19200   0.02939   0.00000  Uiso   1.00
C9     C     0.06651   0.08914   0.01452   0.00000  Uiso   1.00
C10    C     0.01731   0.11244   0.32788   0.00000  Uiso   1.00
C11    C     0.31309   0.08483   0.29554   0.00000  Uiso   1.00
C12    C     0.16679   0.24584   0.16678   0.00000  Uiso   1.00
C13    C     0.28511   0.21501   0.31372   0.00000  Uiso   1.00
C14    C     0.30450   0.25658   0.00235   0.00000  Uiso   1.00
C15    C     0.02714   0.25377   0.02643   0.00000  Uiso   1.00
C16    C     0.06787   0.16661   0.15448   0.00000  Uiso   1.00
C17    C     0.26546   0.16658   0.17883   0.00000  Uiso   1.00
C18    C     0.01248   0.16668   0.14779   0.00000  Uiso   1.00
C19    C     0.32084   0.16626   0.18544   0.00000  Uiso   1.00
C20    C     0.20814   0.02182   0.15123   0.00000  Uiso   1.00
C21    C     0.12540   0.31151   0.18216   0.00000  Uiso   1.00
C22    C     0.20825   0.31200   0.15146   0.00000  Uiso   1.00
Cl23   Cl    0.26104   0.04942   0.13368   0.00000  Uiso   1.00
Cl24   Cl    0.07254   0.28393   0.19984   0.00000  Uiso   1.00
Cl25   Cl    0.26129   0.28505   0.13419   0.00000  Uiso   1.00
Cl26   Cl    0.07226   0.04827   0.19914   0.00000  Uiso   1.00
Cu27   Cu    0.16667   0.16667   0.21355   0.00000  Uiso   1.00
Cu28   Cu    0.16667   0.16666   0.11978   0.00000  Uiso   1.00
H29    H     0.32556   0.16722   0.11178   0.00000  Uiso   1.00
H30    H     0.27746   0.10239   0.28286   0.00000  Uiso   1.00
H31    H     0.30228   0.05710   0.31497   0.00000  Uiso   1.00
H32    H     0.30836   0.20734   0.28533   0.00000  Uiso   1.00
H33    H     0.29255   0.18998   0.00721   0.00000  Uiso   1.00
H34    H     0.30191   0.28052   0.30761   0.00000  Uiso   1.00
H35    H     0.27982   0.26635   0.02887   0.00000  Uiso   1.00
H36    H     0.03030   0.23086   0.05558   0.00000  Uiso   1.00
H37    H     0.04030   0.28447   0.04151   0.00000  Uiso   1.00
H38    H     0.05274   0.24439   0.00048   0.00000  Uiso   1.00
H39    H     0.00782   0.16563   0.22139   0.00000  Uiso   1.00
H40    H     0.10695   0.12310   0.27970   0.00000  Uiso   1.00
H41    H     0.22455   0.21275   0.05209   0.00000  Uiso   1.00
H42    H     0.05489   0.06405   0.03743   0.00000  Uiso   1.00
H43    H     0.08491   0.07266   0.32052   0.00000  Uiso   1.00
H44    H     0.33131   0.12331   0.02446   0.00000  Uiso   1.00
H45    H     0.02710   0.14000   0.30774   0.00000  Uiso   1.00
H46    H     0.33087   0.07481   0.26441   0.00000  Uiso   1.00
N47    N     0.16668   0.16668   0.28403   0.00000  Uiso   1.00
N48    N     0.16665   0.16666   0.04931   0.00000  Uiso   1.00
O49    O     0.16666   0.10655   0.20625   0.00000  Uiso   1.00
O50    O     0.23271   0.21834   0.29271   0.00000  Uiso   1.00
O51    O     0.16667   0.22678   0.12709   0.00000  Uiso   1.00
O52    O     0.16666   0.10654   0.12706   0.00000  Uiso   1.00
O53    O     0.16667   0.22679   0.20628   0.00000  Uiso   1.00
O54    O     0.09161   0.16667   0.19712   0.00000  Uiso   1.00
O55    O     0.24172   0.16666   0.13621   0.00000  Uiso   1.00
O56    O     0.09161   0.16666   0.11793   0.00000  Uiso   1.00
O57    O     0.24172   0.16667   0.21540   0.00000  Uiso   1.00
O58    O     0.10118   0.11547   0.04369   0.00000  Uiso   1.00
C59    C     0.50000   0.08749   0.16657   0.00000  Uiso   1.00
C60    C     0.45862   0.02133   0.18189   0.00000  Uiso   1.00
C61    C     0.50020   0.29045   0.16691   0.00000  Uiso   1.00
C62    C     0.49998   0.04288   0.16644   0.00000  Uiso   1.00
C63    C     0.46663   0.14091   0.02081   0.00000  Uiso   1.00
C64    C     0.53398   0.19143   0.31303   0.00000  Uiso   1.00
C65    C     0.46662   0.14175   0.30376   0.00000  Uiso   1.00
C66    C     0.53268   0.19200   0.02939   0.00000  Uiso   1.00
C67    C     0.39985   0.08914   0.01452   0.00000  Uiso   1.00
C68    C     0.35065   0.11244   0.32788   0.00000  Uiso   1.00
C69    C     0.64642   0.08483   0.29554   0.00000  Uiso   1.00
C70    C     0.50012   0.24584   0.16678   0.00000  Uiso   1.00
C71    C     0.61844   0.21501   0.31372   0.00000  Uiso   1.00
C72    C     0.63784   0.25658   0.00235   0.00000  Uiso   1.00
C73    C     0.36047   0.25377   0.02643   0.00000  Uiso   1.00
C74    C     0.40120   0.16661   0.15448   0.00000  Uiso   1.00
C75    C     0.59879   0.16658   0.17883   0.00000  Uiso   1.00
C76    C     0.34581   0.16668   0.14779   0.00000  Uiso   1.00
C77    C     0.65418   0.16626   0.18544   0.00000  Uiso   1.00
C78    C     0.54147   0.02182   0.15123   0.00000  Uiso   1.00
C79    C     0.45873   0.31151   0.18216   0.00000  Uiso   1.00
C80    C     0.54159   0.31200   0.15146   0.00000  Uiso   1.00
Cl81   Cl    0.59437   0.04942   0.13368   0.00000  Uiso   1.00
Cl82   Cl    0.40588   0.28393   0.19984   0.00000  Uiso   1.00
Cl83   Cl    0.59463   0.28505   0.13419   0.00000  Uiso   1.00
Cl84   Cl    0.40560   0.04827   0.19914   0.00000  Uiso   1.00
Cu85   Cu    0.50000   0.16667   0.21355   0.00000  Uiso   1.00
Cu86   Cu    0.50000   0.16666   0.11978   0.00000  Uiso   1.00
H87    H     0.65889   0.16722   0.11178   0.00000  Uiso   1.00
H88    H     0.61079   0.10239   0.28286   0.00000  Uiso   1.00
H89    H     0.63561   0.05710   0.31497   0.00000  Uiso   1.00
H90    H     0.64169   0.20734   0.28533   0.00000  Uiso   1.00
H91    H     0.62589   0.18998   0.00721   0.00000  Uiso   1.00
H92    H     0.63525   0.28052   0.30761   0.00000  Uiso   1.00
H93    H     0.61315   0.26635   0.02887   0.00000  Uiso   1.00
H94    H     0.36363   0.23086   0.05558   0.00000  Uiso   1.00
H95    H     0.37363   0.28447   0.04151   0.00000  Uiso   1.00
H96    H     0.38607   0.24439   0.00048   0.00000  Uiso   1.00
H97    H     0.34115   0.16563   0.22139   0.00000  Uiso   1.00
H98    H     0.44028   0.12310   0.27970   0.00000  Uiso   1.00
H99    H     0.55788   0.21275   0.05209   0.00000  Uiso   1.00
H100   H     0.38823   0.06405   0.03743   0.00000  Uiso   1.00
H101   H     0.41824   0.07266   0.32052   0.00000  Uiso   1.00
H102   H     0.66464   0.12331   0.02446   0.00000  Uiso   1.00
H103   H     0.36044   0.14000   0.30774   0.00000  Uiso   1.00
H104   H     0.66421   0.07481   0.26441   0.00000  Uiso   1.00
N105   N     0.50001   0.16668   0.28403   0.00000  Uiso   1.00
N106   N     0.49999   0.16666   0.04931   0.00000  Uiso   1.00
O107   O     0.50000   0.10655   0.20625   0.00000  Uiso   1.00
O108   O     0.56604   0.21834   0.29271   0.00000  Uiso   1.00
O109   O     0.50000   0.22678   0.12709   0.00000  Uiso   1.00
O110   O     0.50000   0.10654   0.12706   0.00000  Uiso   1.00
O111   O     0.50000   0.22679   0.20628   0.00000  Uiso   1.00
O112   O     0.42495   0.16667   0.19712   0.00000  Uiso   1.00
O113   O     0.57505   0.16666   0.13621   0.00000  Uiso   1.00
O114   O     0.42494   0.16666   0.11793   0.00000  Uiso   1.00
O115   O     0.57506   0.16667   0.21540   0.00000  Uiso   1.00
O116   O     0.43452   0.11547   0.04369   0.00000  Uiso   1.00
C117   C     0.83333   0.08749   0.16657   0.00000  Uiso   1.00
C118   C     0.79195   0.02133   0.18189   0.00000  Uiso   1.00
C119   C     0.83354   0.29045   0.16691   0.00000  Uiso   1.00
C120   C     0.83331   0.04288   0.16644   0.00000  Uiso   1.00
C121   C     0.79996   0.14091   0.02081   0.00000  Uiso   1.00
C122   C     0.86731   0.19143   0.31303   0.00000  Uiso   1.00
C123   C     0.79995   0.14175   0.30376   0.00000  Uiso   1.00
C124   C     0.86601   0.19200   0.02939   0.00000  Uiso   1.00
C125   C     0.73318   0.08914   0.01452   0.00000  Uiso   1.00
C126   C     0.68398   0.11244   0.32788   0.00000  Uiso   1.00
C127   C     0.97975   0.08483   0.29554   0.00000  Uiso   1.00
C128   C     0.83346   0.24584   0.16678   0.00000  Uiso   1.00
C129   C     0.95178   0.21501   0.31372   0.00000  Uiso   1.00
C130   C     0.97117   0.25658   0.00235   0.00000  Uiso   1.00
C131   C     0.69380   0.25377   0.02643   0.00000  Uiso   1.00
C132   C     0.73454   0.16661   0.15448   0.00000  Uiso   1.00
C133   C     0.93213   0.16658   0.17883   0.00000  Uiso   1.00
C134   C     0.67915   0.16668   0.14779   0.00000  Uiso   1.00
C135   C     0.98751   0.16626   0.18544   0.00000  Uiso   1.00
C136   C     0.87481   0.02182   0.15123   0.00000  Uiso   1.00
C137   C     0.79207   0.31151   0.18216   0.00000  Uiso   1.00
C138   C     0.87492   0.31200   0.15146   0.00000  Uiso   1.00
Cl139  Cl    0.92771   0.04942   0.13368   0.00000  Uiso   1.00
Cl140  Cl    0.73921   0.28393   0.19984   0.00000  Uiso   1.00
Cl141  Cl    0.92796   0.28505   0.13419   0.00000  Uiso   1.00
Cl142  Cl    0.73893   0.04827   0.19914   0.00000  Uiso   1.00
Cu143  Cu    0.83333   0.16667   0.21355   0.00000  Uiso   1.00
Cu144  Cu    0.83333   0.16666   0.11978   0.00000  Uiso   1.00
H145   H     0.99223   0.16722   0.11178   0.00000  Uiso   1.00
H146   H     0.94413   0.10239   0.28286   0.00000  Uiso   1.00
H147   H     0.96894   0.05710   0.31497   0.00000  Uiso   1.00
H148   H     0.97502   0.20734   0.28533   0.00000  Uiso   1.00
H149   H     0.95922   0.18998   0.00721   0.00000  Uiso   1.00
H150   H     0.96858   0.28052   0.30761   0.00000  Uiso   1.00
H151   H     0.94649   0.26635   0.02887   0.00000  Uiso   1.00
H152   H     0.69697   0.23086   0.05558   0.00000  Uiso   1.00
H153   H     0.70697   0.28447   0.04151   0.00000  Uiso   1.00
H154   H     0.71941   0.24439   0.00048   0.00000  Uiso   1.00
H155   H     0.67448   0.16563   0.22139   0.00000  Uiso   1.00
H156   H     0.77361   0.12310   0.27970   0.00000  Uiso   1.00
H157   H     0.89122   0.21275   0.05209   0.00000  Uiso   1.00
H158   H     0.72156   0.06405   0.03743   0.00000  Uiso   1.00
H159   H     0.75158   0.07266   0.32052   0.00000  Uiso   1.00
H160   H     0.99797   0.12331   0.02446   0.00000  Uiso   1.00
H161   H     0.69377   0.14000   0.30774   0.00000  Uiso   1.00
H162   H     0.99754   0.07481   0.26441   0.00000  Uiso   1.00
N163   N     0.83335   0.16668   0.28403   0.00000  Uiso   1.00
N164   N     0.83332   0.16666   0.04931   0.00000  Uiso   1.00
O165   O     0.83333   0.10655   0.20625   0.00000  Uiso   1.00
O166   O     0.89937   0.21834   0.29271   0.00000  Uiso   1.00
O167   O     0.83334   0.22678   0.12709   0.00000  Uiso   1.00
O168   O     0.83333   0.10654   0.12706   0.00000  Uiso   1.00
O169   O     0.83334   0.22679   0.20628   0.00000  Uiso   1.00
O170   O     0.75828   0.16667   0.19712   0.00000  Uiso   1.00
O171   O     0.90839   0.16666   0.13621   0.00000  Uiso   1.00
O172   O     0.75828   0.16666   0.11793   0.00000  Uiso   1.00
O173   O     0.90839   0.16667   0.21540   0.00000  Uiso   1.00
O174   O     0.76785   0.11547   0.04369   0.00000  Uiso   1.00
C175   C     0.16667   0.42082   0.16657   0.00000  Uiso   1.00
C176   C     0.12528   0.35466   0.18189   0.00000  Uiso   1.00
C177   C     0.16687   0.62379   0.16691   0.00000  Uiso   1.00
C178   C     0.16665   0.37621   0.16644   0.00000  Uiso   1.00
C179   C     0.13330   0.47424   0.02081   0.00000  Uiso   1.00
C180   C     0.20065   0.52476   0.31303   0.00000  Uiso   1.00
C181   C     0.13328   0.47508   0.30376   0.00000  Uiso   1.00
C182   C     0.19934   0.52534   0.02939   0.00000  Uiso   1.00
C183   C     0.06651   0.42247   0.01452   0.00000  Uiso   1.00
C184   C     0.01731   0.44578   0.32788   0.00000  Uiso   1.00
C185   C     0.31309   0.41816   0.29554   0.00000  Uiso   1.00
C186   C     0.16679   0.57918   0.16678   0.00000  Uiso   1.00
C187   C     0.28511   0.54834   0.31372   0.00000  Uiso   1.00
C188   C     0.30450   0.58992   0.00235   0.00000  Uiso   1.00
C189   C     0.02714   0.58711   0.02643   0.00000  Uiso   1.00
C190   C     0.06787   0.49994   0.15448   0.00000  Uiso   1.00
C191   C     0.26546   0.49991   0.17883   0.00000  Uiso   1.00
C192   C     0.01248   0.50002   0.14779   0.00000  Uiso   1.00
C193   C     0.32084   0.49959   0.18544   0.00000  Uiso   1.00
C194   C     0.20814   0.35516   0.15123   0.00000  Uiso   1.00
C195   C     0.12540   0.64484   0.18216   0.00000  Uiso   1.00
C196   C     0.20825   0.64533   0.15146   0.00000  Uiso   1.00
Cl197  Cl    0.26104   0.38276   0.13368   0.00000  Uiso   1.00
Cl198  Cl    0.07254   0.61727   0.19984   0.00000  Uiso   1.00
Cl199  Cl    0.26129   0.61838   0.13419   0.00000  Uiso   1.00
Cl200  Cl    0.07226   0.38161   0.19914   0.00000  Uiso   1.00
Cu201  Cu    0.16667   0.50001   0.21355   0.00000  Uiso   1.00
Cu202  Cu    0.16667   0.49999   0.11978   0.00000  Uiso   1.00
H203   H     0.32556   0.50055   0.11178   0.00000  Uiso   1.00
H204   H     0.27746   0.43572   0.28286   0.00000  Uiso   1.00
H205   H     0.30228   0.39044   0.31497   0.00000  Uiso   1.00
H206   H     0.30836   0.54068   0.28533   0.00000  Uiso   1.00
H207   H     0.29255   0.52332   0.00721   0.00000  Uiso   1.00
H208   H     0.30191   0.61385   0.30761   0.00000  Uiso   1.00
H209   H     0.27982   0.59968   0.02887   0.00000  Uiso   1.00
H210   H     0.03030   0.56419   0.05558   0.00000  Uiso   1.00
H211   H     0.04030   0.61781   0.04151   0.00000  Uiso   1.00
H212   H     0.05274   0.57772   0.00048   0.00000  Uiso   1.00
H213   H     0.00782   0.49896   0.22139   0.00000  Uiso   1.00
H214   H     0.10695   0.45643   0.27970   0.00000  Uiso   1.00
H215   H     0.22455   0.54609   0.05209   0.00000  Uiso   1.00
H216   H     0.05489   0.39738   0.03743   0.00000  Uiso   1.00
H217   H     0.08491   0.40599   0.32052   0.00000  Uiso   1.00
H218   H     0.33131   0.45664   0.02446   0.00000  Uiso   1.00
H219   H     0.02710   0.47333   0.30774   0.00000  Uiso   1.00
H220   H     0.33087   0.40814   0.26441   0.00000  Uiso   1.00
N221   N     0.16668   0.50001   0.28403   0.00000  Uiso   1.00
N222   N     0.16665   0.49999   0.04931   0.00000  Uiso   1.00
O223   O     0.16666   0.43989   0.20625   0.00000  Uiso   1.00
O224   O     0.23271   0.55167   0.29271   0.00000  Uiso   1.00
O225   O     0.16667   0.56011   0.12709   0.00000  Uiso   1.00
O226   O     0.16666   0.43988   0.12706   0.00000  Uiso   1.00
O227   O     0.16667   0.56012   0.20628   0.00000  Uiso   1.00
O228   O     0.09161   0.50000   0.19712   0.00000  Uiso   1.00
O229   O     0.24172   0.50000   0.13621   0.00000  Uiso   1.00
O230   O     0.09161   0.49999   0.11793   0.00000  Uiso   1.00
O231   O     0.24172   0.50001   0.21540   0.00000  Uiso   1.00
O232   O     0.10118   0.44880   0.04369   0.00000  Uiso   1.00
C233   C     0.50000   0.42082   0.16657   0.00000  Uiso   1.00
C234   C     0.45862   0.35466   0.18189   0.00000  Uiso   1.00
C235   C     0.50020   0.62379   0.16691   0.00000  Uiso   1.00
C236   C     0.49998   0.37621   0.16644   0.00000  Uiso   1.00
C237   C     0.46663   0.47424   0.02081   0.00000  Uiso   1.00
C238   C     0.53398   0.52476   0.31303   0.00000  Uiso   1.00
C239   C     0.46662   0.47508   0.30376   0.00000  Uiso   1.00
C240   C     0.53268   0.52534   0.02939   0.00000  Uiso   1.00
C241   C     0.39985   0.42247   0.01452   0.00000  Uiso   1.00
C242   C     0.35065   0.44578   0.32788   0.00000  Uiso   1.00
C243   C     0.64642   0.41816   0.29554   0.00000  Uiso   1.00
C244   C     0.50012   0.57918   0.16678   0.00000  Uiso   1.00
C245   C     0.61844   0.54834   0.31372   0.00000  Uiso   1.00
C246   C     0.63784   0.58992   0.00235   0.00000  Uiso   1.00
C247   C     0.36047   0.58711   0.02643   0.00000  Uiso   1.00
C248   C     0.40120   0.49994   0.15448   0.00000  Uiso   1.00
C249   C     0.59879   0.49991   0.17883   0.00000  Uiso   1.00
C250   C     0.34581   0.50002   0.14779   0.00000  Uiso   1.00
C251   C     0.65418   0.49959   0.18544   0.00000  Uiso   1.00
C252   C     0.54147   0.35516   0.15123   0.00000  Uiso   1.00
C253   C     0.45873   0.64484   0.18216   0.00000  Uiso   1.00
C254   C     0.54159   0.64533   0.15146   0.00000  Uiso   1.00
Cl255  Cl    0.59437   0.38276   0.13368   0.00000  Uiso   1.00
Cl256  Cl    0.40588   0.61727   0.19984   0.00000  Uiso   1.00
Cl257  Cl    0.59463   0.61838   0.13419   0.00000  Uiso   1.00
Cl258  Cl    0.40560   0.38161   0.19914   0.00000  Uiso   1.00
Cu259  Cu    0.50000   0.50001   0.21355   0.00000  Uiso   1.00
Cu260  Cu    0.50000   0.49999   0.11978   0.00000  Uiso   1.00
H261   H     0.65889   0.50055   0.11178   0.00000  Uiso   1.00
H262   H     0.61079   0.43572   0.28286   0.00000  Uiso   1.00
H263   H     0.63561   0.39044   0.31497   0.00000  Uiso   1.00
H264   H     0.64169   0.54068   0.28533   0.00000  Uiso   1.00
H265   H     0.62589   0.52332   0.00721   0.00000  Uiso   1.00
H266   H     0.63525   0.61385   0.30761   0.00000  Uiso   1.00
H267   H     0.61315   0.59968   0.02887   0.00000  Uiso   1.00
H268   H     0.36363   0.56419   0.05558   0.00000  Uiso   1.00
H269   H     0.37363   0.61781   0.04151   0.00000  Uiso   1.00
H270   H     0.38607   0.57772   0.00048   0.00000  Uiso   1.00
H271   H     0.34115   0.49896   0.22139   0.00000  Uiso   1.00
H272   H     0.44028   0.45643   0.27970   0.00000  Uiso   1.00
H273   H     0.55788   0.54609   0.05209   0.00000  Uiso   1.00
H274   H     0.38823   0.39738   0.03743   0.00000  Uiso   1.00
H275   H     0.41824   0.40599   0.32052   0.00000  Uiso   1.00
H276   H     0.66464   0.45664   0.02446   0.00000  Uiso   1.00
H277   H     0.36044   0.47333   0.30774   0.00000  Uiso   1.00
H278   H     0.66421   0.40814   0.26441   0.00000  Uiso   1.00
N279   N     0.50001   0.50001   0.28403   0.00000  Uiso   1.00
N280   N     0.49999   0.49999   0.04931   0.00000  Uiso   1.00
O281   O     0.50000   0.43989   0.20625   0.00000  Uiso   1.00
O282   O     0.56604   0.55167   0.29271   0.00000  Uiso   1.00
O283   O     0.50000   0.56011   0.12709   0.00000  Uiso   1.00
O284   O     0.50000   0.43988   0.12706   0.00000  Uiso   1.00
O285   O     0.50000   0.56012   0.20628   0.00000  Uiso   1.00
O286   O     0.42495   0.50000   0.19712   0.00000  Uiso   1.00
O287   O     0.57505   0.50000   0.13621   0.00000  Uiso   1.00
O288   O     0.42494   0.49999   0.11793   0.00000  Uiso   1.00
O289   O     0.57506   0.50001   0.21540   0.00000  Uiso   1.00
O290   O     0.43452   0.44880   0.04369   0.00000  Uiso   1.00
C291   C     0.83333   0.42082   0.16657   0.00000  Uiso   1.00
C292   C     0.79195   0.35466   0.18189   0.00000  Uiso   1.00
C293   C     0.83354   0.62379   0.16691   0.00000  Uiso   1.00
C294   C     0.83331   0.37621   0.16644   0.00000  Uiso   1.00
C295   C     0.79996   0.47424   0.02081   0.00000  Uiso   1.00
C296   C     0.86731   0.52476   0.31303   0.00000  Uiso   1.00
C297   C     0.79995   0.47508   0.30376   0.00000  Uiso   1.00
C298   C     0.86601   0.52534   0.02939   0.00000  Uiso   1.00
C299   C     0.73318   0.42247   0.01452   0.00000  Uiso   1.00
C300   C     0.68398   0.44578   0.32788   0.00000  Uiso   1.00
C301   C     0.97975   0.41816   0.29554   0.00000  Uiso   1.00
C302   C     0.83346   0.57918   0.16678   0.00000  Uiso   1.00
C303   C     0.95178   0.54834   0.31372   0.00000  Uiso   1.00
C304   C     0.97117   0.58992   0.00235   0.00000  Uiso   1.00
C305   C     0.69380   0.58711   0.02643   0.00000  Uiso   1.00
C306   C     0.73454   0.49994   0.15448   0.00000  Uiso   1.00
C307   C     0.93213   0.49991   0.17883   0.00000  Uiso   1.00
C308   C     0.67915   0.50002   0.14779   0.00000  Uiso   1.00
C309   C     0.98751   0.49959   0.18544   0.00000  Uiso   1.00
C310   C     0.87481   0.35516   0.15123   0.00000  Uiso   1.00
C311   C     0.79207   0.64484   0.18216   0.00000  Uiso   1.00
C312   C     0.87492   0.64533   0.15146   0.00000  Uiso   1.00
Cl313  Cl    0.92771   0.38276   0.13368   0.00000  Uiso   1.00
Cl314  Cl    0.73921   0.61727   0.19984   0.00000  Uiso   1.00
Cl315  Cl    0.92796   0.61838   0.13419   0.00000  Uiso   1.00
Cl316  Cl    0.73893   0.38161   0.19914   0.00000  Uiso   1.00
Cu317  Cu    0.83333   0.50001   0.21355   0.00000  Uiso   1.00
Cu318  Cu    0.83333   0.49999   0.11978   0.00000  Uiso   1.00
H319   H     0.99223   0.50055   0.11178   0.00000  Uiso   1.00
H320   H     0.94413   0.43572   0.28286   0.00000  Uiso   1.00
H321   H     0.96894   0.39044   0.31497   0.00000  Uiso   1.00
H322   H     0.97502   0.54068   0.28533   0.00000  Uiso   1.00
H323   H     0.95922   0.52332   0.00721   0.00000  Uiso   1.00
H324   H     0.96858   0.61385   0.30761   0.00000  Uiso   1.00
H325   H     0.94649   0.59968   0.02887   0.00000  Uiso   1.00
H326   H     0.69697   0.56419   0.05558   0.00000  Uiso   1.00
H327   H     0.70697   0.61781   0.04151   0.00000  Uiso   1.00
H328   H     0.71941   0.57772   0.00048   0.00000  Uiso   1.00
H329   H     0.67448   0.49896   0.22139   0.00000  Uiso   1.00
H330   H     0.77361   0.45643   0.27970   0.00000  Uiso   1.00
H331   H     0.89122   0.54609   0.05209   0.00000  Uiso   1.00
H332   H     0.72156   0.39738   0.03743   0.00000  Uiso   1.00
H333   H     0.75158   0.40599   0.32052   0.00000  Uiso   1.00
H334   H     0.99797   0.45664   0.02446   0.00000  Uiso   1.00
H335   H     0.69377   0.47333   0.30774   0.00000  Uiso   1.00
H336   H     0.99754   0.40814   0.26441   0.00000  Uiso   1.00
N337   N     0.83335   0.50001   0.28403   0.00000  Uiso   1.00
N338   N     0.83332   0.49999   0.04931   0.00000  Uiso   1.00
O339   O     0.83333   0.43989   0.20625   0.00000  Uiso   1.00
O340   O     0.89937   0.55167   0.29271   0.00000  Uiso   1.00
O341   O     0.83334   0.56011   0.12709   0.00000  Uiso   1.00
O342   O     0.83333   0.43988   0.12706   0.00000  Uiso   1.00
O343   O     0.83334   0.56012   0.20628   0.00000  Uiso   1.00
O344   O     0.75828   0.50000   0.19712   0.00000  Uiso   1.00
O345   O     0.90839   0.50000   0.13621   0.00000  Uiso   1.00
O346   O     0.75828   0.49999   0.11793   0.00000  Uiso   1.00
O347   O     0.90839   0.50001   0.21540   0.00000  Uiso   1.00
O348   O     0.76785   0.44880   0.04369   0.00000  Uiso   1.00
C349   C     0.16667   0.75415   0.16657   0.00000  Uiso   1.00
C350   C     0.12528   0.68799   0.18189   0.00000  Uiso   1.00
C351   C     0.16687   0.95712   0.16691   0.00000  Uiso   1.00
C352   C     0.16665   0.70954   0.16644   0.00000  Uiso   1.00
C353   C     0.13330   0.80758   0.02081   0.00000  Uiso   1.00
C354   C     0.20065   0.85810   0.31303   0.00000  Uiso   1.00
C355   C     0.13328   0.80842   0.30376   0.00000  Uiso   1.00
C356   C     0.19934   0.85867   0.02939   0.00000  Uiso   1.00
C357   C     0.06651   0.75581   0.01452   0.00000  Uiso   1.00
C358   C     0.01731   0.77911   0.32788   0.00000  Uiso   1.00
C359   C     0.31309   0.75149   0.29554   0.00000  Uiso   1.00
C360   C     0.16679   0.91251   0.16678   0.00000  Uiso   1.00
C361   C     0.28511   0.88167   0.31372   0.00000  Uiso   1.00
C362   C     0.30450   0.92325   0.00235   0.00000  Uiso   1.00
C363   C     0.02714   0.92044   0.02643   0.00000  Uiso   1.00
C364   C     0.06787   0.83327   0.15448   0.00000  Uiso   1.00
C365   C     0.26546   0.83324   0.17883   0.00000  Uiso   1.00
C366   C     0.01248   0.83335   0.14779   0.00000  Uiso   1.00
C367   C     0.32084   0.83293   0.18544   0.00000  Uiso   1.00
C368   C     0.20814   0.68849   0.15123   0.00000  Uiso   1.00
C369   C     0.12540   0.97818   0.18216   0.00000  Uiso   1.00
C370   C     0.20825   0.97866   0.15146   0.00000  Uiso   1.00
Cl371  Cl    0.26104   0.71609   0.13368   0.00000  Uiso   1.00
Cl372  Cl    0.07254   0.95060   0.19984   0.00000  Uiso   1.00
Cl373  Cl    0.26129   0.95171   0.13419   0.00000  Uiso   1.00
Cl374  Cl    0.07226   0.71494   0.19914   0.00000  Uiso   1.00
Cu375  Cu    0.16667   0.83334   0.21355   0.00000  Uiso   1.00
Cu376  Cu    0.16667   0.83333   0.11978   0.00000  Uiso   1.00
H377   H     0.32556   0.83388   0.11178   0.00000  Uiso   1.00
H378   H     0.27746   0.76906   0.28286   0.00000  Uiso   1.00
H379   H     0.30228   0.72377   0.31497   0.00000  Uiso   1.00
H380   H     0.30836   0.87401   0.28533   0.00000  Uiso   1.00
H381   H     0.29255   0.85665   0.00721   0.00000  Uiso   1.00
H382   H     0.30191   0.94719   0.30761   0.00000  Uiso   1.00
H383   H     0.27982   0.93301   0.02887   0.00000  Uiso   1.00
H384   H     0.03030   0.89752   0.05558   0.00000  Uiso   1.00
H385   H     0.04030   0.95114   0.04151   0.00000  Uiso   1.00
H386   H     0.05274   0.91105   0.00048   0.00000  Uiso   1.00
H387   H     0.00782   0.83230   0.22139   0.00000  Uiso   1.00
H388   H     0.10695   0.78976   0.27970   0.00000  Uiso   1.00
H389   H     0.22455   0.87942   0.05209   0.00000  Uiso   1.00
H390   H     0.05489   0.73072   0.03743   0.00000  Uiso   1.00
H391   H     0.08491   0.73932   0.32052   0.00000  Uiso   1.00
H392   H     0.33131   0.78998   0.02446   0.00000  Uiso   1.00
H393   H     0.02710   0.80667   0.30774   0.00000  Uiso   1.00
H394   H     0.33087   0.74147   0.26441   0.00000  Uiso   1.00
N395   N     0.16668   0.83334   0.28403   0.00000  Uiso   1.00
N396   N     0.16665   0.83332   0.04931   0.00000  Uiso   1.00
O397   O     0.16666   0.77322   0.20625   0.00000  Uiso   1.00
O398   O     0.23271   0.88500   0.29271   0.00000  Uiso   1.00
O399   O     0.16667   0.89345   0.12709   0.00000  Uiso   1.00
O400   O     0.16666   0.77321   0.12706   0.00000  Uiso   1.00
O401   O     0.16667   0.89346   0.20628   0.00000  Uiso   1.00
O402   O     0.09161   0.83334   0.19712   0.00000  Uiso   1.00
O403   O     0.24172   0.83333   0.13621   0.00000  Uiso   1.00
O404   O     0.09161   0.83333   0.11793   0.00000  Uiso   1.00
O405   O     0.24172   0.83334   0.21540   0.00000  Uiso   1.00
O406   O     0.10118   0.78214   0.04369   0.00000  Uiso   1.00
C407   C     0.50000   0.75415   0.16657   0.00000  Uiso   1.00
C408   C     0.45862   0.68799   0.18189   0.00000  Uiso   1.00
C409   C     0.50020   0.95712   0.16691   0.00000  Uiso   1.00
C410   C     0.49998   0.70954   0.16644   0.00000  Uiso   1.00
C411   C     0.46663   0.80758   0.02081   0.00000  Uiso   1.00
C412   C     0.53398   0.85810   0.31303   0.00000  Uiso   1.00
C413   C     0.46662   0.80842   0.30376   0.00000  Uiso   1.00
C414   C     0.53268   0.85867   0.02939   0.00000  Uiso   1.00
C415   C     0.39985   0.75581   0.01452   0.00000  Uiso   1.00
C416   C     0.35065   0.77911   0.32788   0.00000  Uiso   1.00
C417   C     0.64642   0.75149   0.29554   0.00000  Uiso   1.00
C418   C     0.50012   0.91251   0.16678   0.00000  Uiso   1.00
C419   C     0.61844   0.88167   0.31372   0.00000  Uiso   1.00
C420   C     0.63784   0.92325   0.00235   0.00000  Uiso   1.00
C421   C     0.36047   0.92044   0.02643   0.00000  Uiso   1.00
C422   C     0.40120   0.83327   0.15448   0.00000  Uiso   1.00
C423   C     0.59879   0.83324   0.17883   0.00000  Uiso   1.00
C424   C     0.34581   0.83335   0.14779   0.00000  Uiso   1.00
C425   C     0.65418   0.83293   0.18544   0.00000  Uiso   1.00
C426   C     0.54147   0.68849   0.15123   0.00000  Uiso   1.00
C427   C     0.45873   0.97818   0.18216   0.00000  Uiso   1.00
C428   C     0.54159   0.97866   0.15146   0.00000  Uiso   1.00
Cl429  Cl    0.59437   0.71609   0.13368   0.00000  Uiso   1.00
Cl430  Cl    0.40588   0.95060   0.19984   0.00000  Uiso   1.00
Cl431  Cl    0.59463   0.95171   0.13419   0.00000  Uiso   1.00
Cl432  Cl    0.40560   0.71494   0.19914   0.00000  Uiso   1.00
Cu433  Cu    0.50000   0.83334   0.21355   0.00000  Uiso   1.00
Cu434  Cu    0.50000   0.83333   0.11978   0.00000  Uiso   1.00
H435   H     0.65889   0.83388   0.11178   0.00000  Uiso   1.00
H436   H     0.61079   0.76906   0.28286   0.00000  Uiso   1.00
H437   H     0.63561   0.72377   0.31497   0.00000  Uiso   1.00
H438   H     0.64169   0.87401   0.28533   0.00000  Uiso   1.00
H439   H     0.62589   0.85665   0.00721   0.00000  Uiso   1.00
H440   H     0.63525   0.94719   0.30761   0.00000  Uiso   1.00
H441   H     0.61315   0.93301   0.02887   0.00000  Uiso   1.00
H442   H     0.36363   0.89752   0.05558   0.00000  Uiso   1.00
H443   H     0.37363   0.95114   0.04151   0.00000  Uiso   1.00
H444   H     0.38607   0.91105   0.00048   0.00000  Uiso   1.00
H445   H     0.34115   0.83230   0.22139   0.00000  Uiso   1.00
H446   H     0.44028   0.78976   0.27970   0.00000  Uiso   1.00
H447   H     0.55788   0.87942   0.05209   0.00000  Uiso   1.00
H448   H     0.38823   0.73072   0.03743   0.00000  Uiso   1.00
H449   H     0.41824   0.73932   0.32052   0.00000  Uiso   1.00
H450   H     0.66464   0.78998   0.02446   0.00000  Uiso   1.00
H451   H     0.36044   0.80667   0.30774   0.00000  Uiso   1.00
H452   H     0.66421   0.74147   0.26441   0.00000  Uiso   1.00
N453   N     0.50001   0.83334   0.28403   0.00000  Uiso   1.00
N454   N     0.49999   0.83332   0.04931   0.00000  Uiso   1.00
O455   O     0.50000   0.77322   0.20625   0.00000  Uiso   1.00
O456   O     0.56604   0.88500   0.29271   0.00000  Uiso   1.00
O457   O     0.50000   0.89345   0.12709   0.00000  Uiso   1.00
O458   O     0.50000   0.77321   0.12706   0.00000  Uiso   1.00
O459   O     0.50000   0.89346   0.20628   0.00000  Uiso   1.00
O460   O     0.42495   0.83334   0.19712   0.00000  Uiso   1.00
O461   O     0.57505   0.83333   0.13621   0.00000  Uiso   1.00
O462   O     0.42494   0.83333   0.11793   0.00000  Uiso   1.00
O463   O     0.57506   0.83334   0.21540   0.00000  Uiso   1.00
O464   O     0.43452   0.78214   0.04369   0.00000  Uiso   1.00
C465   C     0.83333   0.75415   0.16657   0.00000  Uiso   1.00
C466   C     0.79195   0.68799   0.18189   0.00000  Uiso   1.00
C467   C     0.83354   0.95712   0.16691   0.00000  Uiso   1.00
C468   C     0.83331   0.70954   0.16644   0.00000  Uiso   1.00
C469   C     0.79996   0.80758   0.02081   0.00000  Uiso   1.00
C470   C     0.86731   0.85810   0.31303   0.00000  Uiso   1.00
C471   C     0.79995   0.80842   0.30376   0.00000  Uiso   1.00
C472   C     0.86601   0.85867   0.02939   0.00000  Uiso   1.00
C473   C     0.73318   0.75581   0.01452   0.00000  Uiso   1.00
C474   C     0.68398   0.77911   0.32788   0.00000  Uiso   1.00
C475   C     0.97975   0.75149   0.29554   0.00000  Uiso   1.00
C476   C     0.83346   0.91251   0.16678   0.00000  Uiso   1.00
C477   C     0.95178   0.88167   0.31372   0.00000  Uiso   1.00
C478   C     0.97117   0.92325   0.00235   0.00000  Uiso   1.00
C479   C     0.69380   0.92044   0.02643   0.00000  Uiso   1.00
C480   C     0.73454   0.83327   0.15448   0.00000  Uiso   1.00
C481   C     0.93213   0.83324   0.17883   0.00000  Uiso   1.00
C482   C     0.67915   0.83335   0.14779   0.00000  Uiso   1.00
C483   C     0.98751   0.83293   0.18544   0.00000  Uiso   1.00
C484   C     0.87481   0.68849   0.15123   0.00000  Uiso   1.00
C485   C     0.79207   0.97818   0.18216   0.00000  Uiso   1.00
C486   C     0.87492   0.97866   0.15146   0.00000  Uiso   1.00
Cl487  Cl    0.92771   0.71609   0.13368   0.00000  Uiso   1.00
Cl488  Cl    0.73921   0.95060   0.19984   0.00000  Uiso   1.00
Cl489  Cl    0.92796   0.95171   0.13419   0.00000  Uiso   1.00
Cl490  Cl    0.73893   0.71494   0.19914   0.00000  Uiso   1.00
Cu491  Cu    0.83333   0.83334   0.21355   0.00000  Uiso   1.00
Cu492  Cu    0.83333   0.83333   0.11978   0.00000  Uiso   1.00
H493   H     0.99223   0.83388   0.11178   0.00000  Uiso   1.00
H494   H     0.94413   0.76906   0.28286   0.00000  Uiso   1.00
H495   H     0.96894   0.72377   0.31497   0.00000  Uiso   1.00
H496   H     0.97502   0.87401   0.28533   0.00000  Uiso   1.00
H497   H     0.95922   0.85665   0.00721   0.00000  Uiso   1.00
H498   H     0.96858   0.94719   0.30761   0.00000  Uiso   1.00
H499   H     0.94649   0.93301   0.02887   0.00000  Uiso   1.00
H500   H     0.69697   0.89752   0.05558   0.00000  Uiso   1.00
H501   H     0.70697   0.95114   0.04151   0.00000  Uiso   1.00
H502   H     0.71941   0.91105   0.00048   0.00000  Uiso   1.00
H503   H     0.67448   0.83230   0.22139   0.00000  Uiso   1.00
H504   H     0.77361   0.78976   0.27970   0.00000  Uiso   1.00
H505   H     0.89122   0.87942   0.05209   0.00000  Uiso   1.00
H506   H     0.72156   0.73072   0.03743   0.00000  Uiso   1.00
H507   H     0.75158   0.73932   0.32052   0.00000  Uiso   1.00
H508   H     0.99797   0.78998   0.02446   0.00000  Uiso   1.00
H509   H     0.69377   0.80667   0.30774   0.00000  Uiso   1.00
H510   H     0.99754   0.74147   0.26441   0.00000  Uiso   1.00
N511   N     0.83335   0.83334   0.28403   0.00000  Uiso   1.00
N512   N     0.83332   0.83332   0.04931   0.00000  Uiso   1.00
O513   O     0.83333   0.77322   0.20625   0.00000  Uiso   1.00
O514   O     0.89937   0.88500   0.29271   0.00000  Uiso   1.00
O515   O     0.83334   0.89345   0.12709   0.00000  Uiso   1.00
O516   O     0.83333   0.77321   0.12706   0.00000  Uiso   1.00
O517   O     0.83334   0.89346   0.20628   0.00000  Uiso   1.00
O518   O     0.75828   0.83334   0.19712   0.00000  Uiso   1.00
O519   O     0.90839   0.83333   0.13621   0.00000  Uiso   1.00
O520   O     0.75828   0.83333   0.11793   0.00000  Uiso   1.00
O521   O     0.90839   0.83334   0.21540   0.00000  Uiso   1.00
O522   O     0.76785   0.78214   0.04369   0.00000  Uiso   1.00
C523   C     0.16667   0.08749   0.49991   0.00000  Uiso   1.00
C524   C     0.12528   0.02133   0.51522   0.00000  Uiso   1.00
C525   C     0.16687   0.29045   0.50024   0.00000  Uiso   1.00
C526   C     0.16665   0.04288   0.49978   0.00000  Uiso   1.00
C527   C     0.13330   0.14091   0.35415   0.00000  Uiso   1.00
C528   C     0.20065   0.19143   0.64636   0.00000  Uiso   1.00
C529   C     0.13328   0.14175   0.63709   0.00000  Uiso   1.00
C530   C     0.19934   0.19200   0.36272   0.00000  Uiso   1.00
C531   C     0.06651   0.08914   0.34785   0.00000  Uiso   1.00
C532   C     0.01731   0.11244   0.66121   0.00000  Uiso   1.00
C533   C     0.31309   0.08483   0.62887   0.00000  Uiso   1.00
C534   C     0.16679   0.24584   0.50011   0.00000  Uiso   1.00
C535   C     0.28511   0.21501   0.64706   0.00000  Uiso   1.00
C536   C     0.30450   0.25658   0.33569   0.00000  Uiso   1.00
C537   C     0.02714   0.25377   0.35976   0.00000  Uiso   1.00
C538   C     0.06787   0.16661   0.48781   0.00000  Uiso   1.00
C539   C     0.26546   0.16658   0.51217   0.00000  Uiso   1.00
C540   C     0.01248   0.16668   0.48113   0.00000  Uiso   1.00
C541   C     0.32084   0.16626   0.51877   0.00000  Uiso   1.00
C542   C     0.20814   0.02182   0.48456   0.00000  Uiso   1.00
C543   C     0.12540   0.31151   0.51549   0.00000  Uiso   1.00
C544   C     0.20825   0.31200   0.48479   0.00000  Uiso   1.00
Cl545  Cl    0.26104   0.04942   0.46701   0.00000  Uiso   1.00
Cl546  Cl    0.07254   0.28393   0.53317   0.00000  Uiso   1.00
Cl547  Cl    0.26129   0.28505   0.46752   0.00000  Uiso   1.00
Cl548  Cl    0.07226   0.04827   0.53247   0.00000  Uiso   1.00
Cu549  Cu    0.16667   0.16667   0.54689   0.00000  Uiso   1.00
Cu550  Cu    0.16667   0.16666   0.45311   0.00000  Uiso   1.00
H551   H     0.32556   0.16722   0.44511   0.00000  Uiso   1.00
H552   H     0.27746   0.10239   0.61619   0.00000  Uiso   1.00
H553   H     0.30228   0.05710   0.64830   0.00000  Uiso   1.00
H554   H     0.30836   0.20734   0.61866   0.00000  Uiso   1.00
H555   H     0.29255   0.18998   0.34055   0.00000  Uiso   1.00
H556   H     0.30191   0.28052   0.64094   0.00000  Uiso   1.00
H557   H     0.27982   0.26635   0.36221   0.00000  Uiso   1.00
H558   H     0.03030   0.23086   0.38891   0.00000  Uiso   1.00
H559   H     0.04030   0.28447   0.37484   0.00000  Uiso   1.00
H560   H     0.05274   0.24439   0.33381   0.00000  Uiso   1.00
H561   H     0.00782   0.16563   0.55473   0.00000  Uiso   1.00
H562   H     0.10695   0.12310   0.61304   0.00000  Uiso   1.00
H563   H     0.22455   0.21275   0.38542   0.00000  Uiso   1.00
H564   H     0.05489   0.06405   0.37077   0.00000  Uiso   1.00
H565   H     0.08491   0.07266   0.65386   0.00000  Uiso   1.00
H566   H     0.33131   0.12331   0.35780   0.00000  Uiso   1.00
H567   H     0.02710   0.14000   0.64108   0.00000  Uiso   1.00
H568   H     0.33087   0.07481   0.59775   0.00000  Uiso   1.00
N569   N     0.16668   0.16668   0.61736   0.00000  Uiso   1.00
N570   N     0.16665   0.16666   0.38264   0.00000  Uiso   1.00
O571   O     0.16666   0.10655   0.53958   0.00000  Uiso   1.00
O572   O     0.23271   0.21834   0.62604   0.00000  Uiso   1.00
O573   O     0.16667   0.22678   0.46042   0.00000  Uiso   1.00
O574   O     0.16666   0.10654   0.46039   0.00000  Uiso   1.00
O575   O     0.16667   0.22679   0.53961   0.00000  Uiso   1.00
O576   O     0.09161   0.16667   0.53046   0.00000  Uiso   1.00
O577   O     0.24172   0.16666   0.46954   0.00000  Uiso   1.00
O578   O     0.09161   0.16666   0.45127   0.00000  Uiso   1.00
O579   O     0.24172   0.16667   0.54873   0.00000  Uiso   1.00
O580   O     0.10118   0.11547   0.37702   0.00000  Uiso   1.00
C581   C     0.50000   0.08749   0.49991   0.00000  Uiso   1.00
C582   C     0.45862   0.02133   0.51522   0.00000  Uiso   1.00
C583   C     0.50020   0.29045   0.50024   0.00000  Uiso   1.00
C584   C     0.49998   0.04288   0.49978   0.00000  Uiso   1.00
C585   C     0.46663   0.14091   0.35415   0.00000  Uiso   1.00
C586   C     0.53398   0.19143   0.64636   0.00000  Uiso   1.00
C587   C     0.46662   0.14175   0.63709   0.00000  Uiso   1.00
C588   C     0.53268   0.19200   0.36272   0.00000  Uiso   1.00
C589   C     0.39985   0.08914   0.34785   0.00000  Uiso   1.00
C590   C     0.35065   0.11244   0.66121   0.00000  Uiso   1.00
C591   C     0.64642   0.08483   0.62887   0.00000  Uiso   1.00
C592   C     0.50012   0.24584   0.50011   0.00000  Uiso   1.00
C593   C     0.61844   0.21501   0.64706   0.00000  Uiso   1.00
C594   C     0.63784   0.25658   0.33569   0.00000  Uiso   1.00
C595   C     0.36047   0.25377   0.35976   0.00000  Uiso   1.00
C596   C     0.40120   0.16661   0.48781   0.00000  Uiso   1.00
C597   C     0.59879   0.16658   0.51217   0.00000  Uiso   1.00
C598   C     0.34581   0.16668   0.48113   0.00000  Uiso   1.00
C599   C     0.65418   0.16626   0.51877   0.00000  Uiso   1.00
C600   C     0.54147   0.02182   0.48456   0.00000  Uiso   1.00
C601   C     0.45873   0.31151   0.51549   0.00000  Uiso   1.00
C602   C     0.54159   0.31200   0.48479   0.00000  Uiso   1.00
Cl603  Cl    0.59437   0.04942   0.46701   0.00000  Uiso   1.00
Cl604  Cl    0.40588   0.28393   0.53317   0.00000  Uiso   1.00
Cl605  Cl    0.59463   0.28505   0.46752   0.00000  Uiso   1.00
Cl606  Cl    0.40560   0.04827   0.53247   0.00000  Uiso   1.00
Cu607  Cu    0.50000   0.16667   0.54689   0.00000  Uiso   1.00
Cu608  Cu    0.50000   0.16666   0.45311   0.00000  Uiso   1.00
H609   H     0.65889   0.16722   0.44511   0.00000  Uiso   1.00
H610   H     0.61079   0.10239   0.61619   0.00000  Uiso   1.00
H611   H     0.63561   0.05710   0.64830   0.00000  Uiso   1.00
H612   H     0.64169   0.20734   0.61866   0.00000  Uiso   1.00
H613   H     0.62589   0.18998   0.34055   0.00000  Uiso   1.00
H614   H     0.63525   0.28052   0.64094   0.00000  Uiso   1.00
H615   H     0.61315   0.26635   0.36221   0.00000  Uiso   1.00
H616   H     0.36363   0.23086   0.38891   0.00000  Uiso   1.00
H617   H     0.37363   0.28447   0.37484   0.00000  Uiso   1.00
H618   H     0.38607   0.24439   0.33381   0.00000  Uiso   1.00
H619   H     0.34115   0.16563   0.55473   0.00000  Uiso   1.00
H620   H     0.44028   0.12310   0.61304   0.00000  Uiso   1.00
H621   H     0.55788   0.21275   0.38542   0.00000  Uiso   1.00
H622   H     0.38823   0.06405   0.37077   0.00000  Uiso   1.00
H623   H     0.41824   0.07266   0.65386   0.00000  Uiso   1.00
H624   H     0.66464   0.12331   0.35780   0.00000  Uiso   1.00
H625   H     0.36044   0.14000   0.64108   0.00000  Uiso   1.00
H626   H     0.66421   0.07481   0.59775   0.00000  Uiso   1.00
N627   N     0.50001   0.16668   0.61736   0.00000  Uiso   1.00
N628   N     0.49999   0.16666   0.38264   0.00000  Uiso   1.00
O629   O     0.50000   0.10655   0.53958   0.00000  Uiso   1.00
O630   O     0.56604   0.21834   0.62604   0.00000  Uiso   1.00
O631   O     0.50000   0.22678   0.46042   0.00000  Uiso   1.00
O632   O     0.50000   0.10654   0.46039   0.00000  Uiso   1.00
O633   O     0.50000   0.22679   0.53961   0.00000  Uiso   1.00
O634   O     0.42495   0.16667   0.53046   0.00000  Uiso   1.00
O635   O     0.57505   0.16666   0.46954   0.00000  Uiso   1.00
O636   O     0.42494   0.16666   0.45127   0.00000  Uiso   1.00
O637   O     0.57506   0.16667   0.54873   0.00000  Uiso   1.00
O638   O     0.43452   0.11547   0.37702   0.00000  Uiso   1.00
C639   C     0.83333   0.08749   0.49991   0.00000  Uiso   1.00
C640   C     0.79195   0.02133   0.51522   0.00000  Uiso   1.00
C641   C     0.83354   0.29045   0.50024   0.00000  Uiso   1.00
C642   C     0.83331   0.04288   0.49978   0.00000  Uiso   1.00
C643   C     0.79996   0.14091   0.35415   0.00000  Uiso   1.00
C644   C     0.86731   0.19143   0.64636   0.00000  Uiso   1.00
C645   C     0.79995   0.14175   0.63709   0.00000  Uiso   1.00
C646   C     0.86601   0.19200   0.36272   0.00000  Uiso   1.00
C647   C     0.73318   0.08914   0.34785   0.00000  Uiso   1.00
C648   C     0.68398   0.11244   0.66121   0.00000  Uiso   1.00
C649   C     0.97975   0.08483   0.62887   0.00000  Uiso   1.00
C650   C     0.83346   0.24584   0.50011   0.00000  Uiso   1.00
C651   C     0.95178   0.21501   0.64706   0.00000  Uiso   1.00
C652   C     0.97117   0.25658   0.33569   0.00000  Uiso   1.00
C653   C     0.69380   0.25377   0.35976   0.00000  Uiso   1.00
C654   C     0.73454   0.16661   0.48781   0.00000  Uiso   1.00
C655   C     0.93213   0.16658   0.51217   0.00000  Uiso   1.00
C656   C     0.67915   0.16668   0.48113   0.00000  Uiso   1.00
C657   C     0.98751   0.16626   0.51877   0.00000  Uiso   1.00
C658   C     0.87481   0.02182   0.48456   0.00000  Uiso   1.00
C659   C     0.79207   0.31151   0.51549   0.00000  Uiso   1.00
C660   C     0.87492   0.31200   0.48479   0.00000  Uiso   1.00
Cl661  Cl    0.92771   0.04942   0.46701   0.00000  Uiso   1.00
Cl662  Cl    0.73921   0.28393   0.53317   0.00000  Uiso   1.00
Cl663  Cl    0.92796   0.28505   0.46752   0.00000  Uiso   1.00
Cl664  Cl    0.73893   0.04827   0.53247   0.00000  Uiso   1.00
Cu665  Cu    0.83333   0.16667   0.54689   0.00000  Uiso   1.00
Cu666  Cu    0.83333   0.16666   0.45311   0.00000  Uiso   1.00
H667   H     0.99223   0.16722   0.44511   0.00000  Uiso   1.00
H668   H     0.94413   0.10239   0.61619   0.00000  Uiso   1.00
H669   H     0.96894   0.05710   0.64830   0.00000  Uiso   1.00
H670   H     0.97502   0.20734   0.61866   0.00000  Uiso   1.00
H671   H     0.95922   0.18998   0.34055   0.00000  Uiso   1.00
H672   H     0.96858   0.28052   0.64094   0.00000  Uiso   1.00
H673   H     0.94649   0.26635   0.36221   0.00000  Uiso   1.00
H674   H     0.69697   0.23086   0.38891   0.00000  Uiso   1.00
H675   H     0.70697   0.28447   0.37484   0.00000  Uiso   1.00
H676   H     0.71941   0.24439   0.33381   0.00000  Uiso   1.00
H677   H     0.67448   0.16563   0.55473   0.00000  Uiso   1.00
H678   H     0.77361   0.12310   0.61304   0.00000  Uiso   1.00
H679   H     0.89122   0.21275   0.38542   0.00000  Uiso   1.00
H680   H     0.72156   0.06405   0.37077   0.00000  Uiso   1.00
H681   H     0.75158   0.07266   0.65386   0.00000  Uiso   1.00
H682   H     0.99797   0.12331   0.35780   0.00000  Uiso   1.00
H683   H     0.69377   0.14000   0.64108   0.00000  Uiso   1.00
H684   H     0.99754   0.07481   0.59775   0.00000  Uiso   1.00
N685   N     0.83335   0.16668   0.61736   0.00000  Uiso   1.00
N686   N     0.83332   0.16666   0.38264   0.00000  Uiso   1.00
O687   O     0.83333   0.10655   0.53958   0.00000  Uiso   1.00
O688   O     0.89937   0.21834   0.62604   0.00000  Uiso   1.00
O689   O     0.83334   0.22678   0.46042   0.00000  Uiso   1.00
O690   O     0.83333   0.10654   0.46039   0.00000  Uiso   1.00
O691   O     0.83334   0.22679   0.53961   0.00000  Uiso   1.00
O692   O     0.75828   0.16667   0.53046   0.00000  Uiso   1.00
O693   O     0.90839   0.16666   0.46954   0.00000  Uiso   1.00
O694   O     0.75828   0.16666   0.45127   0.00000  Uiso   1.00
O695   O     0.90839   0.16667   0.54873   0.00000  Uiso   1.00
O696   O     0.76785   0.11547   0.37702   0.00000  Uiso   1.00
C697   C     0.16667   0.42082   0.49991   0.00000  Uiso   1.00
C698   C     0.12528   0.35466   0.51522   0.00000  Uiso   1.00
C699   C     0.16687   0.62379   0.50024   0.00000  Uiso   1.00
C700   C     0.16665   0.37621   0.49978   0.00000  Uiso   1.00
C701   C     0.13330   0.47424   0.35415   0.00000  Uiso   1.00
C702   C     0.20065   0.52476   0.64636   0.00000  Uiso   1.00
C703   C     0.13328   0.47508   0.63709   0.00000  Uiso   1.00
C704   C     0.19934   0.52534   0.36272   0.00000  Uiso   1.00
C705   C     0.06651   0.42247   0.34785   0.00000  Uiso   1.00
C706   C     0.01731   0.44578   0.66121   0.00000  Uiso   1.00
C707   C     0.31309   0.41816   0.62887   0.00000  Uiso   1.00
C708   C     0.16679   0.57918   0.50011   0.00000  Uiso   1.00
C709   C     0.28511   0.54834   0.64706   0.00000  Uiso   1.00
C710   C     0.30450   0.58992   0.33569   0.00000  Uiso   1.00
C711   C     0.02714   0.58711   0.35976   0.00000  Uiso   1.00
C712   C     0.06787   0.49994   0.48781   0.00000  Uiso   1.00
C713   C     0.26546   0.49991   0.51217   0.00000  Uiso   1.00
C714   C     0.01248   0.50002   0.48113   0.00000  Uiso   1.00
C715   C     0.32084   0.49959   0.51877   0.00000  Uiso   1.00
C716   C     0.20814   0.35516   0.48456   0.00000  Uiso   1.00
C717   C     0.12540   0.64484   0.51549   0.00000  Uiso   1.00
C718   C     0.20825   0.64533   0.48479   0.00000  Uiso   1.00
Cl719  Cl    0.26104   0.38276   0.46701   0.00000  Uiso   1.00
Cl720  Cl    0.07254   0.61727   0.53317   0.00000  Uiso   1.00
Cl721  Cl    0.26129   0.61838   0.46752   0.00000  Uiso   1.00
Cl722  Cl    0.07226   0.38161   0.53247   0.00000  Uiso   1.00
Cu723  Cu    0.16667   0.50001   0.54689   0.00000  Uiso   1.00
Cu724  Cu    0.16667   0.49999   0.45311   0.00000  Uiso   1.00
H725   H     0.32556   0.50055   0.44511   0.00000  Uiso   1.00
H726   H     0.27746   0.43572   0.61619   0.00000  Uiso   1.00
H727   H     0.30228   0.39044   0.64830   0.00000  Uiso   1.00
H728   H     0.30836   0.54068   0.61866   0.00000  Uiso   1.00
H729   H     0.29255   0.52332   0.34055   0.00000  Uiso   1.00
H730   H     0.30191   0.61385   0.64094   0.00000  Uiso   1.00
H731   H     0.27982   0.59968   0.36221   0.00000  Uiso   1.00
H732   H     0.03030   0.56419   0.38891   0.00000  Uiso   1.00
H733   H     0.04030   0.61781   0.37484   0.00000  Uiso   1.00
H734   H     0.05274   0.57772   0.33381   0.00000  Uiso   1.00
H735   H     0.00782   0.49896   0.55473   0.00000  Uiso   1.00
H736   H     0.10695   0.45643   0.61304   0.00000  Uiso   1.00
H737   H     0.22455   0.54609   0.38542   0.00000  Uiso   1.00
H738   H     0.05489   0.39738   0.37077   0.00000  Uiso   1.00
H739   H     0.08491   0.40599   0.65386   0.00000  Uiso   1.00
H740   H     0.33131   0.45664   0.35780   0.00000  Uiso   1.00
H741   H     0.02710   0.47333   0.64108   0.00000  Uiso   1.00
H742   H     0.33087   0.40814   0.59775   0.00000  Uiso   1.00
N743   N     0.16668   0.50001   0.61736   0.00000  Uiso   1.00
N744   N     0.16665   0.49999   0.38264   0.00000  Uiso   1.00
O745   O     0.16666   0.43989   0.53958   0.00000  Uiso   1.00
O746   O     0.23271   0.55167   0.62604   0.00000  Uiso   1.00
O747   O     0.16667   0.56011   0.46042   0.00000  Uiso   1.00
O748   O     0.16666   0.43988   0.46039   0.00000  Uiso   1.00
O749   O     0.16667   0.56012   0.53961   0.00000  Uiso   1.00
O750   O     0.09161   0.50000   0.53046   0.00000  Uiso   1.00
O751   O     0.24172   0.50000   0.46954   0.00000  Uiso   1.00
O752   O     0.09161   0.49999   0.45127   0.00000  Uiso   1.00
O753   O     0.24172   0.50001   0.54873   0.00000  Uiso   1.00
O754   O     0.10118   0.44880   0.37702   0.00000  Uiso   1.00
C755   C     0.50000   0.42082   0.49991   0.00000  Uiso   1.00
C756   C     0.45862   0.35466   0.51522   0.00000  Uiso   1.00
C757   C     0.50020   0.62379   0.50024   0.00000  Uiso   1.00
C758   C     0.49998   0.37621   0.49978   0.00000  Uiso   1.00
C759   C     0.46663   0.47424   0.35415   0.00000  Uiso   1.00
C760   C     0.53398   0.52476   0.64636   0.00000  Uiso   1.00
C761   C     0.46662   0.47508   0.63709   0.00000  Uiso   1.00
C762   C     0.53268   0.52534   0.36272   0.00000  Uiso   1.00
C763   C     0.39985   0.42247   0.34785   0.00000  Uiso   1.00
C764   C     0.35065   0.44578   0.66121   0.00000  Uiso   1.00
C765   C     0.64642   0.41816   0.62887   0.00000  Uiso   1.00
C766   C     0.50012   0.57918   0.50011   0.00000  Uiso   1.00
C767   C     0.61844   0.54834   0.64706   0.00000  Uiso   1.00
C768   C     0.63784   0.58992   0.33569   0.00000  Uiso   1.00
C769   C     0.36047   0.58711   0.35976   0.00000  Uiso   1.00
C770   C     0.40120   0.49994   0.48781   0.00000  Uiso   1.00
C771   C     0.59879   0.49991   0.51217   0.00000  Uiso   1.00
C772   C     0.34581   0.50002   0.48113   0.00000  Uiso   1.00
C773   C     0.65418   0.49959   0.51877   0.00000  Uiso   1.00
C774   C     0.54147   0.35516   0.48456   0.00000  Uiso   1.00
C775   C     0.45873   0.64484   0.51549   0.00000  Uiso   1.00
C776   C     0.54159   0.64533   0.48479   0.00000  Uiso   1.00
Cl777  Cl    0.59437   0.38276   0.46701   0.00000  Uiso   1.00
Cl778  Cl    0.40588   0.61727   0.53317   0.00000  Uiso   1.00
Cl779  Cl    0.59463   0.61838   0.46752   0.00000  Uiso   1.00
Cl780  Cl    0.40560   0.38161   0.53247   0.00000  Uiso   1.00
Cu781  Cu    0.50000   0.50001   0.54689   0.00000  Uiso   1.00
Cu782  Cu    0.50000   0.49999   0.45311   0.00000  Uiso   1.00
H783   H     0.65889   0.50055   0.44511   0.00000  Uiso   1.00
H784   H     0.61079   0.43572   0.61619   0.00000  Uiso   1.00
H785   H     0.63561   0.39044   0.64830   0.00000  Uiso   1.00
H786   H     0.64169   0.54068   0.61866   0.00000  Uiso   1.00
H787   H     0.62589   0.52332   0.34055   0.00000  Uiso   1.00
H788   H     0.63525   0.61385   0.64094   0.00000  Uiso   1.00
H789   H     0.61315   0.59968   0.36221   0.00000  Uiso   1.00
H790   H     0.36363   0.56419   0.38891   0.00000  Uiso   1.00
H791   H     0.37363   0.61781   0.37484   0.00000  Uiso   1.00
H792   H     0.38607   0.57772   0.33381   0.00000  Uiso   1.00
H793   H     0.34115   0.49896   0.55473   0.00000  Uiso   1.00
H794   H     0.44028   0.45643   0.61304   0.00000  Uiso   1.00
H795   H     0.55788   0.54609   0.38542   0.00000  Uiso   1.00
H796   H     0.38823   0.39738   0.37077   0.00000  Uiso   1.00
H797   H     0.41824   0.40599   0.65386   0.00000  Uiso   1.00
H798   H     0.66464   0.45664   0.35780   0.00000  Uiso   1.00
H799   H     0.36044   0.47333   0.64108   0.00000  Uiso   1.00
H800   H     0.66421   0.40814   0.59775   0.00000  Uiso   1.00
N801   N     0.50001   0.50001   0.61736   0.00000  Uiso   1.00
N802   N     0.49999   0.49999   0.38264   0.00000  Uiso   1.00
O803   O     0.50000   0.43989   0.53958   0.00000  Uiso   1.00
O804   O     0.56604   0.55167   0.62604   0.00000  Uiso   1.00
O805   O     0.50000   0.56011   0.46042   0.00000  Uiso   1.00
O806   O     0.50000   0.43988   0.46039   0.00000  Uiso   1.00
O807   O     0.50000   0.56012   0.53961   0.00000  Uiso   1.00
O808   O     0.42495   0.50000   0.53046   0.00000  Uiso   1.00
O809   O     0.57505   0.50000   0.46954   0.00000  Uiso   1.00
O810   O     0.42494   0.49999   0.45127   0.00000  Uiso   1.00
O811   O     0.57506   0.50001   0.54873   0.00000  Uiso   1.00
O812   O     0.43452   0.44880   0.37702   0.00000  Uiso   1.00
C813   C     0.83333   0.42082   0.49991   0.00000  Uiso   1.00
C814   C     0.79195   0.35466   0.51522   0.00000  Uiso   1.00
C815   C     0.83354   0.62379   0.50024   0.00000  Uiso   1.00
C816   C     0.83331   0.37621   0.49978   0.00000  Uiso   1.00
C817   C     0.79996   0.47424   0.35415   0.00000  Uiso   1.00
C818   C     0.86731   0.52476   0.64636   0.00000  Uiso   1.00
C819   C     0.79995   0.47508   0.63709   0.00000  Uiso   1.00
C820   C     0.86601   0.52534   0.36272   0.00000  Uiso   1.00
C821   C     0.73318   0.42247   0.34785   0.00000  Uiso   1.00
C822   C     0.68398   0.44578   0.66121   0.00000  Uiso   1.00
C823   C     0.97975   0.41816   0.62887   0.00000  Uiso   1.00
C824   C     0.83346   0.57918   0.50011   0.00000  Uiso   1.00
C825   C     0.95178   0.54834   0.64706   0.00000  Uiso   1.00
C826   C     0.97117   0.58992   0.33569   0.00000  Uiso   1.00
C827   C     0.69380   0.58711   0.35976   0.00000  Uiso   1.00
C828   C     0.73454   0.49994   0.48781   0.00000  Uiso   1.00
C829   C     0.93213   0.49991   0.51217   0.00000  Uiso   1.00
C830   C     0.67915   0.50002   0.48113   0.00000  Uiso   1.00
C831   C     0.98751   0.49959   0.51877   0.00000  Uiso   1.00
C832   C     0.87481   0.35516   0.48456   0.00000  Uiso   1.00
C833   C     0.79207   0.64484   0.51549   0.00000  Uiso   1.00
C834   C     0.87492   0.64533   0.48479   0.00000  Uiso   1.00
Cl835  Cl    0.92771   0.38276   0.46701   0.00000  Uiso   1.00
Cl836  Cl    0.73921   0.61727   0.53317   0.00000  Uiso   1.00
Cl837  Cl    0.92796   0.61838   0.46752   0.00000  Uiso   1.00
Cl838  Cl    0.73893   0.38161   0.53247   0.00000  Uiso   1.00
Cu839  Cu    0.83333   0.50001   0.54689   0.00000  Uiso   1.00
Cu840  Cu    0.83333   0.49999   0.45311   0.00000  Uiso   1.00
H841   H     0.99223   0.50055   0.44511   0.00000  Uiso   1.00
H842   H     0.94413   0.43572   0.61619   0.00000  Uiso   1.00
H843   H     0.96894   0.39044   0.64830   0.00000  Uiso   1.00
H844   H     0.97502   0.54068   0.61866   0.00000  Uiso   1.00
H845   H     0.95922   0.52332   0.34055   0.00000  Uiso   1.00
H846   H     0.96858   0.61385   0.64094   0.00000  Uiso   1.00
H847   H     0.94649   0.59968   0.36221   0.00000  Uiso   1.00
H848   H     0.69697   0.56419   0.38891   0.00000  Uiso   1.00
H849   H     0.70697   0.61781   0.37484   0.00000  Uiso   1.00
H850   H     0.71941   0.57772   0.33381   0.00000  Uiso   1.00
H851   H     0.67448   0.49896   0.55473   0.00000  Uiso   1.00
H852   H     0.77361   0.45643   0.61304   0.00000  Uiso   1.00
H853   H     0.89122   0.54609   0.38542   0.00000  Uiso   1.00
H854   H     0.72156   0.39738   0.37077   0.00000  Uiso   1.00
H855   H     0.75158   0.40599   0.65386   0.00000  Uiso   1.00
H856   H     0.99797   0.45664   0.35780   0.00000  Uiso   1.00
H857   H     0.69377   0.47333   0.64108   0.00000  Uiso   1.00
H858   H     0.99754   0.40814   0.59775   0.00000  Uiso   1.00
N859   N     0.83335   0.50001   0.61736   0.00000  Uiso   1.00
N860   N     0.83332   0.49999   0.38264   0.00000  Uiso   1.00
O861   O     0.83333   0.43989   0.53958   0.00000  Uiso   1.00
O862   O     0.89937   0.55167   0.62604   0.00000  Uiso   1.00
O863   O     0.83334   0.56011   0.46042   0.00000  Uiso   1.00
O864   O     0.83333   0.43988   0.46039   0.00000  Uiso   1.00
O865   O     0.83334   0.56012   0.53961   0.00000  Uiso   1.00
O866   O     0.75828   0.50000   0.53046   0.00000  Uiso   1.00
O867   O     0.90839   0.50000   0.46954   0.00000  Uiso   1.00
O868   O     0.75828   0.49999   0.45127   0.00000  Uiso   1.00
O869   O     0.90839   0.50001   0.54873   0.00000  Uiso   1.00
O870   O     0.76785   0.44880   0.37702   0.00000  Uiso   1.00
C871   C     0.16667   0.75415   0.49991   0.00000  Uiso   1.00
C872   C     0.12528   0.68799   0.51522   0.00000  Uiso   1.00
C873   C     0.16687   0.95712   0.50024   0.00000  Uiso   1.00
C874   C     0.16665   0.70954   0.49978   0.00000  Uiso   1.00
C875   C     0.13330   0.80758   0.35415   0.00000  Uiso   1.00
C876   C     0.20065   0.85810   0.64636   0.00000  Uiso   1.00
C877   C     0.13328   0.80842   0.63709   0.00000  Uiso   1.00
C878   C     0.19934   0.85867   0.36272   0.00000  Uiso   1.00
C879   C     0.06651   0.75581   0.34785   0.00000  Uiso   1.00
C880   C     0.01731   0.77911   0.66121   0.00000  Uiso   1.00
C881   C     0.31309   0.75149   0.62887   0.00000  Uiso   1.00
C882   C     0.16679   0.91251   0.50011   0.00000  Uiso   1.00
C883   C     0.28511   0.88167   0.64706   0.00000  Uiso   1.00
C884   C     0.30450   0.92325   0.33569   0.00000  Uiso   1.00
C885   C     0.02714   0.92044   0.35976   0.00000  Uiso   1.00
C886   C     0.06787   0.83327   0.48781   0.00000  Uiso   1.00
C887   C     0.26546   0.83324   0.51217   0.00000  Uiso   1.00
C888   C     0.01248   0.83335   0.48113   0.00000  Uiso   1.00
C889   C     0.32084   0.83293   0.51877   0.00000  Uiso   1.00
C890   C     0.20814   0.68849   0.48456   0.00000  Uiso   1.00
C891   C     0.12540   0.97818   0.51549   0.00000  Uiso   1.00
C892   C     0.20825   0.97866   0.48479   0.00000  Uiso   1.00
Cl893  Cl    0.26104   0.71609   0.46701   0.00000  Uiso   1.00
Cl894  Cl    0.07254   0.95060   0.53317   0.00000  Uiso   1.00
Cl895  Cl    0.26129   0.95171   0.46752   0.00000  Uiso   1.00
Cl896  Cl    0.07226   0.71494   0.53247   0.00000  Uiso   1.00
Cu897  Cu    0.16667   0.83334   0.54689   0.00000  Uiso   1.00
Cu898  Cu    0.16667   0.83333   0.45311   0.00000  Uiso   1.00
H899   H     0.32556   0.83388   0.44511   0.00000  Uiso   1.00
H900   H     0.27746   0.76906   0.61619   0.00000  Uiso   1.00
H901   H     0.30228   0.72377   0.64830   0.00000  Uiso   1.00
H902   H     0.30836   0.87401   0.61866   0.00000  Uiso   1.00
H903   H     0.29255   0.85665   0.34055   0.00000  Uiso   1.00
H904   H     0.30191   0.94719   0.64094   0.00000  Uiso   1.00
H905   H     0.27982   0.93301   0.36221   0.00000  Uiso   1.00
H906   H     0.03030   0.89752   0.38891   0.00000  Uiso   1.00
H907   H     0.04030   0.95114   0.37484   0.00000  Uiso   1.00
H908   H     0.05274   0.91105   0.33381   0.00000  Uiso   1.00
H909   H     0.00782   0.83230   0.55473   0.00000  Uiso   1.00
H910   H     0.10695   0.78976   0.61304   0.00000  Uiso   1.00
H911   H     0.22455   0.87942   0.38542   0.00000  Uiso   1.00
H912   H     0.05489   0.73072   0.37077   0.00000  Uiso   1.00
H913   H     0.08491   0.73932   0.65386   0.00000  Uiso   1.00
H914   H     0.33131   0.78998   0.35780   0.00000  Uiso   1.00
H915   H     0.02710   0.80667   0.64108   0.00000  Uiso   1.00
H916   H     0.33087   0.74147   0.59775   0.00000  Uiso   1.00
N917   N     0.16668   0.83334   0.61736   0.00000  Uiso   1.00
N918   N     0.16665   0.83332   0.38264   0.00000  Uiso   1.00
O919   O     0.16666   0.77322   0.53958   0.00000  Uiso   1.00
O920   O     0.23271   0.88500   0.62604   0.00000  Uiso   1.00
O921   O     0.16667   0.89345   0.46042   0.00000  Uiso   1.00
O922   O     0.16666   0.77321   0.46039   0.00000  Uiso   1.00
O923   O     0.16667   0.89346   0.53961   0.00000  Uiso   1.00
O924   O     0.09161   0.83334   0.53046   0.00000  Uiso   1.00
O925   O     0.24172   0.83333   0.46954   0.00000  Uiso   1.00
O926   O     0.09161   0.83333   0.45127   0.00000  Uiso   1.00
O927   O     0.24172   0.83334   0.54873   0.00000  Uiso   1.00
O928   O     0.10118   0.78214   0.37702   0.00000  Uiso   1.00
C929   C     0.50000   0.75415   0.49991   0.00000  Uiso   1.00
C930   C     0.45862   0.68799   0.51522   0.00000  Uiso   1.00
C931   C     0.50020   0.95712   0.50024   0.00000  Uiso   1.00
C932   C     0.49998   0.70954   0.49978   0.00000  Uiso   1.00
C933   C     0.46663   0.80758   0.35415   0.00000  Uiso   1.00
C934   C     0.53398   0.85810   0.64636   0.00000  Uiso   1.00
C935   C     0.46662   0.80842   0.63709   0.00000  Uiso   1.00
C936   C     0.53268   0.85867   0.36272   0.00000  Uiso   1.00
C937   C     0.39985   0.75581   0.34785   0.00000  Uiso   1.00
C938   C     0.35065   0.77911   0.66121   0.00000  Uiso   1.00
C939   C     0.64642   0.75149   0.62887   0.00000  Uiso   1.00
C940   C     0.50012   0.91251   0.50011   0.00000  Uiso   1.00
C941   C     0.61844   0.88167   0.64706   0.00000  Uiso   1.00
C942   C     0.63784   0.92325   0.33569   0.00000  Uiso   1.00
C943   C     0.36047   0.92044   0.35976   0.00000  Uiso   1.00
C944   C     0.40120   0.83327   0.48781   0.00000  Uiso   1.00
C945   C     0.59879   0.83324   0.51217   0.00000  Uiso   1.00
C946   C     0.34581   0.83335   0.48113   0.00000  Uiso   1.00
C947   C     0.65418   0.83293   0.51877   0.00000  Uiso   1.00
C948   C     0.54147   0.68849   0.48456   0.00000  Uiso   1.00
C949   C     0.45873   0.97818   0.51549   0.00000  Uiso   1.00
C950   C     0.54159   0.97866   0.48479   0.00000  Uiso   1.00
Cl951  Cl    0.59437   0.71609   0.46701   0.00000  Uiso   1.00
Cl952  Cl    0.40588   0.95060   0.53317   0.00000  Uiso   1.00
Cl953  Cl    0.59463   0.95171   0.46752   0.00000  Uiso   1.00
Cl954  Cl    0.40560   0.71494   0.53247   0.00000  Uiso   1.00
Cu955  Cu    0.50000   0.83334   0.54689   0.00000  Uiso   1.00
Cu956  Cu    0.50000   0.83333   0.45311   0.00000  Uiso   1.00
H957   H     0.65889   0.83388   0.44511   0.00000  Uiso   1.00
H958   H     0.61079   0.76906   0.61619   0.00000  Uiso   1.00
H959   H     0.63561   0.72377   0.64830   0.00000  Uiso   1.00
H960   H     0.64169   0.87401   0.61866   0.00000  Uiso   1.00
H961   H     0.62589   0.85665   0.34055   0.00000  Uiso   1.00
H962   H     0.63525   0.94719   0.64094   0.00000  Uiso   1.00
H963   H     0.61315   0.93301   0.36221   0.00000  Uiso   1.00
H964   H     0.36363   0.89752   0.38891   0.00000  Uiso   1.00
H965   H     0.37363   0.95114   0.37484   0.00000  Uiso   1.00
H966   H     0.38607   0.91105   0.33381   0.00000  Uiso   1.00
H967   H     0.34115   0.83230   0.55473   0.00000  Uiso   1.00
H968   H     0.44028   0.78976   0.61304   0.00000  Uiso   1.00
H969   H     0.55788   0.87942   0.38542   0.00000  Uiso   1.00
H970   H     0.38823   0.73072   0.37077   0.00000  Uiso   1.00
H971   H     0.41824   0.73932   0.65386   0.00000  Uiso   1.00
H972   H     0.66464   0.78998   0.35780   0.00000  Uiso   1.00
H973   H     0.36044   0.80667   0.64108   0.00000  Uiso   1.00
H974   H     0.66421   0.74147   0.59775   0.00000  Uiso   1.00
N975   N     0.50001   0.83334   0.61736   0.00000  Uiso   1.00
N976   N     0.49999   0.83332   0.38264   0.00000  Uiso   1.00
O977   O     0.50000   0.77322   0.53958   0.00000  Uiso   1.00
O978   O     0.56604   0.88500   0.62604   0.00000  Uiso   1.00
O979   O     0.50000   0.89345   0.46042   0.00000  Uiso   1.00
O980   O     0.50000   0.77321   0.46039   0.00000  Uiso   1.00
O981   O     0.50000   0.89346   0.53961   0.00000  Uiso   1.00
O982   O     0.42495   0.83334   0.53046   0.00000  Uiso   1.00
O983   O     0.57505   0.83333   0.46954   0.00000  Uiso   1.00
O984   O     0.42494   0.83333   0.45127   0.00000  Uiso   1.00
O985   O     0.57506   0.83334   0.54873   0.00000  Uiso   1.00
O986   O     0.43452   0.78214   0.37702   0.00000  Uiso   1.00
C987   C     0.83333   0.75415   0.49991   0.00000  Uiso   1.00
C988   C     0.79195   0.68799   0.51522   0.00000  Uiso   1.00
C989   C     0.83354   0.95712   0.50024   0.00000  Uiso   1.00
C990   C     0.83331   0.70954   0.49978   0.00000  Uiso   1.00
C991   C     0.79996   0.80758   0.35415   0.00000  Uiso   1.00
C992   C     0.86731   0.85810   0.64636   0.00000  Uiso   1.00
C993   C     0.79995   0.80842   0.63709   0.00000  Uiso   1.00
C994   C     0.86601   0.85867   0.36272   0.00000  Uiso   1.00
C995   C     0.73318   0.75581   0.34785   0.00000  Uiso   1.00
C996   C     0.68398   0.77911   0.66121   0.00000  Uiso   1.00
C997   C     0.97975   0.75149   0.62887   0.00000  Uiso   1.00
C998   C     0.83346   0.91251   0.50011   0.00000  Uiso   1.00
C999   C     0.95178   0.88167   0.64706   0.00000  Uiso   1.00
C1000  C     0.97117   0.92325   0.33569   0.00000  Uiso   1.00
C1001  C     0.69380   0.92044   0.35976   0.00000  Uiso   1.00
C1002  C     0.73454   0.83327   0.48781   0.00000  Uiso   1.00
C1003  C     0.93213   0.83324   0.51217   0.00000  Uiso   1.00
C1004  C     0.67915   0.83335   0.48113   0.00000  Uiso   1.00
C1005  C     0.98751   0.83293   0.51877   0.00000  Uiso   1.00
C1006  C     0.87481   0.68849   0.48456   0.00000  Uiso   1.00
C1007  C     0.79207   0.97818   0.51549   0.00000  Uiso   1.00
C1008  C     0.87492   0.97866   0.48479   0.00000  Uiso   1.00
Cl1009 Cl    0.92771   0.71609   0.46701   0.00000  Uiso   1.00
Cl1010 Cl    0.73921   0.95060   0.53317   0.00000  Uiso   1.00
Cl1011 Cl    0.92796   0.95171   0.46752   0.00000  Uiso   1.00
Cl1012 Cl    0.73893   0.71494   0.53247   0.00000  Uiso   1.00
Cu1013 Cu    0.83333   0.83334   0.54689   0.00000  Uiso   1.00
Cu1014 Cu    0.83333   0.83333   0.45311   0.00000  Uiso   1.00
H1015  H     0.99223   0.83388   0.44511   0.00000  Uiso   1.00
H1016  H     0.94413   0.76906   0.61619   0.00000  Uiso   1.00
H1017  H     0.96894   0.72377   0.64830   0.00000  Uiso   1.00
H1018  H     0.97502   0.87401   0.61866   0.00000  Uiso   1.00
H1019  H     0.95922   0.85665   0.34055   0.00000  Uiso   1.00
H1020  H     0.96858   0.94719   0.64094   0.00000  Uiso   1.00
H1021  H     0.94649   0.93301   0.36221   0.00000  Uiso   1.00
H1022  H     0.69697   0.89752   0.38891   0.00000  Uiso   1.00
H1023  H     0.70697   0.95114   0.37484   0.00000  Uiso   1.00
H1024  H     0.71941   0.91105   0.33381   0.00000  Uiso   1.00
H1025  H     0.67448   0.83230   0.55473   0.00000  Uiso   1.00
H1026  H     0.77361   0.78976   0.61304   0.00000  Uiso   1.00
H1027  H     0.89122   0.87942   0.38542   0.00000  Uiso   1.00
H1028  H     0.72156   0.73072   0.37077   0.00000  Uiso   1.00
H1029  H     0.75158   0.73932   0.65386   0.00000  Uiso   1.00
H1030  H     0.99797   0.78998   0.35780   0.00000  Uiso   1.00
H1031  H     0.69377   0.80667   0.64108   0.00000  Uiso   1.00
H1032  H     0.99754   0.74147   0.59775   0.00000  Uiso   1.00
N1033  N     0.83335   0.83334   0.61736   0.00000  Uiso   1.00
N1034  N     0.83332   0.83332   0.38264   0.00000  Uiso   1.00
O1035  O     0.83333   0.77322   0.53958   0.00000  Uiso   1.00
O1036  O     0.89937   0.88500   0.62604   0.00000  Uiso   1.00
O1037  O     0.83334   0.89345   0.46042   0.00000  Uiso   1.00
O1038  O     0.83333   0.77321   0.46039   0.00000  Uiso   1.00
O1039  O     0.83334   0.89346   0.53961   0.00000  Uiso   1.00
O1040  O     0.75828   0.83334   0.53046   0.00000  Uiso   1.00
O1041  O     0.90839   0.83333   0.46954   0.00000  Uiso   1.00
O1042  O     0.75828   0.83333   0.45127   0.00000  Uiso   1.00
O1043  O     0.90839   0.83334   0.54873   0.00000  Uiso   1.00
O1044  O     0.76785   0.78214   0.37702   0.00000  Uiso   1.00
C1045  C     0.16667   0.08749   0.83324   0.00000  Uiso   1.00
C1046  C     0.12528   0.02133   0.84856   0.00000  Uiso   1.00
C1047  C     0.16687   0.29045   0.83358   0.00000  Uiso   1.00
C1048  C     0.16665   0.04288   0.83311   0.00000  Uiso   1.00
C1049  C     0.13330   0.14091   0.68748   0.00000  Uiso   1.00
C1050  C     0.20065   0.19143   0.97969   0.00000  Uiso   1.00
C1051  C     0.13328   0.14175   0.97043   0.00000  Uiso   1.00
C1052  C     0.19934   0.19200   0.69606   0.00000  Uiso   1.00
C1053  C     0.06651   0.08914   0.68119   0.00000  Uiso   1.00
C1054  C     0.01731   0.11244   0.99455   0.00000  Uiso   1.00
C1055  C     0.31309   0.08483   0.96221   0.00000  Uiso   1.00
C1056  C     0.16679   0.24584   0.83344   0.00000  Uiso   1.00
C1057  C     0.28511   0.21501   0.98039   0.00000  Uiso   1.00
C1058  C     0.30450   0.25658   0.66902   0.00000  Uiso   1.00
C1059  C     0.02714   0.25377   0.69310   0.00000  Uiso   1.00
C1060  C     0.06787   0.16661   0.82115   0.00000  Uiso   1.00
C1061  C     0.26546   0.16658   0.84550   0.00000  Uiso   1.00
C1062  C     0.01248   0.16668   0.81446   0.00000  Uiso   1.00
C1063  C     0.32084   0.16626   0.85211   0.00000  Uiso   1.00
C1064  C     0.20814   0.02182   0.81789   0.00000  Uiso   1.00
C1065  C     0.12540   0.31151   0.84882   0.00000  Uiso   1.00
C1066  C     0.20825   0.31200   0.81813   0.00000  Uiso   1.00
Cl1067 Cl    0.26104   0.04942   0.80034   0.00000  Uiso   1.00
Cl1068 Cl    0.07254   0.28393   0.86650   0.00000  Uiso   1.00
Cl1069 Cl    0.26129   0.28505   0.80085   0.00000  Uiso   1.00
Cl1070 Cl    0.07226   0.04827   0.86581   0.00000  Uiso   1.00
Cu1071 Cu    0.16667   0.16667   0.88022   0.00000  Uiso   1.00
Cu1072 Cu    0.16667   0.16666   0.78645   0.00000  Uiso   1.00
H1073  H     0.32556   0.16722   0.77845   0.00000  Uiso   1.00
H1074  H     0.27746   0.10239   0.94953   0.00000  Uiso   1.00
H1075  H     0.30228   0.05710   0.98163   0.00000  Uiso   1.00
H1076  H     0.30836   0.20734   0.95200   0.00000  Uiso   1.00
H1077  H     0.29255   0.18998   0.67388   0.00000  Uiso   1.00
H1078  H     0.30191   0.28052   0.97428   0.00000  Uiso   1.00
H1079  H     0.27982   0.26635   0.69554   0.00000  Uiso   1.00
H1080  H     0.03030   0.23086   0.72224   0.00000  Uiso   1.00
H1081  H     0.04030   0.28447   0.70818   0.00000  Uiso   1.00
H1082  H     0.05274   0.24439   0.66715   0.00000  Uiso   1.00
H1083  H     0.00782   0.16563   0.88806   0.00000  Uiso   1.00
H1084  H     0.10695   0.12310   0.94637   0.00000  Uiso   1.00
H1085  H     0.22455   0.21275   0.71876   0.00000  Uiso   1.00
H1086  H     0.05489   0.06405   0.70410   0.00000  Uiso   1.00
H1087  H     0.08491   0.07266   0.98719   0.00000  Uiso   1.00
H1088  H     0.33131   0.12331   0.69113   0.00000  Uiso   1.00
H1089  H     0.02710   0.14000   0.97441   0.00000  Uiso   1.00
H1090  H     0.33087   0.07481   0.93108   0.00000  Uiso   1.00
N1091  N     0.16668   0.16668   0.95069   0.00000  Uiso   1.00
N1092  N     0.16665   0.16666   0.71597   0.00000  Uiso   1.00
O1093  O     0.16666   0.10655   0.87291   0.00000  Uiso   1.00
O1094  O     0.23271   0.21834   0.95937   0.00000  Uiso   1.00
O1095  O     0.16667   0.22678   0.79375   0.00000  Uiso   1.00
O1096  O     0.16666   0.10654   0.79372   0.00000  Uiso   1.00
O1097  O     0.16667   0.22679   0.87294   0.00000  Uiso   1.00
O1098  O     0.09161   0.16667   0.86379   0.00000  Uiso   1.00
O1099  O     0.24172   0.16666   0.80288   0.00000  Uiso   1.00
O1100  O     0.09161   0.16666   0.78460   0.00000  Uiso   1.00
O1101  O     0.24172   0.16667   0.88207   0.00000  Uiso   1.00
O1102  O     0.10118   0.11547   0.71035   0.00000  Uiso   1.00
C1103  C     0.50000   0.08749   0.83324   0.00000  Uiso   1.00
C1104  C     0.45862   0.02133   0.84856   0.00000  Uiso   1.00
C1105  C     0.50020   0.29045   0.83358   0.00000  Uiso   1.00
C1106  C     0.49998   0.04288   0.83311   0.00000  Uiso   1.00
C1107  C     0.46663   0.14091   0.68748   0.00000  Uiso   1.00
C1108  C     0.53398   0.19143   0.97969   0.00000  Uiso   1.00
C1109  C     0.46662   0.14175   0.97043   0.00000  Uiso   1.00
C1110  C     0.53268   0.19200   0.69606   0.00000  Uiso   1.00
C1111  C     0.39985   0.08914   0.68119   0.00000  Uiso   1.00
C1112  C     0.35065   0.11244   0.99455   0.00000  Uiso   1.00
C1113  C     0.64642   0.08483   0.96221   0.00000  Uiso   1.00
C1114  C     0.50012   0.24584   0.83344   0.00000  Uiso   1.00
C1115  C     0.61844   0.21501   0.98039   0.00000  Uiso   1.00
C1116  C     0.63784   0.25658   0.66902   0.00000  Uiso   1.00
C1117  C     0.36047   0.25377   0.69310   0.00000  Uiso   1.00
C1118  C     0.40120   0.16661   0.82115   0.00000  Uiso   1.00
C1119  C     0.59879   0.16658   0.84550   0.00000  Uiso   1.00
C1120  C     0.34581   0.16668   0.81446   0.00000  Uiso   1.00
C1121  C     0.65418   0.16626   0.85211   0.00000  Uiso   1.00
C1122  C     0.54147   0.02182   0.81789   0.00000  Uiso   1.00
C1123  C     0.45873   0.31151   0.84882   0.00000  Uiso   1.00
C1124  C     0.54159   0.31200   0.81813   0.00000  Uiso   1.00
Cl1125 Cl    0.59437   0.04942   0.80034   0.00000  Uiso   1.00
Cl1126 Cl    0.40588   0.28393   0.86650   0.00000  Uiso   1.00
Cl1127 Cl    0.59463   0.28505   0.80085   0.00000  Uiso   1.00
Cl1128 Cl    0.40560   0.04827   0.86581   0.00000  Uiso   1.00
Cu1129 Cu    0.50000   0.16667   0.88022   0.00000  Uiso   1.00
Cu1130 Cu    0.50000   0.16666   0.78645   0.00000  Uiso   1.00
H1131  H     0.65889   0.16722   0.77845   0.00000  Uiso   1.00
H1132  H     0.61079   0.10239   0.94953   0.00000  Uiso   1.00
H1133  H     0.63561   0.05710   0.98163   0.00000  Uiso   1.00
H1134  H     0.64169   0.20734   0.95200   0.00000  Uiso   1.00
H1135  H     0.62589   0.18998   0.67388   0.00000  Uiso   1.00
H1136  H     0.63525   0.28052   0.97428   0.00000  Uiso   1.00
H1137  H     0.61315   0.26635   0.69554   0.00000  Uiso   1.00
H1138  H     0.36363   0.23086   0.72224   0.00000  Uiso   1.00
H1139  H     0.37363   0.28447   0.70818   0.00000  Uiso   1.00
H1140  H     0.38607   0.24439   0.66715   0.00000  Uiso   1.00
H1141  H     0.34115   0.16563   0.88806   0.00000  Uiso   1.00
H1142  H     0.44028   0.12310   0.94637   0.00000  Uiso   1.00
H1143  H     0.55788   0.21275   0.71876   0.00000  Uiso   1.00
H1144  H     0.38823   0.06405   0.70410   0.00000  Uiso   1.00
H1145  H     0.41824   0.07266   0.98719   0.00000  Uiso   1.00
H1146  H     0.66464   0.12331   0.69113   0.00000  Uiso   1.00
H1147  H     0.36044   0.14000   0.97441   0.00000  Uiso   1.00
H1148  H     0.66421   0.07481   0.93108   0.00000  Uiso   1.00
N1149  N     0.50001   0.16668   0.95069   0.00000  Uiso   1.00
N1150  N     0.49999   0.16666   0.71597   0.00000  Uiso   1.00
O1151  O     0.50000   0.10655   0.87291   0.00000  Uiso   1.00
O1152  O     0.56604   0.21834   0.95937   0.00000  Uiso   1.00
O1153  O     0.50000   0.22678   0.79375   0.00000  Uiso   1.00
O1154  O     0.50000   0.10654   0.79372   0.00000  Uiso   1.00
O1155  O     0.50000   0.22679   0.87294   0.00000  Uiso   1.00
O1156  O     0.42495   0.16667   0.86379   0.00000  Uiso   1.00
O1157  O     0.57505   0.16666   0.80288   0.00000  Uiso   1.00
O1158  O     0.42494   0.16666   0.78460   0.00000  Uiso   1.00
O1159  O     0.57506   0.16667   0.88207   0.00000  Uiso   1.00
O1160  O     0.43452   0.11547   0.71035   0.00000  Uiso   1.00
C1161  C     0.83333   0.08749   0.83324   0.00000  Uiso   1.00
C1162  C     0.79195   0.02133   0.84856   0.00000  Uiso   1.00
C1163  C     0.83354   0.29045   0.83358   0.00000  Uiso   1.00
C1164  C     0.83331   0.04288   0.83311   0.00000  Uiso   1.00
C1165  C     0.79996   0.14091   0.68748   0.00000  Uiso   1.00
C1166  C     0.86731   0.19143   0.97969   0.00000  Uiso   1.00
C1167  C     0.79995   0.14175   0.97043   0.00000  Uiso   1.00
C1168  C     0.86601   0.19200   0.69606   0.00000  Uiso   1.00
C1169  C     0.73318   0.08914   0.68119   0.00000  Uiso   1.00
C1170  C     0.68398   0.11244   0.99455   0.00000  Uiso   1.00
C1171  C     0.97975   0.08483   0.96221   0.00000  Uiso   1.00
C1172  C     0.83346   0.24584   0.83344   0.00000  Uiso   1.00
C1173  C     0.95178   0.21501   0.98039   0.00000  Uiso   1.00
C1174  C     0.97117   0.25658   0.66902   0.00000  Uiso   1.00
C1175  C     0.69380   0.25377   0.69310   0.00000  Uiso   1.00
C1176  C     0.73454   0.16661   0.82115   0.00000  Uiso   1.00
C1177  C     0.93213   0.16658   0.84550   0.00000  Uiso   1.00
C1178  C     0.67915   0.16668   0.81446   0.00000  Uiso   1.00
C1179  C     0.98751   0.16626   0.85211   0.00000  Uiso   1.00
C1180  C     0.87481   0.02182   0.81789   0.00000  Uiso   1.00
C1181  C     0.79207   0.31151   0.84882   0.00000  Uiso   1.00
C1182  C     0.87492   0.31200   0.81813   0.00000  Uiso   1.00
Cl1183 Cl    0.92771   0.04942   0.80034   0.00000  Uiso   1.00
Cl1184 Cl    0.73921   0.28393   0.86650   0.00000  Uiso   1.00
Cl1185 Cl    0.92796   0.28505   0.80085   0.00000  Uiso   1.00
Cl1186 Cl    0.73893   0.04827   0.86581   0.00000  Uiso   1.00
Cu1187 Cu    0.83333   0.16667   0.88022   0.00000  Uiso   1.00
Cu1188 Cu    0.83333   0.16666   0.78645   0.00000  Uiso   1.00
H1189  H     0.99223   0.16722   0.77845   0.00000  Uiso   1.00
H1190  H     0.94413   0.10239   0.94953   0.00000  Uiso   1.00
H1191  H     0.96894   0.05710   0.98163   0.00000  Uiso   1.00
H1192  H     0.97502   0.20734   0.95200   0.00000  Uiso   1.00
H1193  H     0.95922   0.18998   0.67388   0.00000  Uiso   1.00
H1194  H     0.96858   0.28052   0.97428   0.00000  Uiso   1.00
H1195  H     0.94649   0.26635   0.69554   0.00000  Uiso   1.00
H1196  H     0.69697   0.23086   0.72224   0.00000  Uiso   1.00
H1197  H     0.70697   0.28447   0.70818   0.00000  Uiso   1.00
H1198  H     0.71941   0.24439   0.66715   0.00000  Uiso   1.00
H1199  H     0.67448   0.16563   0.88806   0.00000  Uiso   1.00
H1200  H     0.77361   0.12310   0.94637   0.00000  Uiso   1.00
H1201  H     0.89122   0.21275   0.71876   0.00000  Uiso   1.00
H1202  H     0.72156   0.06405   0.70410   0.00000  Uiso   1.00
H1203  H     0.75158   0.07266   0.98719   0.00000  Uiso   1.00
H1204  H     0.99797   0.12331   0.69113   0.00000  Uiso   1.00
H1205  H     0.69377   0.14000   0.97441   0.00000  Uiso   1.00
H1206  H     0.99754   0.07481   0.93108   0.00000  Uiso   1.00
N1207  N     0.83335   0.16668   0.95069   0.00000  Uiso   1.00
N1208  N     0.83332   0.16666   0.71597   0.00000  Uiso   1.00
O1209  O     0.83333   0.10655   0.87291   0.00000  Uiso   1.00
O1210  O     0.89937   0.21834   0.95937   0.00000  Uiso   1.00
O1211  O     0.83334   0.22678   0.79375   0.00000  Uiso   1.00
O1212  O     0.83333   0.10654   0.79372   0.00000  Uiso   1.00
O1213  O     0.83334   0.22679   0.87294   0.00000  Uiso   1.00
O1214  O     0.75828   0.16667   0.86379   0.00000  Uiso   1.00
O1215  O     0.90839   0.16666   0.80288   0.00000  Uiso   1.00
O1216  O     0.75828   0.16666   0.78460   0.00000  Uiso   1.00
O1217  O     0.90839   0.16667   0.88207   0.00000  Uiso   1.00
O1218  O     0.76785   0.11547   0.71035   0.00000  Uiso   1.00
C1219  C     0.16667   0.42082   0.83324   0.00000  Uiso   1.00
C1220  C     0.12528   0.35466   0.84856   0.00000  Uiso   1.00
C1221  C     0.16687   0.62379   0.83358   0.00000  Uiso   1.00
C1222  C     0.16665   0.37621   0.83311   0.00000  Uiso   1.00
C1223  C     0.13330   0.47424   0.68748   0.00000  Uiso   1.00
C1224  C     0.20065   0.52476   0.97969   0.00000  Uiso   1.00
C1225  C     0.13328   0.47508   0.97043   0.00000  Uiso   1.00
C1226  C     0.19934   0.52534   0.69606   0.00000  Uiso   1.00
C1227  C     0.06651   0.42247   0.68119   0.00000  Uiso   1.00
C1228  C     0.01731   0.44578   0.99455   0.00000  Uiso   1.00
C1229  C     0.31309   0.41816   0.96221   0.00000  Uiso   1.00
C1230  C     0.16679   0.57918   0.83344   0.00000  Uiso   1.00
C1231  C     0.28511   0.54834   0.98039   0.00000  Uiso   1.00
C1232  C     0.30450   0.58992   0.66902   0.00000  Uiso   1.00
C1233  C     0.02714   0.58711   0.69310   0.00000  Uiso   1.00
C1234  C     0.06787   0.49994   0.82115   0.00000  Uiso   1.00
C1235  C     0.26546   0.49991   0.84550   0.00000  Uiso   1.00
C1236  C     0.01248   0.50002   0.81446   0.00000  Uiso   1.00
C1237  C     0.32084   0.49959   0.85211   0.00000  Uiso   1.00
C1238  C     0.20814   0.35516   0.81789   0.00000  Uiso   1.00
C1239  C     0.12540   0.64484   0.84882   0.00000  Uiso   1.00
C1240  C     0.20825   0.64533   0.81813   0.00000  Uiso   1.00
Cl1241 Cl    0.26104   0.38276   0.80034   0.00000  Uiso   1.00
Cl1242 Cl    0.07254   0.61727   0.86650   0.00000  Uiso   1.00
Cl1243 Cl    0.26129   0.61838   0.80085   0.00000  Uiso   1.00
Cl1244 Cl    0.07226   0.38161   0.86581   0.00000  Uiso   1.00
Cu1245 Cu    0.16667   0.50001   0.88022   0.00000  Uiso   1.00
Cu1246 Cu    0.16667   0.49999   0.78645   0.00000  Uiso   1.00
H1247  H     0.32556   0.50055   0.77845   0.00000  Uiso   1.00
H1248  H     0.27746   0.43572   0.94953   0.00000  Uiso   1.00
H1249  H     0.30228   0.39044   0.98163   0.00000  Uiso   1.00
H1250  H     0.30836   0.54068   0.95200   0.00000  Uiso   1.00
H1251  H     0.29255   0.52332   0.67388   0.00000  Uiso   1.00
H1252  H     0.30191   0.61385   0.97428   0.00000  Uiso   1.00
H1253  H     0.27982   0.59968   0.69554   0.00000  Uiso   1.00
H1254  H     0.03030   0.56419   0.72224   0.00000  Uiso   1.00
H1255  H     0.04030   0.61781   0.70818   0.00000  Uiso   1.00
H1256  H     0.05274   0.57772   0.66715   0.00000  Uiso   1.00
H1257  H     0.00782   0.49896   0.88806   0.00000  Uiso   1.00
H1258  H     0.10695   0.45643   0.94637   0.00000  Uiso   1.00
H1259  H     0.22455   0.54609   0.71876   0.00000  Uiso   1.00
H1260  H     0.05489   0.39738   0.70410   0.00000  Uiso   1.00
H1261  H     0.08491   0.40599   0.98719   0.00000  Uiso   1.00
H1262  H     0.33131   0.45664   0.69113   0.00000  Uiso   1.00
H1263  H     0.02710   0.47333   0.97441   0.00000  Uiso   1.00
H1264  H     0.33087   0.40814   0.93108   0.00000  Uiso   1.00
N1265  N     0.16668   0.50001   0.95069   0.00000  Uiso   1.00
N1266  N     0.16665   0.49999   0.71597   0.00000  Uiso   1.00
O1267  O     0.16666   0.43989   0.87291   0.00000  Uiso   1.00
O1268  O     0.23271   0.55167   0.95937   0.00000  Uiso   1.00
O1269  O     0.16667   0.56011   0.79375   0.00000  Uiso   1.00
O1270  O     0.16666   0.43988   0.79372   0.00000  Uiso   1.00
O1271  O     0.16667   0.56012   0.87294   0.00000  Uiso   1.00
O1272  O     0.09161   0.50000   0.86379   0.00000  Uiso   1.00
O1273  O     0.24172   0.50000   0.80288   0.00000  Uiso   1.00
O1274  O     0.09161   0.49999   0.78460   0.00000  Uiso   1.00
O1275  O     0.24172   0.50001   0.88207   0.00000  Uiso   1.00
O1276  O     0.10118   0.44880   0.71035   0.00000  Uiso   1.00
C1277  C     0.50000   0.42082   0.83324   0.00000  Uiso   1.00
C1278  C     0.45862   0.35466   0.84856   0.00000  Uiso   1.00
C1279  C     0.50020   0.62379   0.83358   0.00000  Uiso   1.00
C1280  C     0.49998   0.37621   0.83311   0.00000  Uiso   1.00
C1281  C     0.46663   0.47424   0.68748   0.00000  Uiso   1.00
C1282  C     0.53398   0.52476   0.97969   0.00000  Uiso   1.00
C1283  C     0.46662   0.47508   0.97043   0.00000  Uiso   1.00
C1284  C     0.53268   0.52534   0.69606   0.00000  Uiso   1.00
C1285  C     0.39985   0.42247   0.68119   0.00000  Uiso   1.00
C1286  C     0.35065   0.44578   0.99455   0.00000  Uiso   1.00
C1287  C     0.64642   0.41816   0.96221   0.00000  Uiso   1.00
C1288  C     0.50012   0.57918   0.83344   0.00000  Uiso   1.00
C1289  C     0.61844   0.54834   0.98039   0.00000  Uiso   1.00
C1290  C     0.63784   0.58992   0.66902   0.00000  Uiso   1.00
C1291  C     0.36047   0.58711   0.69310   0.00000  Uiso   1.00
C1292  C     0.40120   0.49994   0.82115   0.00000  Uiso   1.00
C1293  C     0.59879   0.49991   0.84550   0.00000  Uiso   1.00
C1294  C     0.34581   0.50002   0.81446   0.00000  Uiso   1.00
C1295  C     0.65418   0.49959   0.85211   0.00000  Uiso   1.00
C1296  C     0.54147   0.35516   0.81789   0.00000  Uiso   1.00
C1297  C     0.45873   0.64484   0.84882   0.00000  Uiso   1.00
C1298  C     0.54159   0.64533   0.81813   0.00000  Uiso   1.00
Cl1299 Cl    0.59437   0.38276   0.80034   0.00000  Uiso   1.00
Cl1300 Cl    0.40588   0.61727   0.86650   0.00000  Uiso   1.00
Cl1301 Cl    0.59463   0.61838   0.80085   0.00000  Uiso   1.00
Cl1302 Cl    0.40560   0.38161   0.86581   0.00000  Uiso   1.00
Cu1303 Cu    0.50000   0.50001   0.88022   0.00000  Uiso   1.00
Cu1304 Cu    0.50000   0.49999   0.78645   0.00000  Uiso   1.00
H1305  H     0.65889   0.50055   0.77845   0.00000  Uiso   1.00
H1306  H     0.61079   0.43572   0.94953   0.00000  Uiso   1.00
H1307  H     0.63561   0.39044   0.98163   0.00000  Uiso   1.00
H1308  H     0.64169   0.54068   0.95200   0.00000  Uiso   1.00
H1309  H     0.62589   0.52332   0.67388   0.00000  Uiso   1.00
H1310  H     0.63525   0.61385   0.97428   0.00000  Uiso   1.00
H1311  H     0.61315   0.59968   0.69554   0.00000  Uiso   1.00
H1312  H     0.36363   0.56419   0.72224   0.00000  Uiso   1.00
H1313  H     0.37363   0.61781   0.70818   0.00000  Uiso   1.00
H1314  H     0.38607   0.57772   0.66715   0.00000  Uiso   1.00
H1315  H     0.34115   0.49896   0.88806   0.00000  Uiso   1.00
H1316  H     0.44028   0.45643   0.94637   0.00000  Uiso   1.00
H1317  H     0.55788   0.54609   0.71876   0.00000  Uiso   1.00
H1318  H     0.38823   0.39738   0.70410   0.00000  Uiso   1.00
H1319  H     0.41824   0.40599   0.98719   0.00000  Uiso   1.00
H1320  H     0.66464   0.45664   0.69113   0.00000  Uiso   1.00
H1321  H     0.36044   0.47333   0.97441   0.00000  Uiso   1.00
H1322  H     0.66421   0.40814   0.93108   0.00000  Uiso   1.00
N1323  N     0.50001   0.50001   0.95069   0.00000  Uiso   1.00
N1324  N     0.49999   0.49999   0.71597   0.00000  Uiso   1.00
O1325  O     0.50000   0.43989   0.87291   0.00000  Uiso   1.00
O1326  O     0.56604   0.55167   0.95937   0.00000  Uiso   1.00
O1327  O     0.50000   0.56011   0.79375   0.00000  Uiso   1.00
O1328  O     0.50000   0.43988   0.79372   0.00000  Uiso   1.00
O1329  O     0.50000   0.56012   0.87294   0.00000  Uiso   1.00
O1330  O     0.42495   0.50000   0.86379   0.00000  Uiso   1.00
O1331  O     0.57505   0.50000   0.80288   0.00000  Uiso   1.00
O1332  O     0.42494   0.49999   0.78460   0.00000  Uiso   1.00
O1333  O     0.57506   0.50001   0.88207   0.00000  Uiso   1.00
O1334  O     0.43452   0.44880   0.71035   0.00000  Uiso   1.00
C1335  C     0.83333   0.42082   0.83324   0.00000  Uiso   1.00
C1336  C     0.79195   0.35466   0.84856   0.00000  Uiso   1.00
C1337  C     0.83354   0.62379   0.83358   0.00000  Uiso   1.00
C1338  C     0.83331   0.37621   0.83311   0.00000  Uiso   1.00
C1339  C     0.79996   0.47424   0.68748   0.00000  Uiso   1.00
C1340  C     0.86731   0.52476   0.97969   0.00000  Uiso   1.00
C1341  C     0.79995   0.47508   0.97043   0.00000  Uiso   1.00
C1342  C     0.86601   0.52534   0.69606   0.00000  Uiso   1.00
C1343  C     0.73318   0.42247   0.68119   0.00000  Uiso   1.00
C1344  C     0.68398   0.44578   0.99455   0.00000  Uiso   1.00
C1345  C     0.97975   0.41816   0.96221   0.00000  Uiso   1.00
C1346  C     0.83346   0.57918   0.83344   0.00000  Uiso   1.00
C1347  C     0.95178   0.54834   0.98039   0.00000  Uiso   1.00
C1348  C     0.97117   0.58992   0.66902   0.00000  Uiso   1.00
C1349  C     0.69380   0.58711   0.69310   0.00000  Uiso   1.00
C1350  C     0.73454   0.49994   0.82115   0.00000  Uiso   1.00
C1351  C     0.93213   0.49991   0.84550   0.00000  Uiso   1.00
C1352  C     0.67915   0.50002   0.81446   0.00000  Uiso   1.00
C1353  C     0.98751   0.49959   0.85211   0.00000  Uiso   1.00
C1354  C     0.87481   0.35516   0.81789   0.00000  Uiso   1.00
C1355  C     0.79207   0.64484   0.84882   0.00000  Uiso   1.00
C1356  C     0.87492   0.64533   0.81813   0.00000  Uiso   1.00
Cl1357 Cl    0.92771   0.38276   0.80034   0.00000  Uiso   1.00
Cl1358 Cl    0.73921   0.61727   0.86650   0.00000  Uiso   1.00
Cl1359 Cl    0.92796   0.61838   0.80085   0.00000  Uiso   1.00
Cl1360 Cl    0.73893   0.38161   0.86581   0.00000  Uiso   1.00
Cu1361 Cu    0.83333   0.50001   0.88022   0.00000  Uiso   1.00
Cu1362 Cu    0.83333   0.49999   0.78645   0.00000  Uiso   1.00
H1363  H     0.99223   0.50055   0.77845   0.00000  Uiso   1.00
H1364  H     0.94413   0.43572   0.94953   0.00000  Uiso   1.00
H1365  H     0.96894   0.39044   0.98163   0.00000  Uiso   1.00
H1366  H     0.97502   0.54068   0.95200   0.00000  Uiso   1.00
H1367  H     0.95922   0.52332   0.67388   0.00000  Uiso   1.00
H1368  H     0.96858   0.61385   0.97428   0.00000  Uiso   1.00
H1369  H     0.94649   0.59968   0.69554   0.00000  Uiso   1.00
H1370  H     0.69697   0.56419   0.72224   0.00000  Uiso   1.00
H1371  H     0.70697   0.61781   0.70818   0.00000  Uiso   1.00
H1372  H     0.71941   0.57772   0.66715   0.00000  Uiso   1.00
H1373  H     0.67448   0.49896   0.88806   0.00000  Uiso   1.00
H1374  H     0.77361   0.45643   0.94637   0.00000  Uiso   1.00
H1375  H     0.89122   0.54609   0.71876   0.00000  Uiso   1.00
H1376  H     0.72156   0.39738   0.70410   0.00000  Uiso   1.00
H1377  H     0.75158   0.40599   0.98719   0.00000  Uiso   1.00
H1378  H     0.99797   0.45664   0.69113   0.00000  Uiso   1.00
H1379  H     0.69377   0.47333   0.97441   0.00000  Uiso   1.00
H1380  H     0.99754   0.40814   0.93108   0.00000  Uiso   1.00
N1381  N     0.83335   0.50001   0.95069   0.00000  Uiso   1.00
N1382  N     0.83332   0.49999   0.71597   0.00000  Uiso   1.00
O1383  O     0.83333   0.43989   0.87291   0.00000  Uiso   1.00
O1384  O     0.89937   0.55167   0.95937   0.00000  Uiso   1.00
O1385  O     0.83334   0.56011   0.79375   0.00000  Uiso   1.00
O1386  O     0.83333   0.43988   0.79372   0.00000  Uiso   1.00
O1387  O     0.83334   0.56012   0.87294   0.00000  Uiso   1.00
O1388  O     0.75828   0.50000   0.86379   0.00000  Uiso   1.00
O1389  O     0.90839   0.50000   0.80288   0.00000  Uiso   1.00
O1390  O     0.75828   0.49999   0.78460   0.00000  Uiso   1.00
O1391  O     0.90839   0.50001   0.88207   0.00000  Uiso   1.00
O1392  O     0.76785   0.44880   0.71035   0.00000  Uiso   1.00
C1393  C     0.16667   0.75415   0.83324   0.00000  Uiso   1.00
C1394  C     0.12528   0.68799   0.84856   0.00000  Uiso   1.00
C1395  C     0.16687   0.95712   0.83358   0.00000  Uiso   1.00
C1396  C     0.16665   0.70954   0.83311   0.00000  Uiso   1.00
C1397  C     0.13330   0.80758   0.68748   0.00000  Uiso   1.00
C1398  C     0.20065   0.85810   0.97969   0.00000  Uiso   1.00
C1399  C     0.13328   0.80842   0.97043   0.00000  Uiso   1.00
C1400  C     0.19934   0.85867   0.69606   0.00000  Uiso   1.00
C1401  C     0.06651   0.75581   0.68119   0.00000  Uiso   1.00
C1402  C     0.01731   0.77911   0.99455   0.00000  Uiso   1.00
C1403  C     0.31309   0.75149   0.96221   0.00000  Uiso   1.00
C1404  C     0.16679   0.91251   0.83344   0.00000  Uiso   1.00
C1405  C     0.28511   0.88167   0.98039   0.00000  Uiso   1.00
C1406  C     0.30450   0.92325   0.66902   0.00000  Uiso   1.00
C1407  C     0.02714   0.92044   0.69310   0.00000  Uiso   1.00
C1408  C     0.06787   0.83327   0.82115   0.00000  Uiso   1.00
C1409  C     0.26546   0.83324   0.84550   0.00000  Uiso   1.00
C1410  C     0.01248   0.83335   0.81446   0.00000  Uiso   1.00
C1411  C     0.32084   0.83293   0.85211   0.00000  Uiso   1.00
C1412  C     0.20814   0.68849   0.81789   0.00000  Uiso   1.00
C1413  C     0.12540   0.97818   0.84882   0.00000  Uiso   1.00
C1414  C     0.20825   0.97866   0.81813   0.00000  Uiso   1.00
Cl1415 Cl    0.26104   0.71609   0.80034   0.00000  Uiso   1.00
Cl1416 Cl    0.07254   0.95060   0.86650   0.00000  Uiso   1.00
Cl1417 Cl    0.26129   0.95171   0.80085   0.00000  Uiso   1.00
Cl1418 Cl    0.07226   0.71494   0.86581   0.00000  Uiso   1.00
Cu1419 Cu    0.16667   0.83334   0.88022   0.00000  Uiso   1.00
Cu1420 Cu    0.16667   0.83333   0.78645   0.00000  Uiso   1.00
H1421  H     0.32556   0.83388   0.77845   0.00000  Uiso   1.00
H1422  H     0.27746   0.76906   0.94953   0.00000  Uiso   1.00
H1423  H     0.30228   0.72377   0.98163   0.00000  Uiso   1.00
H1424  H     0.30836   0.87401   0.95200   0.00000  Uiso   1.00
H1425  H     0.29255   0.85665   0.67388   0.00000  Uiso   1.00
H1426  H     0.30191   0.94719   0.97428   0.00000  Uiso   1.00
H1427  H     0.27982   0.93301   0.69554   0.00000  Uiso   1.00
H1428  H     0.03030   0.89752   0.72224   0.00000  Uiso   1.00
H1429  H     0.04030   0.95114   0.70818   0.00000  Uiso   1.00
H1430  H     0.05274   0.91105   0.66715   0.00000  Uiso   1.00
H1431  H     0.00782   0.83230   0.88806   0.00000  Uiso   1.00
H1432  H     0.10695   0.78976   0.94637   0.00000  Uiso   1.00
H1433  H     0.22455   0.87942   0.71876   0.00000  Uiso   1.00
H1434  H     0.05489   0.73072   0.70410   0.00000  Uiso   1.00
H1435  H     0.08491   0.73932   0.98719   0.00000  Uiso   1.00
H1436  H     0.33131   0.78998   0.69113   0.00000  Uiso   1.00
H1437  H     0.02710   0.80667   0.97441   0.00000  Uiso   1.00
H1438  H     0.33087   0.74147   0.93108   0.00000  Uiso   1.00
N1439  N     0.16668   0.83334   0.95069   0.00000  Uiso   1.00
N1440  N     0.16665   0.83332   0.71597   0.00000  Uiso   1.00
O1441  O     0.16666   0.77322   0.87291   0.00000  Uiso   1.00
O1442  O     0.23271   0.88500   0.95937   0.00000  Uiso   1.00
O1443  O     0.16667   0.89345   0.79375   0.00000  Uiso   1.00
O1444  O     0.16666   0.77321   0.79372   0.00000  Uiso   1.00
O1445  O     0.16667   0.89346   0.87294   0.00000  Uiso   1.00
O1446  O     0.09161   0.83334   0.86379   0.00000  Uiso   1.00
O1447  O     0.24172   0.83333   0.80288   0.00000  Uiso   1.00
O1448  O     0.09161   0.83333   0.78460   0.00000  Uiso   1.00
O1449  O     0.24172   0.83334   0.88207   0.00000  Uiso   1.00
O1450  O     0.10118   0.78214   0.71035   0.00000  Uiso   1.00
C1451  C     0.50000   0.75415   0.83324   0.00000  Uiso   1.00
C1452  C     0.45862   0.68799   0.84856   0.00000  Uiso   1.00
C1453  C     0.50020   0.95712   0.83358   0.00000  Uiso   1.00
C1454  C     0.49998   0.70954   0.83311   0.00000  Uiso   1.00
C1455  C     0.46663   0.80758   0.68748   0.00000  Uiso   1.00
C1456  C     0.53398   0.85810   0.97969   0.00000  Uiso   1.00
C1457  C     0.46662   0.80842   0.97043   0.00000  Uiso   1.00
C1458  C     0.53268   0.85867   0.69606   0.00000  Uiso   1.00
C1459  C     0.39985   0.75581   0.68119   0.00000  Uiso   1.00
C1460  C     0.35065   0.77911   0.99455   0.00000  Uiso   1.00
C1461  C     0.64642   0.75149   0.96221   0.00000  Uiso   1.00
C1462  C     0.50012   0.91251   0.83344   0.00000  Uiso   1.00
C1463  C     0.61844   0.88167   0.98039   0.00000  Uiso   1.00
C1464  C     0.63784   0.92325   0.66902   0.00000  Uiso   1.00
C1465  C     0.36047   0.92044   0.69310   0.00000  Uiso   1.00
C1466  C     0.40120   0.83327   0.82115   0.00000  Uiso   1.00
C1467  C     0.59879   0.83324   0.84550   0.00000  Uiso   1.00
C1468  C     0.34581   0.83335   0.81446   0.00000  Uiso   1.00
C1469  C     0.65418   0.83293   0.85211   0.00000  Uiso   1.00
C1470  C     0.54147   0.68849   0.81789   0.00000  Uiso   1.00
C1471  C     0.45873   0.97818   0.84882   0.00000  Uiso   1.00
C1472  C     0.54159   0.97866   0.81813   0.00000  Uiso   1.00
Cl1473 Cl    0.59437   0.71609   0.80034   0.00000  Uiso   1.00
Cl1474 Cl    0.40588   0.95060   0.86650   0.00000  Uiso   1.00
Cl1475 Cl    0.59463   0.95171   0.80085   0.00000  Uiso   1.00
Cl1476 Cl    0.40560   0.71494   0.86581   0.00000  Uiso   1.00
Cu1477 Cu    0.50000   0.83334   0.88022   0.00000  Uiso   1.00
Cu1478 Cu    0.50000   0.83333   0.78645   0.00000  Uiso   1.00
H1479  H     0.65889   0.83388   0.77845   0.00000  Uiso   1.00
H1480  H     0.61079   0.76906   0.94953   0.00000  Uiso   1.00
H1481  H     0.63561   0.72377   0.98163   0.00000  Uiso   1.00
H1482  H     0.64169   0.87401   0.95200   0.00000  Uiso   1.00
H1483  H     0.62589   0.85665   0.67388   0.00000  Uiso   1.00
H1484  H     0.63525   0.94719   0.97428   0.00000  Uiso   1.00
H1485  H     0.61315   0.93301   0.69554   0.00000  Uiso   1.00
H1486  H     0.36363   0.89752   0.72224   0.00000  Uiso   1.00
H1487  H     0.37363   0.95114   0.70818   0.00000  Uiso   1.00
H1488  H     0.38607   0.91105   0.66715   0.00000  Uiso   1.00
H1489  H     0.34115   0.83230   0.88806   0.00000  Uiso   1.00
H1490  H     0.44028   0.78976   0.94637   0.00000  Uiso   1.00
H1491  H     0.55788   0.87942   0.71876   0.00000  Uiso   1.00
H1492  H     0.38823   0.73072   0.70410   0.00000  Uiso   1.00
H1493  H     0.41824   0.73932   0.98719   0.00000  Uiso   1.00
H1494  H     0.66464   0.78998   0.69113   0.00000  Uiso   1.00
H1495  H     0.36044   0.80667   0.97441   0.00000  Uiso   1.00
H1496  H     0.66421   0.74147   0.93108   0.00000  Uiso   1.00
N1497  N     0.50001   0.83334   0.95069   0.00000  Uiso   1.00
N1498  N     0.49999   0.83332   0.71597   0.00000  Uiso   1.00
O1499  O     0.50000   0.77322   0.87291   0.00000  Uiso   1.00
O1500  O     0.56604   0.88500   0.95937   0.00000  Uiso   1.00
O1501  O     0.50000   0.89345   0.79375   0.00000  Uiso   1.00
O1502  O     0.50000   0.77321   0.79372   0.00000  Uiso   1.00
O1503  O     0.50000   0.89346   0.87294   0.00000  Uiso   1.00
O1504  O     0.42495   0.83334   0.86379   0.00000  Uiso   1.00
O1505  O     0.57505   0.83333   0.80288   0.00000  Uiso   1.00
O1506  O     0.42494   0.83333   0.78460   0.00000  Uiso   1.00
O1507  O     0.57506   0.83334   0.88207   0.00000  Uiso   1.00
O1508  O     0.43452   0.78214   0.71035   0.00000  Uiso   1.00
C1509  C     0.83333   0.75415   0.83324   0.00000  Uiso   1.00
C1510  C     0.79195   0.68799   0.84856   0.00000  Uiso   1.00
C1511  C     0.83354   0.95712   0.83358   0.00000  Uiso   1.00
C1512  C     0.83331   0.70954   0.83311   0.00000  Uiso   1.00
C1513  C     0.79996   0.80758   0.68748   0.00000  Uiso   1.00
C1514  C     0.86731   0.85810   0.97969   0.00000  Uiso   1.00
C1515  C     0.79995   0.80842   0.97043   0.00000  Uiso   1.00
C1516  C     0.86601   0.85867   0.69606   0.00000  Uiso   1.00
C1517  C     0.73318   0.75581   0.68119   0.00000  Uiso   1.00
C1518  C     0.68398   0.77911   0.99455   0.00000  Uiso   1.00
C1519  C     0.97975   0.75149   0.96221   0.00000  Uiso   1.00
C1520  C     0.83346   0.91251   0.83344   0.00000  Uiso   1.00
C1521  C     0.95178   0.88167   0.98039   0.00000  Uiso   1.00
C1522  C     0.97117   0.92325   0.66902   0.00000  Uiso   1.00
C1523  C     0.69380   0.92044   0.69310   0.00000  Uiso   1.00
C1524  C     0.73454   0.83327   0.82115   0.00000  Uiso   1.00
C1525  C     0.93213   0.83324   0.84550   0.00000  Uiso   1.00
C1526  C     0.67915   0.83335   0.81446   0.00000  Uiso   1.00
C1527  C     0.98751   0.83293   0.85211   0.00000  Uiso   1.00
C1528  C     0.87481   0.68849   0.81789   0.00000  Uiso   1.00
C1529  C     0.79207   0.97818   0.84882   0.00000  Uiso   1.00
C1530  C     0.87492   0.97866   0.81813   0.00000  Uiso   1.00
Cl1531 Cl    0.92771   0.71609   0.80034   0.00000  Uiso   1.00
Cl1532 Cl    0.73921   0.95060   0.86650   0.00000  Uiso   1.00
Cl1533 Cl    0.92796   0.95171   0.80085   0.00000  Uiso   1.00
Cl1534 Cl    0.73893   0.71494   0.86581   0.00000  Uiso   1.00
Cu1535 Cu    0.83333   0.83334   0.88022   0.00000  Uiso   1.00
Cu1536 Cu    0.83333   0.83333   0.78645   0.00000  Uiso   1.00
H1537  H     0.99223   0.83388   0.77845   0.00000  Uiso   1.00
H1538  H     0.94413   0.76906   0.94953   0.00000  Uiso   1.00
H1539  H     0.96894   0.72377   0.98163   0.00000  Uiso   1.00
H1540  H     0.97502   0.87401   0.95200   0.00000  Uiso   1.00
H1541  H     0.95922   0.85665   0.67388   0.00000  Uiso   1.00
H1542  H     0.96858   0.94719   0.97428   0.00000  Uiso   1.00
H1543  H     0.94649   0.93301   0.69554   0.00000  Uiso   1.00
H1544  H     0.69697   0.89752   0.72224   0.00000  Uiso   1.00
H1545  H     0.70697   0.95114   0.70818   0.00000  Uiso   1.00
H1546  H     0.71941   0.91105   0.66715   0.00000  Uiso   1.00
H1547  H     0.67448   0.83230   0.88806   0.00000  Uiso   1.00
H1548  H     0.77361   0.78976   0.94637   0.00000  Uiso   1.00
H1549  H     0.89122   0.87942   0.71876   0.00000  Uiso   1.00
H1550  H     0.72156   0.73072   0.70410   0.00000  Uiso   1.00
H1551  H     0.75158   0.73932   0.98719   0.00000  Uiso   1.00
H1552  H     0.99797   0.78998   0.69113   0.00000  Uiso   1.00
H1553  H     0.69377   0.80667   0.97441   0.00000  Uiso   1.00
H1554  H     0.99754   0.74147   0.93108   0.00000  Uiso   1.00
N1555  N     0.83335   0.83334   0.95069   0.00000  Uiso   1.00
N1556  N     0.83332   0.83332   0.71597   0.00000  Uiso   1.00
O1557  O     0.83333   0.77322   0.87291   0.00000  Uiso   1.00
O1558  O     0.89937   0.88500   0.95937   0.00000  Uiso   1.00
O1559  O     0.83334   0.89345   0.79375   0.00000  Uiso   1.00
O1560  O     0.83333   0.77321   0.79372   0.00000  Uiso   1.00
O1561  O     0.83334   0.89346   0.87294   0.00000  Uiso   1.00
O1562  O     0.75828   0.83334   0.86379   0.00000  Uiso   1.00
O1563  O     0.90839   0.83333   0.80288   0.00000  Uiso   1.00
O1564  O     0.75828   0.83333   0.78460   0.00000  Uiso   1.00
O1565  O     0.90839   0.83334   0.88207   0.00000  Uiso   1.00
O1566  O     0.76785   0.78214   0.71035   0.00000  Uiso   1.00
loop_
_geom_bond_atom_site_label_1
_geom_bond_atom_site_label_2
_geom_bond_distance
_geom_bond_site_symmetry_2
_ccdc_geom_bond_type
C1     C4      1.440   .     S
C1     O52     1.288   .     A
C1     O49     1.288   .     A
C2     C4      1.405   .     A
C2     Cl26    1.771   .     S
C2     C369    1.393   1_545 S
C3     C21     1.405   .     A
C3     C12     1.440   .     S
C3     C22     1.405   .     A
C4     C20     1.405   .     A
C5     O58     1.399   .     S
C5     N48     1.375   .     A
C5     C1051   1.440   1_554 S
C6     O50     1.388   .     S
C6     N47     1.372   .     A
C6     C530    1.426   .     S
C7     H40     1.078   .     S
C7     N47     1.364   .     A
C7     C527    1.440   .     S
C8     H41     1.081   .     S
C8     N48     1.362   .     A
C8     C1050   1.426   1_554 S
C9     H42     1.111   .     S
C9     O58     1.414   .     S
C9     C1054   1.534   1_554 S
C9     H1087   1.111   1_554 S
C10    H45     1.109   .     S
C10    C531    1.534   .     S
C10    C127    1.525   1_455 S
C10    H682    1.111   1_455 S
C11    H31     1.111   .     S
C11    H46     1.110   .     S
C11    H30     1.111   .     S
C11    C68     1.525   .     S
C12    O53     1.288   .     A
C12    O51     1.288   .     A
C13    H32     1.110   .     S
C13    O50     1.419   .     S
C13    C536    1.530   .     S
C13    H555    1.115   .     S
C14    H35     1.110   .     S
C14    C1057   1.530   1_554 S
C14    C73     1.527   .     S
C14    H1078   1.112   1_554 S
C15    H38     1.111   .     S
C15    H36     1.111   .     S
C15    H37     1.111   .     S
C15    C130    1.527   1_455 S
C16    O56     1.290   .     A
C16    O54     1.285   .     A
C16    C18     1.432   .     S
C17    O55     1.285   .     A
C17    C19     1.432   .     S
C17    O57     1.290   .     A
C18    C135    1.337   1_455 S
C18    H145    1.088   1_455 S
C19    C76     1.337   .     S
C19    H97     1.087   .     S
C20    Cl23    1.771   .     S
C20    C370    1.393   1_545 S
C21    Cl24    1.772   .     S
C21    C176    1.393   .     S
C22    Cl25    1.772   .     S
C22    C194    1.393   .     S
Cu27   O53     1.953   .     S
Cu27   O54     1.950   .     S
Cu27   O57     1.955   .     S
Cu27   N47     2.014   .     S
Cu27   Cu28    2.680   .     S
Cu27   O49     1.951   .     S
Cu28   O56     1.955   .     S
Cu28   O52     1.953   .     S
Cu28   O55     1.950   .     S
Cu28   N48     2.014   .     S
Cu28   O51     1.951   .     S
H29    C76     1.088   .     S
H33    C1057   1.115   1_554 S
H34    C536    1.112   .     S
H39    C135    1.087   1_455 S
H43    C531    1.111   .     S
H44    C1112   1.111   1_554 S
C59    C62     1.440   .     S
C59    O110    1.288   .     A
C59    O107    1.288   .     A
C60    C62     1.405   .     A
C60    Cl84    1.771   .     S
C60    C427    1.393   1_545 S
C61    C79     1.405   .     A
C61    C70     1.440   .     S
C61    C80     1.405   .     A
C62    C78     1.405   .     A
C63    O116    1.399   .     S
C63    N106    1.375   .     A
C63    C1109   1.440   1_554 S
C64    O108    1.388   .     S
C64    N105    1.372   .     A
C64    C588    1.426   .     S
C65    H98     1.078   .     S
C65    N105    1.364   .     A
C65    C585    1.440   .     S
C66    H99     1.081   .     S
C66    N106    1.362   .     A
C66    C1108   1.426   1_554 S
C67    H100    1.111   .     S
C67    O116    1.414   .     S
C67    C1112   1.534   1_554 S
C67    H1145   1.111   1_554 S
C68    H103    1.109   .     S
C68    C589    1.534   .     S
C68    H566    1.111   .     S
C69    H89     1.111   .     S
C69    H104    1.110   .     S
C69    H88     1.111   .     S
C69    C126    1.525   .     S
C70    O111    1.288   .     A
C70    O109    1.288   .     A
C71    H90     1.110   .     S
C71    O108    1.419   .     S
C71    C594    1.530   .     S
C71    H613    1.115   .     S
C72    H93     1.110   .     S
C72    C1115   1.530   1_554 S
C72    C131    1.527   .     S
C72    H1136   1.112   1_554 S
C73    H96     1.111   .     S
C73    H94     1.111   .     S
C73    H95     1.111   .     S
C74    O114    1.290   .     A
C74    O112    1.285   .     A
C74    C76     1.432   .     S
C75    O113    1.285   .     A
C75    C77     1.432   .     S
C75    O115    1.290   .     A
C77    C134    1.337   .     S
C77    H155    1.087   .     S
C78    Cl81    1.771   .     S
C78    C428    1.393   1_545 S
C79    Cl82    1.772   .     S
C79    C234    1.393   .     S
C80    Cl83    1.772   .     S
C80    C252    1.393   .     S
Cu85   O111    1.953   .     S
Cu85   O112    1.950   .     S
Cu85   O115    1.955   .     S
Cu85   N105    2.014   .     S
Cu85   Cu86    2.680   .     S
Cu85   O107    1.951   .     S
Cu86   O114    1.955   .     S
Cu86   O110    1.953   .     S
Cu86   O113    1.950   .     S
Cu86   N106    2.014   .     S
Cu86   O109    1.951   .     S
H87    C134    1.088   .     S
H91    C1115   1.115   1_554 S
H92    C594    1.112   .     S
H101   C589    1.111   .     S
H102   C1170   1.111   1_554 S
C117   C120    1.440   .     S
C117   O168    1.288   .     A
C117   O165    1.288   .     A
C118   C120    1.405   .     A
C118   Cl142   1.771   .     S
C118   C485    1.393   1_545 S
C119   C137    1.405   .     A
C119   C128    1.440   .     S
C119   C138    1.405   .     A
C120   C136    1.405   .     A
C121   O174    1.399   .     S
C121   N164    1.375   .     A
C121   C1167   1.440   1_554 S
C122   O166    1.388   .     S
C122   N163    1.372   .     A
C122   C646    1.426   .     S
C123   H156    1.078   .     S
C123   N163    1.364   .     A
C123   C643    1.440   .     S
C124   H157    1.081   .     S
C124   N164    1.362   .     A
C124   C1166   1.426   1_554 S
C125   H158    1.111   .     S
C125   O174    1.414   .     S
C125   C1170   1.534   1_554 S
C125   H1203   1.111   1_554 S
C126   H161    1.109   .     S
C126   C647    1.534   .     S
C126   H624    1.111   .     S
C127   H147    1.111   .     S
C127   H162    1.110   .     S
C127   H146    1.111   .     S
C127   C10     1.525   1_655 S
C128   O169    1.288   .     A
C128   O167    1.288   .     A
C129   H148    1.110   .     S
C129   O166    1.419   .     S
C129   C652    1.530   .     S
C129   H671    1.115   .     S
C130   H151    1.110   .     S
C130   C1173   1.530   1_554 S
C130   C15     1.527   1_655 S
C130   H1194   1.112   1_554 S
C131   H154    1.111   .     S
C131   H152    1.111   .     S
C131   H153    1.111   .     S
C132   O172    1.290   .     A
C132   O170    1.285   .     A
C132   C134    1.432   .     S
C133   O171    1.285   .     A
C133   C135    1.432   .     S
C133   O173    1.290   .     A
C135   C18     1.337   1_655 S
C135   H39     1.087   1_655 S
C136   Cl139   1.771   .     S
C136   C486    1.393   1_545 S
C137   Cl140   1.772   .     S
C137   C292    1.393   .     S
C138   Cl141   1.772   .     S
C138   C310    1.393   .     S
Cu143  O169    1.953   .     S
Cu143  O170    1.950   .     S
Cu143  O173    1.955   .     S
Cu143  N163    2.014   .     S
Cu143  Cu144   2.680   .     S
Cu143  O165    1.951   .     S
Cu144  O172    1.955   .     S
Cu144  O168    1.953   .     S
Cu144  O171    1.950   .     S
Cu144  N164    2.014   .     S
Cu144  O167    1.951   .     S
H145   C18     1.088   1_655 S
H149   C1173   1.115   1_554 S
H150   C652    1.112   .     S
H159   C647    1.111   .     S
H160   C1054   1.111   1_654 S
C175   C178    1.440   .     S
C175   O226    1.288   .     A
C175   O223    1.288   .     A
C176   C178    1.405   .     A
C176   Cl200   1.771   .     S
C177   C195    1.405   .     A
C177   C186    1.440   .     S
C177   C196    1.405   .     A
C178   C194    1.405   .     A
C179   O232    1.399   .     S
C179   N222    1.375   .     A
C179   C1225   1.440   1_554 S
C180   O224    1.388   .     S
C180   N221    1.372   .     A
C180   C704    1.426   .     S
C181   H214    1.078   .     S
C181   N221    1.364   .     A
C181   C701    1.440   .     S
C182   H215    1.081   .     S
C182   N222    1.362   .     A
C182   C1224   1.426   1_554 S
C183   H216    1.111   .     S
C183   O232    1.414   .     S
C183   C1228   1.534   1_554 S
C183   H1261   1.111   1_554 S
C184   H219    1.109   .     S
C184   C705    1.534   .     S
C184   C301    1.525   1_455 S
C184   H856    1.111   1_455 S
C185   H205    1.111   .     S
C185   H220    1.110   .     S
C185   H204    1.111   .     S
C185   C242    1.525   .     S
C186   O227    1.288   .     A
C186   O225    1.288   .     A
C187   H206    1.110   .     S
C187   O224    1.419   .     S
C187   C710    1.530   .     S
C187   H729    1.115   .     S
C188   H209    1.110   .     S
C188   C1231   1.530   1_554 S
C188   C247    1.527   .     S
C188   H1252   1.112   1_554 S
C189   H212    1.111   .     S
C189   H210    1.111   .     S
C189   H211    1.111   .     S
C189   C304    1.527   1_455 S
C190   O230    1.290   .     A
C190   O228    1.285   .     A
C190   C192    1.432   .     S
C191   O229    1.285   .     A
C191   C193    1.432   .     S
C191   O231    1.290   .     A
C192   C309    1.337   1_455 S
C192   H319    1.088   1_455 S
C193   C250    1.337   .     S
C193   H271    1.087   .     S
C194   Cl197   1.771   .     S
C195   Cl198   1.772   .     S
C195   C350    1.393   .     S
C196   Cl199   1.772   .     S
C196   C368    1.393   .     S
Cu201  O227    1.953   .     S
Cu201  O228    1.950   .     S
Cu201  O231    1.955   .     S
Cu201  N221    2.014   .     S
Cu201  Cu202   2.680   .     S
Cu201  O223    1.951   .     S
Cu202  O230    1.955   .     S
Cu202  O226    1.953   .     S
Cu202  O229    1.950   .     S
Cu202  N222    2.014   .     S
Cu202  O225    1.951   .     S
H203   C250    1.088   .     S
H207   C1231   1.115   1_554 S
H208   C710    1.112   .     S
H213   C309    1.087   1_455 S
H217   C705    1.111   .     S
H218   C1286   1.111   1_554 S
C233   C236    1.440   .     S
C233   O284    1.288   .     A
C233   O281    1.288   .     A
C234   C236    1.405   .     A
C234   Cl258   1.771   .     S
C235   C253    1.405   .     A
C235   C244    1.440   .     S
C235   C254    1.405   .     A
C236   C252    1.405   .     A
C237   O290    1.399   .     S
C237   N280    1.375   .     A
C237   C1283   1.440   1_554 S
C238   O282    1.388   .     S
C238   N279    1.372   .     A
C238   C762    1.426   .     S
C239   H272    1.078   .     S
C239   N279    1.364   .     A
C239   C759    1.440   .     S
C240   H273    1.081   .     S
C240   N280    1.362   .     A
C240   C1282   1.426   1_554 S
C241   H274    1.111   .     S
C241   O290    1.414   .     S
C241   C1286   1.534   1_554 S
C241   H1319   1.111   1_554 S
C242   H277    1.109   .     S
C242   C763    1.534   .     S
C242   H740    1.111   .     S
C243   H263    1.111   .     S
C243   H278    1.110   .     S
C243   H262    1.111   .     S
C243   C300    1.525   .     S
C244   O285    1.288   .     A
C244   O283    1.288   .     A
C245   H264    1.110   .     S
C245   O282    1.419   .     S
C245   C768    1.530   .     S
C245   H787    1.115   .     S
C246   H267    1.110   .     S
C246   C1289   1.530   1_554 S
C246   C305    1.527   .     S
C246   H1310   1.112   1_554 S
C247   H270    1.111   .     S
C247   H268    1.111   .     S
C247   H269    1.111   .     S
C248   O288    1.290   .     A
C248   O286    1.285   .     A
C248   C250    1.432   .     S
C249   O287    1.285   .     A
C249   C251    1.432   .     S
C249   O289    1.290   .     A
C251   C308    1.337   .     S
C251   H329    1.087   .     S
C252   Cl255   1.771   .     S
C253   Cl256   1.772   .     S
C253   C408    1.393   .     S
C254   Cl257   1.772   .     S
C254   C426    1.393   .     S
Cu259  O285    1.953   .     S
Cu259  O286    1.950   .     S
Cu259  O289    1.955   .     S
Cu259  N279    2.014   .     S
Cu259  Cu260   2.680   .     S
Cu259  O281    1.951   .     S
Cu260  O288    1.955   .     S
Cu260  O284    1.953   .     S
Cu260  O287    1.950   .     S
Cu260  N280    2.014   .     S
Cu260  O283    1.951   .     S
H261   C308    1.088   .     S
H265   C1289   1.115   1_554 S
H266   C768    1.112   .     S
H275   C763    1.111   .     S
H276   C1344   1.111   1_554 S
C291   C294    1.440   .     S
C291   O342    1.288   .     A
C291   O339    1.288   .     A
C292   C294    1.405   .     A
C292   Cl316   1.771   .     S
C293   C311    1.405   .     A
C293   C302    1.440   .     S
C293   C312    1.405   .     A
C294   C310    1.405   .     A
C295   O348    1.399   .     S
C295   N338    1.375   .     A
C295   C1341   1.440   1_554 S
C296   O340    1.388   .     S
C296   N337    1.372   .     A
C296   C820    1.426   .     S
C297   H330    1.078   .     S
C297   N337    1.364   .     A
C297   C817    1.440   .     S
C298   H331    1.081   .     S
C298   N338    1.362   .     A
C298   C1340   1.426   1_554 S
C299   H332    1.111   .     S
C299   O348    1.414   .     S
C299   C1344   1.534   1_554 S
C299   H1377   1.111   1_554 S
C300   H335    1.109   .     S
C300   C821    1.534   .     S
C300   H798    1.111   .     S
C301   H321    1.111   .     S
C301   H336    1.110   .     S
C301   H320    1.111   .     S
C301   C184    1.525   1_655 S
C302   O343    1.288   .     A
C302   O341    1.288   .     A
C303   H322    1.110   .     S
C303   O340    1.419   .     S
C303   C826    1.530   .     S
C303   H845    1.115   .     S
C304   H325    1.110   .     S
C304   C1347   1.530   1_554 S
C304   C189    1.527   1_655 S
C304   H1368   1.112   1_554 S
C305   H328    1.111   .     S
C305   H326    1.111   .     S
C305   H327    1.111   .     S
C306   O346    1.290   .     A
C306   O344    1.285   .     A
C306   C308    1.432   .     S
C307   O345    1.285   .     A
C307   C309    1.432   .     S
C307   O347    1.290   .     A
C309   C192    1.337   1_655 S
C309   H213    1.087   1_655 S
C310   Cl313   1.771   .     S
C311   Cl314   1.772   .     S
C311   C466    1.393   .     S
C312   Cl315   1.772   .     S
C312   C484    1.393   .     S
Cu317  O343    1.953   .     S
Cu317  O344    1.950   .     S
Cu317  O347    1.955   .     S
Cu317  N337    2.014   .     S
Cu317  Cu318   2.680   .     S
Cu317  O339    1.951   .     S
Cu318  O346    1.955   .     S
Cu318  O342    1.953   .     S
Cu318  O345    1.950   .     S
Cu318  N338    2.014   .     S
Cu318  O341    1.951   .     S
H319   C192    1.088   1_655 S
H323   C1347   1.115   1_554 S
H324   C826    1.112   .     S
H333   C821    1.111   .     S
H334   C1228   1.111   1_654 S
C349   C352    1.440   .     S
C349   O400    1.288   .     A
C349   O397    1.288   .     A
C350   C352    1.405   .     A
C350   Cl374   1.771   .     S
C351   C369    1.405   .     A
C351   C360    1.440   .     S
C351   C370    1.405   .     A
C352   C368    1.405   .     A
C353   O406    1.399   .     S
C353   N396    1.375   .     A
C353   C1399   1.440   1_554 S
C354   O398    1.388   .     S
C354   N395    1.372   .     A
C354   C878    1.426   .     S
C355   H388    1.078   .     S
C355   N395    1.364   .     A
C355   C875    1.440   .     S
C356   H389    1.081   .     S
C356   N396    1.362   .     A
C356   C1398   1.426   1_554 S
C357   H390    1.111   .     S
C357   O406    1.414   .     S
C357   C1402   1.534   1_554 S
C357   H1435   1.111   1_554 S
C358   H393    1.109   .     S
C358   C879    1.534   .     S
C358   C475    1.525   1_455 S
C358   H1030   1.111   1_455 S
C359   H379    1.111   .     S
C359   H394    1.110   .     S
C359   H378    1.111   .     S
C359   C416    1.525   .     S
C360   O401    1.288   .     A
C360   O399    1.288   .     A
C361   H380    1.110   .     S
C361   O398    1.419   .     S
C361   C884    1.530   .     S
C361   H903    1.115   .     S
C362   H383    1.110   .     S
C362   C1405   1.530   1_554 S
C362   C421    1.527   .     S
C362   H1426   1.112   1_554 S
C363   H386    1.111   .     S
C363   H384    1.111   .     S
C363   H385    1.111   .     S
C363   C478    1.527   1_455 S
C364   O404    1.290   .     A
C364   O402    1.285   .     A
C364   C366    1.432   .     S
C365   O403    1.285   .     A
C365   C367    1.432   .     S
C365   O405    1.290   .     A
C366   C483    1.337   1_455 S
C366   H493    1.088   1_455 S
C367   C424    1.337   .     S
C367   H445    1.087   .     S
C368   Cl371   1.771   .     S
C369   Cl372   1.772   .     S
C369   C2      1.393   1_565 S
C370   Cl373   1.772   .     S
C370   C20     1.393   1_565 S
Cu375  O401    1.953   .     S
Cu375  O402    1.950   .     S
Cu375  O405    1.955   .     S
Cu375  N395    2.014   .     S
Cu375  Cu376   2.680   .     S
Cu375  O397    1.951   .     S
Cu376  O404    1.955   .     S
Cu376  O400    1.953   .     S
Cu376  O403    1.950   .     S
Cu376  N396    2.014   .     S
Cu376  O399    1.951   .     S
H377   C424    1.088   .     S
H381   C1405   1.115   1_554 S
H382   C884    1.112   .     S
H387   C483    1.087   1_455 S
H391   C879    1.111   .     S
H392   C1460   1.111   1_554 S
C407   C410    1.440   .     S
C407   O458    1.288   .     A
C407   O455    1.288   .     A
C408   C410    1.405   .     A
C408   Cl432   1.771   .     S
C409   C427    1.405   .     A
C409   C418    1.440   .     S
C409   C428    1.405   .     A
C410   C426    1.405   .     A
C411   O464    1.399   .     S
C411   N454    1.375   .     A
C411   C1457   1.440   1_554 S
C412   O456    1.388   .     S
C412   N453    1.372   .     A
C412   C936    1.426   .     S
C413   H446    1.078   .     S
C413   N453    1.364   .     A
C413   C933    1.440   .     S
C414   H447    1.081   .     S
C414   N454    1.362   .     A
C414   C1456   1.426   1_554 S
C415   H448    1.111   .     S
C415   O464    1.414   .     S
C415   C1460   1.534   1_554 S
C415   H1493   1.111   1_554 S
C416   H451    1.109   .     S
C416   C937    1.534   .     S
C416   H914    1.111   .     S
C417   H437    1.111   .     S
C417   H452    1.110   .     S
C417   H436    1.111   .     S
C417   C474    1.525   .     S
C418   O459    1.288   .     A
C418   O457    1.288   .     A
C419   H438    1.110   .     S
C419   O456    1.419   .     S
C419   C942    1.530   .     S
C419   H961    1.115   .     S
C420   H441    1.110   .     S
C420   C1463   1.530   1_554 S
C420   C479    1.527   .     S
C420   H1484   1.112   1_554 S
C421   H444    1.111   .     S
C421   H442    1.111   .     S
C421   H443    1.111   .     S
C422   O462    1.290   .     A
C422   O460    1.285   .     A
C422   C424    1.432   .     S
C423   O461    1.285   .     A
C423   C425    1.432   .     S
C423   O463    1.290   .     A
C425   C482    1.337   .     S
C425   H503    1.087   .     S
C426   Cl429   1.771   .     S
C427   Cl430   1.772   .     S
C427   C60     1.393   1_565 S
C428   Cl431   1.772   .     S
C428   C78     1.393   1_565 S
Cu433  O459    1.953   .     S
Cu433  O460    1.950   .     S
Cu433  O463    1.955   .     S
Cu433  N453    2.014   .     S
Cu433  Cu434   2.680   .     S
Cu433  O455    1.951   .     S
Cu434  O462    1.955   .     S
Cu434  O458    1.953   .     S
Cu434  O461    1.950   .     S
Cu434  N454    2.014   .     S
Cu434  O457    1.951   .     S
H435   C482    1.088   .     S
H439   C1463   1.115   1_554 S
H440   C942    1.112   .     S
H449   C937    1.111   .     S
H450   C1518   1.111   1_554 S
C465   C468    1.440   .     S
C465   O516    1.288   .     A
C465   O513    1.288   .     A
C466   C468    1.405   .     A
C466   Cl490   1.771   .     S
C467   C485    1.405   .     A
C467   C476    1.440   .     S
C467   C486    1.405   .     A
C468   C484    1.405   .     A
C469   O522    1.399   .     S
C469   N512    1.375   .     A
C469   C1515   1.440   1_554 S
C470   O514    1.388   .     S
C470   N511    1.372   .     A
C470   C994    1.426   .     S
C471   H504    1.078   .     S
C471   N511    1.364   .     A
C471   C991    1.440   .     S
C472   H505    1.081   .     S
C472   N512    1.362   .     A
C472   C1514   1.426   1_554 S
C473   H506    1.111   .     S
C473   O522    1.414   .     S
C473   C1518   1.534   1_554 S
C473   H1551   1.111   1_554 S
C474   H509    1.109   .     S
C474   C995    1.534   .     S
C474   H972    1.111   .     S
C475   H495    1.111   .     S
C475   H510    1.110   .     S
C475   H494    1.111   .     S
C475   C358    1.525   1_655 S
C476   O517    1.288   .     A
C476   O515    1.288   .     A
C477   H496    1.110   .     S
C477   O514    1.419   .     S
C477   C1000   1.530   .     S
C477   H1019   1.115   .     S
C478   H499    1.110   .     S
C478   C1521   1.530   1_554 S
C478   C363    1.527   1_655 S
C478   H1542   1.112   1_554 S
C479   H502    1.111   .     S
C479   H500    1.111   .     S
C479   H501    1.111   .     S
C480   O520    1.290   .     A
C480   O518    1.285   .     A
C480   C482    1.432   .     S
C481   O519    1.285   .     A
C481   C483    1.432   .     S
C481   O521    1.290   .     A
C483   C366    1.337   1_655 S
C483   H387    1.087   1_655 S
C484   Cl487   1.771   .     S
C485   Cl488   1.772   .     S
C485   C118    1.393   1_565 S
C486   Cl489   1.772   .     S
C486   C136    1.393   1_565 S
Cu491  O517    1.953   .     S
Cu491  O518    1.950   .     S
Cu491  O521    1.955   .     S
Cu491  N511    2.014   .     S
Cu491  Cu492   2.680   .     S
Cu491  O513    1.951   .     S
Cu492  O520    1.955   .     S
Cu492  O516    1.953   .     S
Cu492  O519    1.950   .     S
Cu492  N512    2.014   .     S
Cu492  O515    1.951   .     S
H493   C366    1.088   1_655 S
H497   C1521   1.115   1_554 S
H498   C1000   1.112   .     S
H507   C995    1.111   .     S
H508   C1402   1.111   1_654 S
C523   C526    1.440   .     S
C523   O574    1.288   .     A
C523   O571    1.288   .     A
C524   C526    1.405   .     A
C524   Cl548   1.771   .     S
C524   C891    1.393   1_545 S
C525   C543    1.405   .     A
C525   C534    1.440   .     S
C525   C544    1.405   .     A
C526   C542    1.405   .     A
C527   O580    1.399   .     S
C527   N570    1.375   .     A
C528   O572    1.388   .     S
C528   N569    1.372   .     A
C528   C1052   1.426   .     S
C529   H562    1.078   .     S
C529   N569    1.364   .     A
C529   C1049   1.440   .     S
C530   H563    1.081   .     S
C530   N570    1.362   .     A
C531   H564    1.111   .     S
C531   O580    1.414   .     S
C532   H567    1.109   .     S
C532   C1053   1.534   .     S
C532   C649    1.525   1_455 S
C532   H1204   1.111   1_455 S
C533   H553    1.111   .     S
C533   H568    1.110   .     S
C533   H552    1.111   .     S
C533   C590    1.525   .     S
C534   O575    1.288   .     A
C534   O573    1.288   .     A
C535   H554    1.110   .     S
C535   O572    1.419   .     S
C535   C1058   1.530   .     S
C535   H1077   1.115   .     S
C536   H557    1.110   .     S
C536   C595    1.527   .     S
C537   H560    1.111   .     S
C537   H558    1.111   .     S
C537   H559    1.111   .     S
C537   C652    1.527   1_455 S
C538   O578    1.290   .     A
C538   O576    1.285   .     A
C538   C540    1.432   .     S
C539   O577    1.285   .     A
C539   C541    1.432   .     S
C539   O579    1.290   .     A
C540   C657    1.337   1_455 S
C540   H667    1.088   1_455 S
C541   C598    1.337   .     S
C541   H619    1.087   .     S
C542   Cl545   1.771   .     S
C542   C892    1.393   1_545 S
C543   Cl546   1.772   .     S
C543   C698    1.393   .     S
C544   Cl547   1.772   .     S
C544   C716    1.393   .     S
Cu549  O575    1.953   .     S
Cu549  O576    1.950   .     S
Cu549  O579    1.955   .     S
Cu549  N569    2.014   .     S
Cu549  Cu550   2.680   .     S
Cu549  O571    1.951   .     S
Cu550  O578    1.955   .     S
Cu550  O574    1.953   .     S
Cu550  O577    1.950   .     S
Cu550  N570    2.014   .     S
Cu550  O573    1.951   .     S
H551   C598    1.088   .     S
H556   C1058   1.112   .     S
H561   C657    1.087   1_455 S
H565   C1053   1.111   .     S
C581   C584    1.440   .     S
C581   O632    1.288   .     A
C581   O629    1.288   .     A
C582   C584    1.405   .     A
C582   Cl606   1.771   .     S
C582   C949    1.393   1_545 S
C583   C601    1.405   .     A
C583   C592    1.440   .     S
C583   C602    1.405   .     A
C584   C600    1.405   .     A
C585   O638    1.399   .     S
C585   N628    1.375   .     A
C586   O630    1.388   .     S
C586   N627    1.372   .     A
C586   C1110   1.426   .     S
C587   H620    1.078   .     S
C587   N627    1.364   .     A
C587   C1107   1.440   .     S
C588   H621    1.081   .     S
C588   N628    1.362   .     A
C589   H622    1.111   .     S
C589   O638    1.414   .     S
C590   H625    1.109   .     S
C590   C1111   1.534   .     S
C590   H1088   1.111   .     S
C591   H611    1.111   .     S
C591   H626    1.110   .     S
C591   H610    1.111   .     S
C591   C648    1.525   .     S
C592   O633    1.288   .     A
C592   O631    1.288   .     A
C593   H612    1.110   .     S
C593   O630    1.419   .     S
C593   C1116   1.530   .     S
C593   H1135   1.115   .     S
C594   H615    1.110   .     S
C594   C653    1.527   .     S
C595   H618    1.111   .     S
C595   H616    1.111   .     S
C595   H617    1.111   .     S
C596   O636    1.290   .     A
C596   O634    1.285   .     A
C596   C598    1.432   .     S
C597   O635    1.285   .     A
C597   C599    1.432   .     S
C597   O637    1.290   .     A
C599   C656    1.337   .     S
C599   H677    1.087   .     S
C600   Cl603   1.771   .     S
C600   C950    1.393   1_545 S
C601   Cl604   1.772   .     S
C601   C756    1.393   .     S
C602   Cl605   1.772   .     S
C602   C774    1.393   .     S
Cu607  O633    1.953   .     S
Cu607  O634    1.950   .     S
Cu607  O637    1.955   .     S
Cu607  N627    2.014   .     S
Cu607  Cu608   2.680   .     S
Cu607  O629    1.951   .     S
Cu608  O636    1.955   .     S
Cu608  O632    1.953   .     S
Cu608  O635    1.950   .     S
Cu608  N628    2.014   .     S
Cu608  O631    1.951   .     S
H609   C656    1.088   .     S
H614   C1116   1.112   .     S
H623   C1111   1.111   .     S
C639   C642    1.440   .     S
C639   O690    1.288   .     A
C639   O687    1.288   .     A
C640   C642    1.405   .     A
C640   Cl664   1.771   .     S
C640   C1007   1.393   1_545 S
C641   C659    1.405   .     A
C641   C650    1.440   .     S
C641   C660    1.405   .     A
C642   C658    1.405   .     A
C643   O696    1.399   .     S
C643   N686    1.375   .     A
C644   O688    1.388   .     S
C644   N685    1.372   .     A
C644   C1168   1.426   .     S
C645   H678    1.078   .     S
C645   N685    1.364   .     A
C645   C1165   1.440   .     S
C646   H679    1.081   .     S
C646   N686    1.362   .     A
C647   H680    1.111   .     S
C647   O696    1.414   .     S
C648   H683    1.109   .     S
C648   C1169   1.534   .     S
C648   H1146   1.111   .     S
C649   H669    1.111   .     S
C649   H684    1.110   .     S
C649   H668    1.111   .     S
C649   C532    1.525   1_655 S
C650   O691    1.288   .     A
C650   O689    1.288   .     A
C651   H670    1.110   .     S
C651   O688    1.419   .     S
C651   C1174   1.530   .     S
C651   H1193   1.115   .     S
C652   H673    1.110   .     S
C652   C537    1.527   1_655 S
C653   H676    1.111   .     S
C653   H674    1.111   .     S
C653   H675    1.111   .     S
C654   O694    1.290   .     A
C654   O692    1.285   .     A
C654   C656    1.432   .     S
C655   O693    1.285   .     A
C655   C657    1.432   .     S
C655   O695    1.290   .     A
C657   C540    1.337   1_655 S
C657   H561    1.087   1_655 S
C658   Cl661   1.771   .     S
C658   C1008   1.393   1_545 S
C659   Cl662   1.772   .     S
C659   C814    1.393   .     S
C660   Cl663   1.772   .     S
C660   C832    1.393   .     S
Cu665  O691    1.953   .     S
Cu665  O692    1.950   .     S
Cu665  O695    1.955   .     S
Cu665  N685    2.014   .     S
Cu665  Cu666   2.680   .     S
Cu665  O687    1.951   .     S
Cu666  O694    1.955   .     S
Cu666  O690    1.953   .     S
Cu666  O693    1.950   .     S
Cu666  N686    2.014   .     S
Cu666  O689    1.951   .     S
H667   C540    1.088   1_655 S
H672   C1174   1.112   .     S
H681   C1169   1.111   .     S
H682   C10     1.111   1_655 S
C697   C700    1.440   .     S
C697   O748    1.288   .     A
C697   O745    1.288   .     A
C698   C700    1.405   .     A
C698   Cl722   1.771   .     S
C699   C717    1.405   .     A
C699   C708    1.440   .     S
C699   C718    1.405   .     A
C700   C716    1.405   .     A
C701   O754    1.399   .     S
C701   N744    1.375   .     A
C702   O746    1.388   .     S
C702   N743    1.372   .     A
C702   C1226   1.426   .     S
C703   H736    1.078   .     S
C703   N743    1.364   .     A
C703   C1223   1.440   .     S
C704   H737    1.081   .     S
C704   N744    1.362   .     A
C705   H738    1.111   .     S
C705   O754    1.414   .     S
C706   H741    1.109   .     S
C706   C1227   1.534   .     S
C706   C823    1.525   1_455 S
C706   H1378   1.111   1_455 S
C707   H727    1.111   .     S
C707   H742    1.110   .     S
C707   H726    1.111   .     S
C707   C764    1.525   .     S
C708   O749    1.288   .     A
C708   O747    1.288   .     A
C709   H728    1.110   .     S
C709   O746    1.419   .     S
C709   C1232   1.530   .     S
C709   H1251   1.115   .     S
C710   H731    1.110   .     S
C710   C769    1.527   .     S
C711   H734    1.111   .     S
C711   H732    1.111   .     S
C711   H733    1.111   .     S
C711   C826    1.527   1_455 S
C712   O752    1.290   .     A
C712   O750    1.285   .     A
C712   C714    1.432   .     S
C713   O751    1.285   .     A
C713   C715    1.432   .     S
C713   O753    1.290   .     A
C714   C831    1.337   1_455 S
C714   H841    1.088   1_455 S
C715   C772    1.337   .     S
C715   H793    1.087   .     S
C716   Cl719   1.771   .     S
C717   Cl720   1.772   .     S
C717   C872    1.393   .     S
C718   Cl721   1.772   .     S
C718   C890    1.393   .     S
Cu723  O749    1.953   .     S
Cu723  O750    1.950   .     S
Cu723  O753    1.955   .     S
Cu723  N743    2.014   .     S
Cu723  Cu724   2.680   .     S
Cu723  O745    1.951   .     S
Cu724  O752    1.955   .     S
Cu724  O748    1.953   .     S
Cu724  O751    1.950   .     S
Cu724  N744    2.014   .     S
Cu724  O747    1.951   .     S
H725   C772    1.088   .     S
H730   C1232   1.112   .     S
H735   C831    1.087   1_455 S
H739   C1227   1.111   .     S
C755   C758    1.440   .     S
C755   O806    1.288   .     A
C755   O803    1.288   .     A
C756   C758    1.405   .     A
C756   Cl780   1.771   .     S
C757   C775    1.405   .     A
C757   C766    1.440   .     S
C757   C776    1.405   .     A
C758   C774    1.405   .     A
C759   O812    1.399   .     S
C759   N802    1.375   .     A
C760   O804    1.388   .     S
C760   N801    1.372   .     A
C760   C1284   1.426   .     S
C761   H794    1.078   .     S
C761   N801    1.364   .     A
C761   C1281   1.440   .     S
C762   H795    1.081   .     S
C762   N802    1.362   .     A
C763   H796    1.111   .     S
C763   O812    1.414   .     S
C764   H799    1.109   .     S
C764   C1285   1.534   .     S
C764   H1262   1.111   .     S
C765   H785    1.111   .     S
C765   H800    1.110   .     S
C765   H784    1.111   .     S
C765   C822    1.525   .     S
C766   O807    1.288   .     A
C766   O805    1.288   .     A
C767   H786    1.110   .     S
C767   O804    1.419   .     S
C767   C1290   1.530   .     S
C767   H1309   1.115   .     S
C768   H789    1.110   .     S
C768   C827    1.527   .     S
C769   H792    1.111   .     S
C769   H790    1.111   .     S
C769   H791    1.111   .     S
C770   O810    1.290   .     A
C770   O808    1.285   .     A
C770   C772    1.432   .     S
C771   O809    1.285   .     A
C771   C773    1.432   .     S
C771   O811    1.290   .     A
C773   C830    1.337   .     S
C773   H851    1.087   .     S
C774   Cl777   1.771   .     S
C775   Cl778   1.772   .     S
C775   C930    1.393   .     S
C776   Cl779   1.772   .     S
C776   C948    1.393   .     S
Cu781  O807    1.953   .     S
Cu781  O808    1.950   .     S
Cu781  O811    1.955   .     S
Cu781  N801    2.014   .     S
Cu781  Cu782   2.680   .     S
Cu781  O803    1.951   .     S
Cu782  O810    1.955   .     S
Cu782  O806    1.953   .     S
Cu782  O809    1.950   .     S
Cu782  N802    2.014   .     S
Cu782  O805    1.951   .     S
H783   C830    1.088   .     S
H788   C1290   1.112   .     S
H797   C1285   1.111   .     S
C813   C816    1.440   .     S
C813   O864    1.288   .     A
C813   O861    1.288   .     A
C814   C816    1.405   .     A
C814   Cl838   1.771   .     S
C815   C833    1.405   .     A
C815   C824    1.440   .     S
C815   C834    1.405   .     A
C816   C832    1.405   .     A
C817   O870    1.399   .     S
C817   N860    1.375   .     A
C818   O862    1.388   .     S
C818   N859    1.372   .     A
C818   C1342   1.426   .     S
C819   H852    1.078   .     S
C819   N859    1.364   .     A
C819   C1339   1.440   .     S
C820   H853    1.081   .     S
C820   N860    1.362   .     A
C821   H854    1.111   .     S
C821   O870    1.414   .     S
C822   H857    1.109   .     S
C822   C1343   1.534   .     S
C822   H1320   1.111   .     S
C823   H843    1.111   .     S
C823   H858    1.110   .     S
C823   H842    1.111   .     S
C823   C706    1.525   1_655 S
C824   O865    1.288   .     A
C824   O863    1.288   .     A
C825   H844    1.110   .     S
C825   O862    1.419   .     S
C825   C1348   1.530   .     S
C825   H1367   1.115   .     S
C826   H847    1.110   .     S
C826   C711    1.527   1_655 S
C827   H850    1.111   .     S
C827   H848    1.111   .     S
C827   H849    1.111   .     S
C828   O868    1.290   .     A
C828   O866    1.285   .     A
C828   C830    1.432   .     S
C829   O867    1.285   .     A
C829   C831    1.432   .     S
C829   O869    1.290   .     A
C831   C714    1.337   1_655 S
C831   H735    1.087   1_655 S
C832   Cl835   1.771   .     S
C833   Cl836   1.772   .     S
C833   C988    1.393   .     S
C834   Cl837   1.772   .     S
C834   C1006   1.393   .     S
Cu839  O865    1.953   .     S
Cu839  O866    1.950   .     S
Cu839  O869    1.955   .     S
Cu839  N859    2.014   .     S
Cu839  Cu840   2.680   .     S
Cu839  O861    1.951   .     S
Cu840  O868    1.955   .     S
Cu840  O864    1.953   .     S
Cu840  O867    1.950   .     S
Cu840  N860    2.014   .     S
Cu840  O863    1.951   .     S
H841   C714    1.088   1_655 S
H846   C1348   1.112   .     S
H855   C1343   1.111   .     S
H856   C184    1.111   1_655 S
C871   C874    1.440   .     S
C871   O922    1.288   .     A
C871   O919    1.288   .     A
C872   C874    1.405   .     A
C872   Cl896   1.771   .     S
C873   C891    1.405   .     A
C873   C882    1.440   .     S
C873   C892    1.405   .     A
C874   C890    1.405   .     A
C875   O928    1.399   .     S
C875   N918    1.375   .     A
C876   O920    1.388   .     S
C876   N917    1.372   .     A
C876   C1400   1.426   .     S
C877   H910    1.078   .     S
C877   N917    1.364   .     A
C877   C1397   1.440   .     S
C878   H911    1.081   .     S
C878   N918    1.362   .     A
C879   H912    1.111   .     S
C879   O928    1.414   .     S
C880   H915    1.109   .     S
C880   C1401   1.534   .     S
C880   C997    1.525   1_455 S
C880   H1552   1.111   1_455 S
C881   H901    1.111   .     S
C881   H916    1.110   .     S
C881   H900    1.111   .     S
C881   C938    1.525   .     S
C882   O923    1.288   .     A
C882   O921    1.288   .     A
C883   H902    1.110   .     S
C883   O920    1.419   .     S
C883   C1406   1.530   .     S
C883   H1425   1.115   .     S
C884   H905    1.110   .     S
C884   C943    1.527   .     S
C885   H908    1.111   .     S
C885   H906    1.111   .     S
C885   H907    1.111   .     S
C885   C1000   1.527   1_455 S
C886   O926    1.290   .     A
C886   O924    1.285   .     A
C886   C888    1.432   .     S
C887   O925    1.285   .     A
C887   C889    1.432   .     S
C887   O927    1.290   .     A
C888   C1005   1.337   1_455 S
C888   H1015   1.088   1_455 S
C889   C946    1.337   .     S
C889   H967    1.087   .     S
C890   Cl893   1.771   .     S
C891   Cl894   1.772   .     S
C891   C524    1.393   1_565 S
C892   Cl895   1.772   .     S
C892   C542    1.393   1_565 S
Cu897  O923    1.953   .     S
Cu897  O924    1.950   .     S
Cu897  O927    1.955   .     S
Cu897  N917    2.014   .     S
Cu897  Cu898   2.680   .     S
Cu897  O919    1.951   .     S
Cu898  O926    1.955   .     S
Cu898  O922    1.953   .     S
Cu898  O925    1.950   .     S
Cu898  N918    2.014   .     S
Cu898  O921    1.951   .     S
H899   C946    1.088   .     S
H904   C1406   1.112   .     S
H909   C1005   1.087   1_455 S
H913   C1401   1.111   .     S
C929   C932    1.440   .     S
C929   O980    1.288   .     A
C929   O977    1.288   .     A
C930   C932    1.405   .     A
C930   Cl954   1.771   .     S
C931   C949    1.405   .     A
C931   C940    1.440   .     S
C931   C950    1.405   .     A
C932   C948    1.405   .     A
C933   O986    1.399   .     S
C933   N976    1.375   .     A
C934   O978    1.388   .     S
C934   N975    1.372   .     A
C934   C1458   1.426   .     S
C935   H968    1.078   .     S
C935   N975    1.364   .     A
C935   C1455   1.440   .     S
C936   H969    1.081   .     S
C936   N976    1.362   .     A
C937   H970    1.111   .     S
C937   O986    1.414   .     S
C938   H973    1.109   .     S
C938   C1459   1.534   .     S
C938   H1436   1.111   .     S
C939   H959    1.111   .     S
C939   H974    1.110   .     S
C939   H958    1.111   .     S
C939   C996    1.525   .     S
C940   O981    1.288   .     A
C940   O979    1.288   .     A
C941   H960    1.110   .     S
C941   O978    1.419   .     S
C941   C1464   1.530   .     S
C941   H1483   1.115   .     S
C942   H963    1.110   .     S
C942   C1001   1.527   .     S
C943   H966    1.111   .     S
C943   H964    1.111   .     S
C943   H965    1.111   .     S
C944   O984    1.290   .     A
C944   O982    1.285   .     A
C944   C946    1.432   .     S
C945   O983    1.285   .     A
C945   C947    1.432   .     S
C945   O985    1.290   .     A
C947   C1004   1.337   .     S
C947   H1025   1.087   .     S
C948   Cl951   1.771   .     S
C949   Cl952   1.772   .     S
C949   C582    1.393   1_565 S
C950   Cl953   1.772   .     S
C950   C600    1.393   1_565 S
Cu955  O981    1.953   .     S
Cu955  O982    1.950   .     S
Cu955  O985    1.955   .     S
Cu955  N975    2.014   .     S
Cu955  Cu956   2.680   .     S
Cu955  O977    1.951   .     S
Cu956  O984    1.955   .     S
Cu956  O980    1.953   .     S
Cu956  O983    1.950   .     S
Cu956  N976    2.014   .     S
Cu956  O979    1.951   .     S
H957   C1004   1.088   .     S
H962   C1464   1.112   .     S
H971   C1459   1.111   .     S
C987   C990    1.440   .     S
C987   O1038   1.288   .     A
C987   O1035   1.288   .     A
C988   C990    1.405   .     A
C988   Cl1012  1.771   .     S
C989   C1007   1.405   .     A
C989   C998    1.440   .     S
C989   C1008   1.405   .     A
C990   C1006   1.405   .     A
C991   O1044   1.399   .     S
C991   N1034   1.375   .     A
C992   O1036   1.388   .     S
C992   N1033   1.372   .     A
C992   C1516   1.426   .     S
C993   H1026   1.078   .     S
C993   N1033   1.364   .     A
C993   C1513   1.440   .     S
C994   H1027   1.081   .     S
C994   N1034   1.362   .     A
C995   H1028   1.111   .     S
C995   O1044   1.414   .     S
C996   H1031   1.109   .     S
C996   C1517   1.534   .     S
C996   H1494   1.111   .     S
C997   H1017   1.111   .     S
C997   H1032   1.110   .     S
C997   H1016   1.111   .     S
C997   C880    1.525   1_655 S
C998   O1039   1.288   .     A
C998   O1037   1.288   .     A
C999   H1018   1.110   .     S
C999   O1036   1.419   .     S
C999   C1522   1.530   .     S
C999   H1541   1.115   .     S
C1000  H1021   1.110   .     S
C1000  C885    1.527   1_655 S
C1001  H1024   1.111   .     S
C1001  H1022   1.111   .     S
C1001  H1023   1.111   .     S
C1002  O1042   1.290   .     A
C1002  O1040   1.285   .     A
C1002  C1004   1.432   .     S
C1003  O1041   1.285   .     A
C1003  C1005   1.432   .     S
C1003  O1043   1.290   .     A
C1005  C888    1.337   1_655 S
C1005  H909    1.087   1_655 S
C1006  Cl1009  1.771   .     S
C1007  Cl1010  1.772   .     S
C1007  C640    1.393   1_565 S
C1008  Cl1011  1.772   .     S
C1008  C658    1.393   1_565 S
Cu1013 O1039   1.953   .     S
Cu1013 O1040   1.950   .     S
Cu1013 O1043   1.955   .     S
Cu1013 N1033   2.014   .     S
Cu1013 Cu1014  2.680   .     S
Cu1013 O1035   1.951   .     S
Cu1014 O1042   1.955   .     S
Cu1014 O1038   1.953   .     S
Cu1014 O1041   1.950   .     S
Cu1014 N1034   2.014   .     S
Cu1014 O1037   1.951   .     S
H1015  C888    1.088   1_655 S
H1020  C1522   1.112   .     S
H1029  C1517   1.111   .     S
H1030  C358    1.111   1_655 S
C1045  C1048   1.440   .     S
C1045  O1096   1.288   .     A
C1045  O1093   1.288   .     A
C1046  C1048   1.405   .     A
C1046  Cl1070  1.771   .     S
C1046  C1413   1.393   1_545 S
C1047  C1065   1.405   .     A
C1047  C1056   1.440   .     S
C1047  C1066   1.405   .     A
C1048  C1064   1.405   .     A
C1049  O1102   1.399   .     S
C1049  N1092   1.375   .     A
C1050  O1094   1.388   .     S
C1050  N1091   1.372   .     A
C1050  C8      1.426   1_556 S
C1051  H1084   1.078   .     S
C1051  N1091   1.364   .     A
C1051  C5      1.440   1_556 S
C1052  H1085   1.081   .     S
C1052  N1092   1.362   .     A
C1053  H1086   1.111   .     S
C1053  O1102   1.414   .     S
C1054  H1089   1.109   .     S
C1054  C9      1.534   1_556 S
C1054  C1171   1.525   1_455 S
C1054  H160    1.111   1_456 S
C1055  H1075   1.111   .     S
C1055  H1090   1.110   .     S
C1055  H1074   1.111   .     S
C1055  C1112   1.525   .     S
C1056  O1097   1.288   .     A
C1056  O1095   1.288   .     A
C1057  H1076   1.110   .     S
C1057  O1094   1.419   .     S
C1057  C14     1.530   1_556 S
C1057  H33     1.115   1_556 S
C1058  H1079   1.110   .     S
C1058  C1117   1.527   .     S
C1059  H1082   1.111   .     S
C1059  H1080   1.111   .     S
C1059  H1081   1.111   .     S
C1059  C1174   1.527   1_455 S
C1060  O1100   1.290   .     A
C1060  O1098   1.285   .     A
C1060  C1062   1.432   .     S
C1061  O1099   1.285   .     A
C1061  C1063   1.432   .     S
C1061  O1101   1.290   .     A
C1062  C1179   1.337   1_455 S
C1062  H1189   1.088   1_455 S
C1063  C1120   1.337   .     S
C1063  H1141   1.087   .     S
C1064  Cl1067  1.771   .     S
C1064  C1414   1.393   1_545 S
C1065  Cl1068  1.772   .     S
C1065  C1220   1.393   .     S
C1066  Cl1069  1.772   .     S
C1066  C1238   1.393   .     S
Cu1071 O1097   1.953   .     S
Cu1071 O1098   1.950   .     S
Cu1071 O1101   1.955   .     S
Cu1071 N1091   2.014   .     S
Cu1071 Cu1072  2.680   .     S
Cu1071 O1093   1.951   .     S
Cu1072 O1100   1.955   .     S
Cu1072 O1096   1.953   .     S
Cu1072 O1099   1.950   .     S
Cu1072 N1092   2.014   .     S
Cu1072 O1095   1.951   .     S
H1073  C1120   1.088   .     S
H1078  C14     1.112   1_556 S
H1083  C1179   1.087   1_455 S
H1087  C9      1.111   1_556 S
C1103  C1106   1.440   .     S
C1103  O1154   1.288   .     A
C1103  O1151   1.288   .     A
C1104  C1106   1.405   .     A
C1104  Cl1128  1.771   .     S
C1104  C1471   1.393   1_545 S
C1105  C1123   1.405   .     A
C1105  C1114   1.440   .     S
C1105  C1124   1.405   .     A
C1106  C1122   1.405   .     A
C1107  O1160   1.399   .     S
C1107  N1150   1.375   .     A
C1108  O1152   1.388   .     S
C1108  N1149   1.372   .     A
C1108  C66     1.426   1_556 S
C1109  H1142   1.078   .     S
C1109  N1149   1.364   .     A
C1109  C63     1.440   1_556 S
C1110  H1143   1.081   .     S
C1110  N1150   1.362   .     A
C1111  H1144   1.111   .     S
C1111  O1160   1.414   .     S
C1112  H1147   1.109   .     S
C1112  C67     1.534   1_556 S
C1112  H44     1.111   1_556 S
C1113  H1133   1.111   .     S
C1113  H1148   1.110   .     S
C1113  H1132   1.111   .     S
C1113  C1170   1.525   .     S
C1114  O1155   1.288   .     A
C1114  O1153   1.288   .     A
C1115  H1134   1.110   .     S
C1115  O1152   1.419   .     S
C1115  C72     1.530   1_556 S
C1115  H91     1.115   1_556 S
C1116  H1137   1.110   .     S
C1116  C1175   1.527   .     S
C1117  H1140   1.111   .     S
C1117  H1138   1.111   .     S
C1117  H1139   1.111   .     S
C1118  O1158   1.290   .     A
C1118  O1156   1.285   .     A
C1118  C1120   1.432   .     S
C1119  O1157   1.285   .     A
C1119  C1121   1.432   .     S
C1119  O1159   1.290   .     A
C1121  C1178   1.337   .     S
C1121  H1199   1.087   .     S
C1122  Cl1125  1.771   .     S
C1122  C1472   1.393   1_545 S
C1123  Cl1126  1.772   .     S
C1123  C1278   1.393   .     S
C1124  Cl1127  1.772   .     S
C1124  C1296   1.393   .     S
Cu1129 O1155   1.953   .     S
Cu1129 O1156   1.950   .     S
Cu1129 O1159   1.955   .     S
Cu1129 N1149   2.014   .     S
Cu1129 Cu1130  2.680   .     S
Cu1129 O1151   1.951   .     S
Cu1130 O1158   1.955   .     S
Cu1130 O1154   1.953   .     S
Cu1130 O1157   1.950   .     S
Cu1130 N1150   2.014   .     S
Cu1130 O1153   1.951   .     S
H1131  C1178   1.088   .     S
H1136  C72     1.112   1_556 S
H1145  C67     1.111   1_556 S
C1161  C1164   1.440   .     S
C1161  O1212   1.288   .     A
C1161  O1209   1.288   .     A
C1162  C1164   1.405   .     A
C1162  Cl1186  1.771   .     S
C1162  C1529   1.393   1_545 S
C1163  C1181   1.405   .     A
C1163  C1172   1.440   .     S
C1163  C1182   1.405   .     A
C1164  C1180   1.405   .     A
C1165  O1218   1.399   .     S
C1165  N1208   1.375   .     A
C1166  O1210   1.388   .     S
C1166  N1207   1.372   .     A
C1166  C124    1.426   1_556 S
C1167  H1200   1.078   .     S
C1167  N1207   1.364   .     A
C1167  C121    1.440   1_556 S
C1168  H1201   1.081   .     S
C1168  N1208   1.362   .     A
C1169  H1202   1.111   .     S
C1169  O1218   1.414   .     S
C1170  H1205   1.109   .     S
C1170  C125    1.534   1_556 S
C1170  H102    1.111   1_556 S
C1171  H1191   1.111   .     S
C1171  H1206   1.110   .     S
C1171  H1190   1.111   .     S
C1171  C1054   1.525   1_655 S
C1172  O1213   1.288   .     A
C1172  O1211   1.288   .     A
C1173  H1192   1.110   .     S
C1173  O1210   1.419   .     S
C1173  C130    1.530   1_556 S
C1173  H149    1.115   1_556 S
C1174  H1195   1.110   .     S
C1174  C1059   1.527   1_655 S
C1175  H1198   1.111   .     S
C1175  H1196   1.111   .     S
C1175  H1197   1.111   .     S
C1176  O1216   1.290   .     A
C1176  O1214   1.285   .     A
C1176  C1178   1.432   .     S
C1177  O1215   1.285   .     A
C1177  C1179   1.432   .     S
C1177  O1217   1.290   .     A
C1179  C1062   1.337   1_655 S
C1179  H1083   1.087   1_655 S
C1180  Cl1183  1.771   .     S
C1180  C1530   1.393   1_545 S
C1181  Cl1184  1.772   .     S
C1181  C1336   1.393   .     S
C1182  Cl1185  1.772   .     S
C1182  C1354   1.393   .     S
Cu1187 O1213   1.953   .     S
Cu1187 O1214   1.950   .     S
Cu1187 O1217   1.955   .     S
Cu1187 N1207   2.014   .     S
Cu1187 Cu1188  2.680   .     S
Cu1187 O1209   1.951   .     S
Cu1188 O1216   1.955   .     S
Cu1188 O1212   1.953   .     S
Cu1188 O1215   1.950   .     S
Cu1188 N1208   2.014   .     S
Cu1188 O1211   1.951   .     S
H1189  C1062   1.088   1_655 S
H1194  C130    1.112   1_556 S
H1203  C125    1.111   1_556 S
H1204  C532    1.111   1_655 S
C1219  C1222   1.440   .     S
C1219  O1270   1.288   .     A
C1219  O1267   1.288   .     A
C1220  C1222   1.405   .     A
C1220  Cl1244  1.771   .     S
C1221  C1239   1.405   .     A
C1221  C1230   1.440   .     S
C1221  C1240   1.405   .     A
C1222  C1238   1.405   .     A
C1223  O1276   1.399   .     S
C1223  N1266   1.375   .     A
C1224  O1268   1.388   .     S
C1224  N1265   1.372   .     A
C1224  C182    1.426   1_556 S
C1225  H1258   1.078   .     S
C1225  N1265   1.364   .     A
C1225  C179    1.440   1_556 S
C1226  H1259   1.081   .     S
C1226  N1266   1.362   .     A
C1227  H1260   1.111   .     S
C1227  O1276   1.414   .     S
C1228  H1263   1.109   .     S
C1228  C183    1.534   1_556 S
C1228  C1345   1.525   1_455 S
C1228  H334    1.111   1_456 S
C1229  H1249   1.111   .     S
C1229  H1264   1.110   .     S
C1229  H1248   1.111   .     S
C1229  C1286   1.525   .     S
C1230  O1271   1.288   .     A
C1230  O1269   1.288   .     A
C1231  H1250   1.110   .     S
C1231  O1268   1.419   .     S
C1231  C188    1.530   1_556 S
C1231  H207    1.115   1_556 S
C1232  H1253   1.110   .     S
C1232  C1291   1.527   .     S
C1233  H1256   1.111   .     S
C1233  H1254   1.111   .     S
C1233  H1255   1.111   .     S
C1233  C1348   1.527   1_455 S
C1234  O1274   1.290   .     A
C1234  O1272   1.285   .     A
C1234  C1236   1.432   .     S
C1235  O1273   1.285   .     A
C1235  C1237   1.432   .     S
C1235  O1275   1.290   .     A
C1236  C1353   1.337   1_455 S
C1236  H1363   1.088   1_455 S
C1237  C1294   1.337   .     S
C1237  H1315   1.087   .     S
C1238  Cl1241  1.771   .     S
C1239  Cl1242  1.772   .     S
C1239  C1394   1.393   .     S
C1240  Cl1243  1.772   .     S
C1240  C1412   1.393   .     S
Cu1245 O1271   1.953   .     S
Cu1245 O1272   1.950   .     S
Cu1245 O1275   1.955   .     S
Cu1245 N1265   2.014   .     S
Cu1245 Cu1246  2.680   .     S
Cu1245 O1267   1.951   .     S
Cu1246 O1274   1.955   .     S
Cu1246 O1270   1.953   .     S
Cu1246 O1273   1.950   .     S
Cu1246 N1266   2.014   .     S
Cu1246 O1269   1.951   .     S
H1247  C1294   1.088   .     S
H1252  C188    1.112   1_556 S
H1257  C1353   1.087   1_455 S
H1261  C183    1.111   1_556 S
C1277  C1280   1.440   .     S
C1277  O1328   1.288   .     A
C1277  O1325   1.288   .     A
C1278  C1280   1.405   .     A
C1278  Cl1302  1.771   .     S
C1279  C1297   1.405   .     A
C1279  C1288   1.440   .     S
C1279  C1298   1.405   .     A
C1280  C1296   1.405   .     A
C1281  O1334   1.399   .     S
C1281  N1324   1.375   .     A
C1282  O1326   1.388   .     S
C1282  N1323   1.372   .     A
C1282  C240    1.426   1_556 S
C1283  H1316   1.078   .     S
C1283  N1323   1.364   .     A
C1283  C237    1.440   1_556 S
C1284  H1317   1.081   .     S
C1284  N1324   1.362   .     A
C1285  H1318   1.111   .     S
C1285  O1334   1.414   .     S
C1286  H1321   1.109   .     S
C1286  C241    1.534   1_556 S
C1286  H218    1.111   1_556 S
C1287  H1307   1.111   .     S
C1287  H1322   1.110   .     S
C1287  H1306   1.111   .     S
C1287  C1344   1.525   .     S
C1288  O1329   1.288   .     A
C1288  O1327   1.288   .     A
C1289  H1308   1.110   .     S
C1289  O1326   1.419   .     S
C1289  C246    1.530   1_556 S
C1289  H265    1.115   1_556 S
C1290  H1311   1.110   .     S
C1290  C1349   1.527   .     S
C1291  H1314   1.111   .     S
C1291  H1312   1.111   .     S
C1291  H1313   1.111   .     S
C1292  O1332   1.290   .     A
C1292  O1330   1.285   .     A
C1292  C1294   1.432   .     S
C1293  O1331   1.285   .     A
C1293  C1295   1.432   .     S
C1293  O1333   1.290   .     A
C1295  C1352   1.337   .     S
C1295  H1373   1.087   .     S
C1296  Cl1299  1.771   .     S
C1297  Cl1300  1.772   .     S
C1297  C1452   1.393   .     S
C1298  Cl1301  1.772   .     S
C1298  C1470   1.393   .     S
Cu1303 O1329   1.953   .     S
Cu1303 O1330   1.950   .     S
Cu1303 O1333   1.955   .     S
Cu1303 N1323   2.014   .     S
Cu1303 Cu1304  2.680   .     S
Cu1303 O1325   1.951   .     S
Cu1304 O1332   1.955   .     S
Cu1304 O1328   1.953   .     S
Cu1304 O1331   1.950   .     S
Cu1304 N1324   2.014   .     S
Cu1304 O1327   1.951   .     S
H1305  C1352   1.088   .     S
H1310  C246    1.112   1_556 S
H1319  C241    1.111   1_556 S
C1335  C1338   1.440   .     S
C1335  O1386   1.288   .     A
C1335  O1383   1.288   .     A
C1336  C1338   1.405   .     A
C1336  Cl1360  1.771   .     S
C1337  C1355   1.405   .     A
C1337  C1346   1.440   .     S
C1337  C1356   1.405   .     A
C1338  C1354   1.405   .     A
C1339  O1392   1.399   .     S
C1339  N1382   1.375   .     A
C1340  O1384   1.388   .     S
C1340  N1381   1.372   .     A
C1340  C298    1.426   1_556 S
C1341  H1374   1.078   .     S
C1341  N1381   1.364   .     A
C1341  C295    1.440   1_556 S
C1342  H1375   1.081   .     S
C1342  N1382   1.362   .     A
C1343  H1376   1.111   .     S
C1343  O1392   1.414   .     S
C1344  H1379   1.109   .     S
C1344  C299    1.534   1_556 S
C1344  H276    1.111   1_556 S
C1345  H1365   1.111   .     S
C1345  H1380   1.110   .     S
C1345  H1364   1.111   .     S
C1345  C1228   1.525   1_655 S
C1346  O1387   1.288   .     A
C1346  O1385   1.288   .     A
C1347  H1366   1.110   .     S
C1347  O1384   1.419   .     S
C1347  C304    1.530   1_556 S
C1347  H323    1.115   1_556 S
C1348  H1369   1.110   .     S
C1348  C1233   1.527   1_655 S
C1349  H1372   1.111   .     S
C1349  H1370   1.111   .     S
C1349  H1371   1.111   .     S
C1350  O1390   1.290   .     A
C1350  O1388   1.285   .     A
C1350  C1352   1.432   .     S
C1351  O1389   1.285   .     A
C1351  C1353   1.432   .     S
C1351  O1391   1.290   .     A
C1353  C1236   1.337   1_655 S
C1353  H1257   1.087   1_655 S
C1354  Cl1357  1.771   .     S
C1355  Cl1358  1.772   .     S
C1355  C1510   1.393   .     S
C1356  Cl1359  1.772   .     S
C1356  C1528   1.393   .     S
Cu1361 O1387   1.953   .     S
Cu1361 O1388   1.950   .     S
Cu1361 O1391   1.955   .     S
Cu1361 N1381   2.014   .     S
Cu1361 Cu1362  2.680   .     S
Cu1361 O1383   1.951   .     S
Cu1362 O1390   1.955   .     S
Cu1362 O1386   1.953   .     S
Cu1362 O1389   1.950   .     S
Cu1362 N1382   2.014   .     S
Cu1362 O1385   1.951   .     S
H1363  C1236   1.088   1_655 S
H1368  C304    1.112   1_556 S
H1377  C299    1.111   1_556 S
H1378  C706    1.111   1_655 S
C1393  C1396   1.440   .     S
C1393  O1444   1.288   .     A
C1393  O1441   1.288   .     A
C1394  C1396   1.405   .     A
C1394  Cl1418  1.771   .     S
C1395  C1413   1.405   .     A
C1395  C1404   1.440   .     S
C1395  C1414   1.405   .     A
C1396  C1412   1.405   .     A
C1397  O1450   1.399   .     S
C1397  N1440   1.375   .     A
C1398  O1442   1.388   .     S
C1398  N1439   1.372   .     A
C1398  C356    1.426   1_556 S
C1399  H1432   1.078   .     S
C1399  N1439   1.364   .     A
C1399  C353    1.440   1_556 S
C1400  H1433   1.081   .     S
C1400  N1440   1.362   .     A
C1401  H1434   1.111   .     S
C1401  O1450   1.414   .     S
C1402  H1437   1.109   .     S
C1402  C357    1.534   1_556 S
C1402  C1519   1.525   1_455 S
C1402  H508    1.111   1_456 S
C1403  H1423   1.111   .     S
C1403  H1438   1.110   .     S
C1403  H1422   1.111   .     S
C1403  C1460   1.525   .     S
C1404  O1445   1.288   .     A
C1404  O1443   1.288   .     A
C1405  H1424   1.110   .     S
C1405  O1442   1.419   .     S
C1405  C362    1.530   1_556 S
C1405  H381    1.115   1_556 S
C1406  H1427   1.110   .     S
C1406  C1465   1.527   .     S
C1407  H1430   1.111   .     S
C1407  H1428   1.111   .     S
C1407  H1429   1.111   .     S
C1407  C1522   1.527   1_455 S
C1408  O1448   1.290   .     A
C1408  O1446   1.285   .     A
C1408  C1410   1.432   .     S
C1409  O1447   1.285   .     A
C1409  C1411   1.432   .     S
C1409  O1449   1.290   .     A
C1410  C1527   1.337   1_455 S
C1410  H1537   1.088   1_455 S
C1411  C1468   1.337   .     S
C1411  H1489   1.087   .     S
C1412  Cl1415  1.771   .     S
C1413  Cl1416  1.772   .     S
C1413  C1046   1.393   1_565 S
C1414  Cl1417  1.772   .     S
C1414  C1064   1.393   1_565 S
Cu1419 O1445   1.953   .     S
Cu1419 O1446   1.950   .     S
Cu1419 O1449   1.955   .     S
Cu1419 N1439   2.014   .     S
Cu1419 Cu1420  2.680   .     S
Cu1419 O1441   1.951   .     S
Cu1420 O1448   1.955   .     S
Cu1420 O1444   1.953   .     S
Cu1420 O1447   1.950   .     S
Cu1420 N1440   2.014   .     S
Cu1420 O1443   1.951   .     S
H1421  C1468   1.088   .     S
H1426  C362    1.112   1_556 S
H1431  C1527   1.087   1_455 S
H1435  C357    1.111   1_556 S
C1451  C1454   1.440   .     S
C1451  O1502   1.288   .     A
C1451  O1499   1.288   .     A
C1452  C1454   1.405   .     A
C1452  Cl1476  1.771   .     S
C1453  C1471   1.405   .     A
C1453  C1462   1.440   .     S
C1453  C1472   1.405   .     A
C1454  C1470   1.405   .     A
C1455  O1508   1.399   .     S
C1455  N1498   1.375   .     A
C1456  O1500   1.388   .     S
C1456  N1497   1.372   .     A
C1456  C414    1.426   1_556 S
C1457  H1490   1.078   .     S
C1457  N1497   1.364   .     A
C1457  C411    1.440   1_556 S
C1458  H1491   1.081   .     S
C1458  N1498   1.362   .     A
C1459  H1492   1.111   .     S
C1459  O1508   1.414   .     S
C1460  H1495   1.109   .     S
C1460  C415    1.534   1_556 S
C1460  H392    1.111   1_556 S
C1461  H1481   1.111   .     S
C1461  H1496   1.110   .     S
C1461  H1480   1.111   .     S
C1461  C1518   1.525   .     S
C1462  O1503   1.288   .     A
C1462  O1501   1.288   .     A
C1463  H1482   1.110   .     S
C1463  O1500   1.419   .     S
C1463  C420    1.530   1_556 S
C1463  H439    1.115   1_556 S
C1464  H1485   1.110   .     S
C1464  C1523   1.527   .     S
C1465  H1488   1.111   .     S
C1465  H1486   1.111   .     S
C1465  H1487   1.111   .     S
C1466  O1506   1.290   .     A
C1466  O1504   1.285   .     A
C1466  C1468   1.432   .     S
C1467  O1505   1.285   .     A
C1467  C1469   1.432   .     S
C1467  O1507   1.290   .     A
C1469  C1526   1.337   .     S
C1469  H1547   1.087   .     S
C1470  Cl1473  1.771   .     S
C1471  Cl1474  1.772   .     S
C1471  C1104   1.393   1_565 S
C1472  Cl1475  1.772   .     S
C1472  C1122   1.393   1_565 S
Cu1477 O1503   1.953   .     S
Cu1477 O1504   1.950   .     S
Cu1477 O1507   1.955   .     S
Cu1477 N1497   2.014   .     S
Cu1477 Cu1478  2.680   .     S
Cu1477 O1499   1.951   .     S
Cu1478 O1506   1.955   .     S
Cu1478 O1502   1.953   .     S
Cu1478 O1505   1.950   .     S
Cu1478 N1498   2.014   .     S
Cu1478 O1501   1.951   .     S
H1479  C1526   1.088   .     S
H1484  C420    1.112   1_556 S
H1493  C415    1.111   1_556 S
C1509  C1512   1.440   .     S
C1509  O1560   1.288   .     A
C1509  O1557   1.288   .     A
C1510  C1512   1.405   .     A
C1510  Cl1534  1.771   .     S
C1511  C1529   1.405   .     A
C1511  C1520   1.440   .     S
C1511  C1530   1.405   .     A
C1512  C1528   1.405   .     A
C1513  O1566   1.399   .     S
C1513  N1556   1.375   .     A
C1514  O1558   1.388   .     S
C1514  N1555   1.372   .     A
C1514  C472    1.426   1_556 S
C1515  H1548   1.078   .     S
C1515  N1555   1.364   .     A
C1515  C469    1.440   1_556 S
C1516  H1549   1.081   .     S
C1516  N1556   1.362   .     A
C1517  H1550   1.111   .     S
C1517  O1566   1.414   .     S
C1518  H1553   1.109   .     S
C1518  C473    1.534   1_556 S
C1518  H450    1.111   1_556 S
C1519  H1539   1.111   .     S
C1519  H1554   1.110   .     S
C1519  H1538   1.111   .     S
C1519  C1402   1.525   1_655 S
C1520  O1561   1.288   .     A
C1520  O1559   1.288   .     A
C1521  H1540   1.110   .     S
C1521  O1558   1.419   .     S
C1521  C478    1.530   1_556 S
C1521  H497    1.115   1_556 S
C1522  H1543   1.110   .     S
C1522  C1407   1.527   1_655 S
C1523  H1546   1.111   .     S
C1523  H1544   1.111   .     S
C1523  H1545   1.111   .     S
C1524  O1564   1.290   .     A
C1524  O1562   1.285   .     A
C1524  C1526   1.432   .     S
C1525  O1563   1.285   .     A
C1525  C1527   1.432   .     S
C1525  O1565   1.290   .     A
C1527  C1410   1.337   1_655 S
C1527  H1431   1.087   1_655 S
C1528  Cl1531  1.771   .     S
C1529  Cl1532  1.772   .     S
C1529  C1162   1.393   1_565 S
C1530  Cl1533  1.772   .     S
C1530  C1180   1.393   1_565 S
Cu1535 O1561   1.953   .     S
Cu1535 O1562   1.950   .     S
Cu1535 O1565   1.955   .     S
Cu1535 N1555   2.014   .     S
Cu1535 Cu1536  2.680   .     S
Cu1535 O1557   1.951   .     S
Cu1536 O1564   1.955   .     S
Cu1536 O1560   1.953   .     S
Cu1536 O1563   1.950   .     S
Cu1536 N1556   2.014   .     S
Cu1536 O1559   1.951   .     S
H1537  C1410   1.088   1_655 S
H1542  C478    1.112   1_556 S
H1551  C473    1.111   1_556 S
H1552  C880    1.111   1_655 S
