data_str_m2_o1_o10_pcu_sym.48
_audit_creation_date              2020-01-03
_audit_creation_method            'Materials Studio'
_symmetry_space_group_name_H-M    'P1'
_symmetry_Int_Tables_number       1
_symmetry_cell_setting            triclinic
loop_
_symmetry_equiv_pos_as_xyz
  x,y,z
_cell_length_a                    26.1137
_cell_length_b                    32.6001
_cell_length_c                    28.7465
_cell_angle_alpha                 90.5141
_cell_angle_beta                  97.8605
_cell_angle_gamma                 92.6661
loop_
_atom_site_label
_atom_site_type_symbol
_atom_site_fract_x
_atom_site_fract_y
_atom_site_fract_z
_atom_site_U_iso_or_equiv
_atom_site_adp_type
_atom_site_occupancy
C1     C     0.16724   0.08746   0.16640   0.00000  Uiso   1.00
C2     C     0.15459   0.02210   0.20564   0.00000  Uiso   1.00
C3     C     0.16223   0.29043   0.16702   0.00000  Uiso   1.00
C4     C     0.16643   0.04280   0.16566   0.00000  Uiso   1.00
C5     C     0.13274   0.14118   0.02024   0.00000  Uiso   1.00
C6     C     0.20099   0.19171   0.31320   0.00000  Uiso   1.00
C7     C     0.13367   0.14008   0.30386   0.00000  Uiso   1.00
C8     C     0.20285   0.19034   0.02972   0.00000  Uiso   1.00
C9     C     0.05586   0.10679   0.27061   0.00000  Uiso   1.00
C10    C     0.03313   0.06308   0.27546   0.00000  Uiso   1.00
C11    C     0.30734   0.06190   0.26841   0.00000  Uiso   1.00
C12    C     0.16460   0.24582   0.16677   0.00000  Uiso   1.00
C13    C     0.25226   0.24716   0.06326   0.00000  Uiso   1.00
C14    C     0.30846   0.26219   0.06176   0.00000  Uiso   1.00
C15    C     0.31491   0.30889   0.06663   0.00000  Uiso   1.00
C16    C     0.06799   0.16705   0.15462   0.00000  Uiso   1.00
C17    C     0.26535   0.16808   0.17865   0.00000  Uiso   1.00
C18    C     0.01260   0.16678   0.14798   0.00000  Uiso   1.00
C19    C     0.32070   0.17141   0.18491   0.00000  Uiso   1.00
C20    C     0.17544   0.02023   0.12570   0.00000  Uiso   1.00
C21    C     0.15247   0.31295   0.20684   0.00000  Uiso   1.00
C22    C     0.17124   0.31123   0.12632   0.00000  Uiso   1.00
Cl23   Cl    0.19495   0.04213   0.07454   0.00000  Uiso   1.00
Cl24   Cl    0.13495   0.29051   0.25845   0.00000  Uiso   1.00
Cl25   Cl    0.09148   0.10607   0.04518   0.00000  Uiso   1.00
Cl26   Cl    0.24642   0.22377   0.28924   0.00000  Uiso   1.00
Cu27   Cu    0.16667   0.16667   0.21355   0.00000  Uiso   1.00
Cu28   Cu    0.16667   0.16666   0.11978   0.00000  Uiso   1.00
H29    H     0.32582   0.16160   0.11259   0.00000  Uiso   1.00
H30    H     0.29203   0.02985   0.27173   0.00000  Uiso   1.00
H31    H     0.29245   0.07303   0.23291   0.00000  Uiso   1.00
H32    H     0.24381   0.25499   0.09880   0.00000  Uiso   1.00
H33    H     0.22574   0.26375   0.03688   0.00000  Uiso   1.00
H34    H     0.00058   0.24819   0.09095   0.00000  Uiso   1.00
H35    H     0.32129   0.25252   0.02828   0.00000  Uiso   1.00
H36    H     0.29110   0.32358   0.03694   0.00000  Uiso   1.00
H37    H     0.02281   0.31873   0.06626   0.00000  Uiso   1.00
H38    H     0.30297   0.31932   0.10027   0.00000  Uiso   1.00
H39    H     0.00741   0.17760   0.22011   0.00000  Uiso   1.00
H40    H     0.17600   0.29470   0.09462   0.00000  Uiso   1.00
H41    H     0.14660   0.03891   0.23630   0.00000  Uiso   1.00
H42    H     0.04302   0.11535   0.23407   0.00000  Uiso   1.00
H43    H     0.03949   0.12858   0.29415   0.00000  Uiso   1.00
H44    H     0.04630   0.04270   0.24869   0.00000  Uiso   1.00
H45    H     0.04698   0.05079   0.31056   0.00000  Uiso   1.00
H46    H     0.29316   0.08139   0.29540   0.00000  Uiso   1.00
N47    N     0.16668   0.16668   0.28403   0.00000  Uiso   1.00
N48    N     0.16665   0.16666   0.04931   0.00000  Uiso   1.00
O49    O     0.16666   0.10655   0.20625   0.00000  Uiso   1.00
O50    O     0.24795   0.20395   0.05794   0.00000  Uiso   1.00
O51    O     0.16667   0.22678   0.12709   0.00000  Uiso   1.00
O52    O     0.16666   0.10654   0.12706   0.00000  Uiso   1.00
O53    O     0.16667   0.22679   0.20628   0.00000  Uiso   1.00
O54    O     0.09161   0.16667   0.19712   0.00000  Uiso   1.00
O55    O     0.24172   0.16666   0.13621   0.00000  Uiso   1.00
O56    O     0.09161   0.16666   0.11793   0.00000  Uiso   1.00
O57    O     0.24172   0.16667   0.21540   0.00000  Uiso   1.00
O58    O     0.11060   0.10672   0.27715   0.00000  Uiso   1.00
C59    C     0.50057   0.08746   0.16640   0.00000  Uiso   1.00
C60    C     0.48792   0.02210   0.20564   0.00000  Uiso   1.00
C61    C     0.49556   0.29043   0.16702   0.00000  Uiso   1.00
C62    C     0.49977   0.04280   0.16566   0.00000  Uiso   1.00
C63    C     0.46608   0.14118   0.02024   0.00000  Uiso   1.00
C64    C     0.53433   0.19171   0.31320   0.00000  Uiso   1.00
C65    C     0.46700   0.14008   0.30386   0.00000  Uiso   1.00
C66    C     0.53619   0.19034   0.02972   0.00000  Uiso   1.00
C67    C     0.38919   0.10679   0.27061   0.00000  Uiso   1.00
C68    C     0.36646   0.06308   0.27546   0.00000  Uiso   1.00
C69    C     0.64068   0.06190   0.26841   0.00000  Uiso   1.00
C70    C     0.49793   0.24582   0.16677   0.00000  Uiso   1.00
C71    C     0.58559   0.24716   0.06326   0.00000  Uiso   1.00
C72    C     0.64180   0.26219   0.06176   0.00000  Uiso   1.00
C73    C     0.64824   0.30889   0.06663   0.00000  Uiso   1.00
C74    C     0.40133   0.16705   0.15462   0.00000  Uiso   1.00
C75    C     0.59868   0.16808   0.17865   0.00000  Uiso   1.00
C76    C     0.34593   0.16678   0.14798   0.00000  Uiso   1.00
C77    C     0.65403   0.17141   0.18491   0.00000  Uiso   1.00
C78    C     0.50877   0.02023   0.12570   0.00000  Uiso   1.00
C79    C     0.48580   0.31295   0.20684   0.00000  Uiso   1.00
C80    C     0.50457   0.31123   0.12632   0.00000  Uiso   1.00
Cl81   Cl    0.52829   0.04213   0.07454   0.00000  Uiso   1.00
Cl82   Cl    0.46828   0.29051   0.25845   0.00000  Uiso   1.00
Cl83   Cl    0.42481   0.10607   0.04518   0.00000  Uiso   1.00
Cl84   Cl    0.57975   0.22377   0.28924   0.00000  Uiso   1.00
Cu85   Cu    0.50000   0.16667   0.21355   0.00000  Uiso   1.00
Cu86   Cu    0.50000   0.16666   0.11978   0.00000  Uiso   1.00
H87    H     0.65915   0.16160   0.11259   0.00000  Uiso   1.00
H88    H     0.62537   0.02985   0.27173   0.00000  Uiso   1.00
H89    H     0.62578   0.07303   0.23291   0.00000  Uiso   1.00
H90    H     0.57714   0.25499   0.09880   0.00000  Uiso   1.00
H91    H     0.55908   0.26375   0.03688   0.00000  Uiso   1.00
H92    H     0.33391   0.24819   0.09095   0.00000  Uiso   1.00
H93    H     0.65462   0.25252   0.02828   0.00000  Uiso   1.00
H94    H     0.62444   0.32358   0.03694   0.00000  Uiso   1.00
H95    H     0.35614   0.31873   0.06626   0.00000  Uiso   1.00
H96    H     0.63630   0.31932   0.10027   0.00000  Uiso   1.00
H97    H     0.34074   0.17760   0.22011   0.00000  Uiso   1.00
H98    H     0.50933   0.29470   0.09462   0.00000  Uiso   1.00
H99    H     0.47993   0.03891   0.23630   0.00000  Uiso   1.00
H100   H     0.37635   0.11535   0.23407   0.00000  Uiso   1.00
H101   H     0.37283   0.12858   0.29415   0.00000  Uiso   1.00
H102   H     0.37963   0.04270   0.24869   0.00000  Uiso   1.00
H103   H     0.38031   0.05079   0.31056   0.00000  Uiso   1.00
H104   H     0.62649   0.08139   0.29540   0.00000  Uiso   1.00
N105   N     0.50001   0.16668   0.28403   0.00000  Uiso   1.00
N106   N     0.49999   0.16666   0.04931   0.00000  Uiso   1.00
O107   O     0.50000   0.10655   0.20625   0.00000  Uiso   1.00
O108   O     0.58128   0.20395   0.05794   0.00000  Uiso   1.00
O109   O     0.50000   0.22678   0.12709   0.00000  Uiso   1.00
O110   O     0.50000   0.10654   0.12706   0.00000  Uiso   1.00
O111   O     0.50000   0.22679   0.20628   0.00000  Uiso   1.00
O112   O     0.42495   0.16667   0.19712   0.00000  Uiso   1.00
O113   O     0.57505   0.16666   0.13621   0.00000  Uiso   1.00
O114   O     0.42494   0.16666   0.11793   0.00000  Uiso   1.00
O115   O     0.57506   0.16667   0.21540   0.00000  Uiso   1.00
O116   O     0.44394   0.10672   0.27715   0.00000  Uiso   1.00
C117   C     0.83390   0.08746   0.16640   0.00000  Uiso   1.00
C118   C     0.82126   0.02210   0.20564   0.00000  Uiso   1.00
C119   C     0.82890   0.29043   0.16702   0.00000  Uiso   1.00
C120   C     0.83310   0.04280   0.16566   0.00000  Uiso   1.00
C121   C     0.79941   0.14118   0.02024   0.00000  Uiso   1.00
C122   C     0.86766   0.19171   0.31320   0.00000  Uiso   1.00
C123   C     0.80034   0.14008   0.30386   0.00000  Uiso   1.00
C124   C     0.86952   0.19034   0.02972   0.00000  Uiso   1.00
C125   C     0.72253   0.10679   0.27061   0.00000  Uiso   1.00
C126   C     0.69980   0.06308   0.27546   0.00000  Uiso   1.00
C127   C     0.97401   0.06190   0.26841   0.00000  Uiso   1.00
C128   C     0.83127   0.24582   0.16677   0.00000  Uiso   1.00
C129   C     0.91893   0.24716   0.06326   0.00000  Uiso   1.00
C130   C     0.97513   0.26219   0.06176   0.00000  Uiso   1.00
C131   C     0.98157   0.30889   0.06663   0.00000  Uiso   1.00
C132   C     0.73466   0.16705   0.15462   0.00000  Uiso   1.00
C133   C     0.93202   0.16808   0.17865   0.00000  Uiso   1.00
C134   C     0.67927   0.16678   0.14798   0.00000  Uiso   1.00
C135   C     0.98737   0.17141   0.18491   0.00000  Uiso   1.00
C136   C     0.84211   0.02023   0.12570   0.00000  Uiso   1.00
C137   C     0.81914   0.31295   0.20684   0.00000  Uiso   1.00
C138   C     0.83790   0.31123   0.12632   0.00000  Uiso   1.00
Cl139  Cl    0.86162   0.04213   0.07454   0.00000  Uiso   1.00
Cl140  Cl    0.80162   0.29051   0.25845   0.00000  Uiso   1.00
Cl141  Cl    0.75814   0.10607   0.04518   0.00000  Uiso   1.00
Cl142  Cl    0.91309   0.22377   0.28924   0.00000  Uiso   1.00
Cu143  Cu    0.83333   0.16667   0.21355   0.00000  Uiso   1.00
Cu144  Cu    0.83333   0.16666   0.11978   0.00000  Uiso   1.00
H145   H     0.99249   0.16160   0.11259   0.00000  Uiso   1.00
H146   H     0.95870   0.02985   0.27173   0.00000  Uiso   1.00
H147   H     0.95912   0.07303   0.23291   0.00000  Uiso   1.00
H148   H     0.91048   0.25499   0.09880   0.00000  Uiso   1.00
H149   H     0.89241   0.26375   0.03688   0.00000  Uiso   1.00
H150   H     0.66724   0.24819   0.09095   0.00000  Uiso   1.00
H151   H     0.98796   0.25252   0.02828   0.00000  Uiso   1.00
H152   H     0.95777   0.32358   0.03694   0.00000  Uiso   1.00
H153   H     0.68947   0.31873   0.06626   0.00000  Uiso   1.00
H154   H     0.96963   0.31932   0.10027   0.00000  Uiso   1.00
H155   H     0.67407   0.17760   0.22011   0.00000  Uiso   1.00
H156   H     0.84266   0.29470   0.09462   0.00000  Uiso   1.00
H157   H     0.81326   0.03891   0.23630   0.00000  Uiso   1.00
H158   H     0.70969   0.11535   0.23407   0.00000  Uiso   1.00
H159   H     0.70616   0.12858   0.29415   0.00000  Uiso   1.00
H160   H     0.71297   0.04270   0.24869   0.00000  Uiso   1.00
H161   H     0.71364   0.05079   0.31056   0.00000  Uiso   1.00
H162   H     0.95983   0.08139   0.29540   0.00000  Uiso   1.00
N163   N     0.83335   0.16668   0.28403   0.00000  Uiso   1.00
N164   N     0.83332   0.16666   0.04931   0.00000  Uiso   1.00
O165   O     0.83333   0.10655   0.20625   0.00000  Uiso   1.00
O166   O     0.91461   0.20395   0.05794   0.00000  Uiso   1.00
O167   O     0.83334   0.22678   0.12709   0.00000  Uiso   1.00
O168   O     0.83333   0.10654   0.12706   0.00000  Uiso   1.00
O169   O     0.83334   0.22679   0.20628   0.00000  Uiso   1.00
O170   O     0.75828   0.16667   0.19712   0.00000  Uiso   1.00
O171   O     0.90839   0.16666   0.13621   0.00000  Uiso   1.00
O172   O     0.75828   0.16666   0.11793   0.00000  Uiso   1.00
O173   O     0.90839   0.16667   0.21540   0.00000  Uiso   1.00
O174   O     0.77727   0.10672   0.27715   0.00000  Uiso   1.00
C175   C     0.16724   0.42079   0.16640   0.00000  Uiso   1.00
C176   C     0.15459   0.35543   0.20564   0.00000  Uiso   1.00
C177   C     0.16223   0.62377   0.16702   0.00000  Uiso   1.00
C178   C     0.16643   0.37613   0.16566   0.00000  Uiso   1.00
C179   C     0.13274   0.47452   0.02024   0.00000  Uiso   1.00
C180   C     0.20099   0.52504   0.31320   0.00000  Uiso   1.00
C181   C     0.13367   0.47342   0.30386   0.00000  Uiso   1.00
C182   C     0.20285   0.52367   0.02972   0.00000  Uiso   1.00
C183   C     0.05586   0.44012   0.27061   0.00000  Uiso   1.00
C184   C     0.03313   0.39641   0.27546   0.00000  Uiso   1.00
C185   C     0.30734   0.39523   0.26841   0.00000  Uiso   1.00
C186   C     0.16460   0.57915   0.16677   0.00000  Uiso   1.00
C187   C     0.25226   0.58049   0.06326   0.00000  Uiso   1.00
C188   C     0.30846   0.59552   0.06176   0.00000  Uiso   1.00
C189   C     0.31491   0.64222   0.06663   0.00000  Uiso   1.00
C190   C     0.06799   0.50038   0.15462   0.00000  Uiso   1.00
C191   C     0.26535   0.50141   0.17865   0.00000  Uiso   1.00
C192   C     0.01260   0.50011   0.14798   0.00000  Uiso   1.00
C193   C     0.32070   0.50475   0.18491   0.00000  Uiso   1.00
C194   C     0.17544   0.35356   0.12570   0.00000  Uiso   1.00
C195   C     0.15247   0.64628   0.20684   0.00000  Uiso   1.00
C196   C     0.17124   0.64456   0.12632   0.00000  Uiso   1.00
Cl197  Cl    0.19495   0.37547   0.07454   0.00000  Uiso   1.00
Cl198  Cl    0.13495   0.62384   0.25845   0.00000  Uiso   1.00
Cl199  Cl    0.09148   0.43941   0.04518   0.00000  Uiso   1.00
Cl200  Cl    0.24642   0.55710   0.28924   0.00000  Uiso   1.00
Cu201  Cu    0.16667   0.50001   0.21355   0.00000  Uiso   1.00
Cu202  Cu    0.16667   0.49999   0.11978   0.00000  Uiso   1.00
H203   H     0.32582   0.49494   0.11259   0.00000  Uiso   1.00
H204   H     0.29203   0.36319   0.27173   0.00000  Uiso   1.00
H205   H     0.29245   0.40636   0.23291   0.00000  Uiso   1.00
H206   H     0.24381   0.58832   0.09880   0.00000  Uiso   1.00
H207   H     0.22574   0.59708   0.03688   0.00000  Uiso   1.00
H208   H     0.00058   0.58152   0.09095   0.00000  Uiso   1.00
H209   H     0.32129   0.58585   0.02828   0.00000  Uiso   1.00
H210   H     0.29110   0.65692   0.03694   0.00000  Uiso   1.00
H211   H     0.02281   0.65206   0.06626   0.00000  Uiso   1.00
H212   H     0.30297   0.65265   0.10027   0.00000  Uiso   1.00
H213   H     0.00741   0.51093   0.22011   0.00000  Uiso   1.00
H214   H     0.17600   0.62804   0.09462   0.00000  Uiso   1.00
H215   H     0.14660   0.37225   0.23630   0.00000  Uiso   1.00
H216   H     0.04302   0.44868   0.23407   0.00000  Uiso   1.00
H217   H     0.03949   0.46192   0.29415   0.00000  Uiso   1.00
H218   H     0.04630   0.37603   0.24869   0.00000  Uiso   1.00
H219   H     0.04698   0.38413   0.31056   0.00000  Uiso   1.00
H220   H     0.29316   0.41473   0.29540   0.00000  Uiso   1.00
N221   N     0.16668   0.50001   0.28403   0.00000  Uiso   1.00
N222   N     0.16665   0.49999   0.04931   0.00000  Uiso   1.00
O223   O     0.16666   0.43989   0.20625   0.00000  Uiso   1.00
O224   O     0.24795   0.53728   0.05794   0.00000  Uiso   1.00
O225   O     0.16667   0.56011   0.12709   0.00000  Uiso   1.00
O226   O     0.16666   0.43988   0.12706   0.00000  Uiso   1.00
O227   O     0.16667   0.56012   0.20628   0.00000  Uiso   1.00
O228   O     0.09161   0.50000   0.19712   0.00000  Uiso   1.00
O229   O     0.24172   0.50000   0.13621   0.00000  Uiso   1.00
O230   O     0.09161   0.49999   0.11793   0.00000  Uiso   1.00
O231   O     0.24172   0.50001   0.21540   0.00000  Uiso   1.00
O232   O     0.11060   0.44006   0.27715   0.00000  Uiso   1.00
C233   C     0.50057   0.42079   0.16640   0.00000  Uiso   1.00
C234   C     0.48792   0.35543   0.20564   0.00000  Uiso   1.00
C235   C     0.49556   0.62377   0.16702   0.00000  Uiso   1.00
C236   C     0.49977   0.37613   0.16566   0.00000  Uiso   1.00
C237   C     0.46608   0.47452   0.02024   0.00000  Uiso   1.00
C238   C     0.53433   0.52504   0.31320   0.00000  Uiso   1.00
C239   C     0.46700   0.47342   0.30386   0.00000  Uiso   1.00
C240   C     0.53619   0.52367   0.02972   0.00000  Uiso   1.00
C241   C     0.38919   0.44012   0.27061   0.00000  Uiso   1.00
C242   C     0.36646   0.39641   0.27546   0.00000  Uiso   1.00
C243   C     0.64068   0.39523   0.26841   0.00000  Uiso   1.00
C244   C     0.49793   0.57915   0.16677   0.00000  Uiso   1.00
C245   C     0.58559   0.58049   0.06326   0.00000  Uiso   1.00
C246   C     0.64180   0.59552   0.06176   0.00000  Uiso   1.00
C247   C     0.64824   0.64222   0.06663   0.00000  Uiso   1.00
C248   C     0.40133   0.50038   0.15462   0.00000  Uiso   1.00
C249   C     0.59868   0.50141   0.17865   0.00000  Uiso   1.00
C250   C     0.34593   0.50011   0.14798   0.00000  Uiso   1.00
C251   C     0.65403   0.50475   0.18491   0.00000  Uiso   1.00
C252   C     0.50877   0.35356   0.12570   0.00000  Uiso   1.00
C253   C     0.48580   0.64628   0.20684   0.00000  Uiso   1.00
C254   C     0.50457   0.64456   0.12632   0.00000  Uiso   1.00
Cl255  Cl    0.52829   0.37547   0.07454   0.00000  Uiso   1.00
Cl256  Cl    0.46828   0.62384   0.25845   0.00000  Uiso   1.00
Cl257  Cl    0.42481   0.43941   0.04518   0.00000  Uiso   1.00
Cl258  Cl    0.57975   0.55710   0.28924   0.00000  Uiso   1.00
Cu259  Cu    0.50000   0.50001   0.21355   0.00000  Uiso   1.00
Cu260  Cu    0.50000   0.49999   0.11978   0.00000  Uiso   1.00
H261   H     0.65915   0.49494   0.11259   0.00000  Uiso   1.00
H262   H     0.62537   0.36319   0.27173   0.00000  Uiso   1.00
H263   H     0.62578   0.40636   0.23291   0.00000  Uiso   1.00
H264   H     0.57714   0.58832   0.09880   0.00000  Uiso   1.00
H265   H     0.55908   0.59708   0.03688   0.00000  Uiso   1.00
H266   H     0.33391   0.58152   0.09095   0.00000  Uiso   1.00
H267   H     0.65462   0.58585   0.02828   0.00000  Uiso   1.00
H268   H     0.62444   0.65692   0.03694   0.00000  Uiso   1.00
H269   H     0.35614   0.65206   0.06626   0.00000  Uiso   1.00
H270   H     0.63630   0.65265   0.10027   0.00000  Uiso   1.00
H271   H     0.34074   0.51093   0.22011   0.00000  Uiso   1.00
H272   H     0.50933   0.62804   0.09462   0.00000  Uiso   1.00
H273   H     0.47993   0.37225   0.23630   0.00000  Uiso   1.00
H274   H     0.37635   0.44868   0.23407   0.00000  Uiso   1.00
H275   H     0.37283   0.46192   0.29415   0.00000  Uiso   1.00
H276   H     0.37963   0.37603   0.24869   0.00000  Uiso   1.00
H277   H     0.38031   0.38413   0.31056   0.00000  Uiso   1.00
H278   H     0.62649   0.41473   0.29540   0.00000  Uiso   1.00
N279   N     0.50001   0.50001   0.28403   0.00000  Uiso   1.00
N280   N     0.49999   0.49999   0.04931   0.00000  Uiso   1.00
O281   O     0.50000   0.43989   0.20625   0.00000  Uiso   1.00
O282   O     0.58128   0.53728   0.05794   0.00000  Uiso   1.00
O283   O     0.50000   0.56011   0.12709   0.00000  Uiso   1.00
O284   O     0.50000   0.43988   0.12706   0.00000  Uiso   1.00
O285   O     0.50000   0.56012   0.20628   0.00000  Uiso   1.00
O286   O     0.42495   0.50000   0.19712   0.00000  Uiso   1.00
O287   O     0.57505   0.50000   0.13621   0.00000  Uiso   1.00
O288   O     0.42494   0.49999   0.11793   0.00000  Uiso   1.00
O289   O     0.57506   0.50001   0.21540   0.00000  Uiso   1.00
O290   O     0.44394   0.44006   0.27715   0.00000  Uiso   1.00
C291   C     0.83390   0.42079   0.16640   0.00000  Uiso   1.00
C292   C     0.82126   0.35543   0.20564   0.00000  Uiso   1.00
C293   C     0.82890   0.62377   0.16702   0.00000  Uiso   1.00
C294   C     0.83310   0.37613   0.16566   0.00000  Uiso   1.00
C295   C     0.79941   0.47452   0.02024   0.00000  Uiso   1.00
C296   C     0.86766   0.52504   0.31320   0.00000  Uiso   1.00
C297   C     0.80034   0.47342   0.30386   0.00000  Uiso   1.00
C298   C     0.86952   0.52367   0.02972   0.00000  Uiso   1.00
C299   C     0.72253   0.44012   0.27061   0.00000  Uiso   1.00
C300   C     0.69980   0.39641   0.27546   0.00000  Uiso   1.00
C301   C     0.97401   0.39523   0.26841   0.00000  Uiso   1.00
C302   C     0.83127   0.57915   0.16677   0.00000  Uiso   1.00
C303   C     0.91893   0.58049   0.06326   0.00000  Uiso   1.00
C304   C     0.97513   0.59552   0.06176   0.00000  Uiso   1.00
C305   C     0.98157   0.64222   0.06663   0.00000  Uiso   1.00
C306   C     0.73466   0.50038   0.15462   0.00000  Uiso   1.00
C307   C     0.93202   0.50141   0.17865   0.00000  Uiso   1.00
C308   C     0.67927   0.50011   0.14798   0.00000  Uiso   1.00
C309   C     0.98737   0.50475   0.18491   0.00000  Uiso   1.00
C310   C     0.84211   0.35356   0.12570   0.00000  Uiso   1.00
C311   C     0.81914   0.64628   0.20684   0.00000  Uiso   1.00
C312   C     0.83790   0.64456   0.12632   0.00000  Uiso   1.00
Cl313  Cl    0.86162   0.37547   0.07454   0.00000  Uiso   1.00
Cl314  Cl    0.80162   0.62384   0.25845   0.00000  Uiso   1.00
Cl315  Cl    0.75814   0.43941   0.04518   0.00000  Uiso   1.00
Cl316  Cl    0.91309   0.55710   0.28924   0.00000  Uiso   1.00
Cu317  Cu    0.83333   0.50001   0.21355   0.00000  Uiso   1.00
Cu318  Cu    0.83333   0.49999   0.11978   0.00000  Uiso   1.00
H319   H     0.99249   0.49494   0.11259   0.00000  Uiso   1.00
H320   H     0.95870   0.36319   0.27173   0.00000  Uiso   1.00
H321   H     0.95912   0.40636   0.23291   0.00000  Uiso   1.00
H322   H     0.91048   0.58832   0.09880   0.00000  Uiso   1.00
H323   H     0.89241   0.59708   0.03688   0.00000  Uiso   1.00
H324   H     0.66724   0.58152   0.09095   0.00000  Uiso   1.00
H325   H     0.98796   0.58585   0.02828   0.00000  Uiso   1.00
H326   H     0.95777   0.65692   0.03694   0.00000  Uiso   1.00
H327   H     0.68947   0.65206   0.06626   0.00000  Uiso   1.00
H328   H     0.96963   0.65265   0.10027   0.00000  Uiso   1.00
H329   H     0.67407   0.51093   0.22011   0.00000  Uiso   1.00
H330   H     0.84266   0.62804   0.09462   0.00000  Uiso   1.00
H331   H     0.81326   0.37225   0.23630   0.00000  Uiso   1.00
H332   H     0.70969   0.44868   0.23407   0.00000  Uiso   1.00
H333   H     0.70616   0.46192   0.29415   0.00000  Uiso   1.00
H334   H     0.71297   0.37603   0.24869   0.00000  Uiso   1.00
H335   H     0.71364   0.38413   0.31056   0.00000  Uiso   1.00
H336   H     0.95983   0.41473   0.29540   0.00000  Uiso   1.00
N337   N     0.83335   0.50001   0.28403   0.00000  Uiso   1.00
N338   N     0.83332   0.49999   0.04931   0.00000  Uiso   1.00
O339   O     0.83333   0.43989   0.20625   0.00000  Uiso   1.00
O340   O     0.91461   0.53728   0.05794   0.00000  Uiso   1.00
O341   O     0.83334   0.56011   0.12709   0.00000  Uiso   1.00
O342   O     0.83333   0.43988   0.12706   0.00000  Uiso   1.00
O343   O     0.83334   0.56012   0.20628   0.00000  Uiso   1.00
O344   O     0.75828   0.50000   0.19712   0.00000  Uiso   1.00
O345   O     0.90839   0.50000   0.13621   0.00000  Uiso   1.00
O346   O     0.75828   0.49999   0.11793   0.00000  Uiso   1.00
O347   O     0.90839   0.50001   0.21540   0.00000  Uiso   1.00
O348   O     0.77727   0.44006   0.27715   0.00000  Uiso   1.00
C349   C     0.16724   0.75412   0.16640   0.00000  Uiso   1.00
C350   C     0.15459   0.68877   0.20564   0.00000  Uiso   1.00
C351   C     0.16223   0.95710   0.16702   0.00000  Uiso   1.00
C352   C     0.16643   0.70947   0.16566   0.00000  Uiso   1.00
C353   C     0.13274   0.80785   0.02024   0.00000  Uiso   1.00
C354   C     0.20099   0.85837   0.31320   0.00000  Uiso   1.00
C355   C     0.13367   0.80675   0.30386   0.00000  Uiso   1.00
C356   C     0.20285   0.85700   0.02972   0.00000  Uiso   1.00
C357   C     0.05586   0.77345   0.27061   0.00000  Uiso   1.00
C358   C     0.03313   0.72975   0.27546   0.00000  Uiso   1.00
C359   C     0.30734   0.72856   0.26841   0.00000  Uiso   1.00
C360   C     0.16460   0.91249   0.16677   0.00000  Uiso   1.00
C361   C     0.25226   0.91383   0.06326   0.00000  Uiso   1.00
C362   C     0.30846   0.92886   0.06176   0.00000  Uiso   1.00
C363   C     0.31491   0.97555   0.06663   0.00000  Uiso   1.00
C364   C     0.06799   0.83371   0.15462   0.00000  Uiso   1.00
C365   C     0.26535   0.83474   0.17865   0.00000  Uiso   1.00
C366   C     0.01260   0.83344   0.14798   0.00000  Uiso   1.00
C367   C     0.32070   0.83808   0.18491   0.00000  Uiso   1.00
C368   C     0.17544   0.68689   0.12570   0.00000  Uiso   1.00
C369   C     0.15247   0.97961   0.20684   0.00000  Uiso   1.00
C370   C     0.17124   0.97789   0.12632   0.00000  Uiso   1.00
Cl371  Cl    0.19495   0.70880   0.07454   0.00000  Uiso   1.00
Cl372  Cl    0.13495   0.95717   0.25845   0.00000  Uiso   1.00
Cl373  Cl    0.09148   0.77274   0.04518   0.00000  Uiso   1.00
Cl374  Cl    0.24642   0.89043   0.28924   0.00000  Uiso   1.00
Cu375  Cu    0.16667   0.83334   0.21355   0.00000  Uiso   1.00
Cu376  Cu    0.16667   0.83333   0.11978   0.00000  Uiso   1.00
H377   H     0.32582   0.82827   0.11259   0.00000  Uiso   1.00
H378   H     0.29203   0.69652   0.27173   0.00000  Uiso   1.00
H379   H     0.29245   0.73970   0.23291   0.00000  Uiso   1.00
H380   H     0.24381   0.92165   0.09880   0.00000  Uiso   1.00
H381   H     0.22574   0.93041   0.03688   0.00000  Uiso   1.00
H382   H     0.00058   0.91486   0.09095   0.00000  Uiso   1.00
H383   H     0.32129   0.91919   0.02828   0.00000  Uiso   1.00
H384   H     0.29110   0.99025   0.03694   0.00000  Uiso   1.00
H385   H     0.02281   0.98540   0.06626   0.00000  Uiso   1.00
H386   H     0.30297   0.98599   0.10027   0.00000  Uiso   1.00
H387   H     0.00741   0.84427   0.22011   0.00000  Uiso   1.00
H388   H     0.17600   0.96137   0.09462   0.00000  Uiso   1.00
H389   H     0.14660   0.70558   0.23630   0.00000  Uiso   1.00
H390   H     0.04302   0.78201   0.23407   0.00000  Uiso   1.00
H391   H     0.03949   0.79525   0.29415   0.00000  Uiso   1.00
H392   H     0.04630   0.70936   0.24869   0.00000  Uiso   1.00
H393   H     0.04698   0.71746   0.31056   0.00000  Uiso   1.00
H394   H     0.29316   0.74806   0.29540   0.00000  Uiso   1.00
N395   N     0.16668   0.83334   0.28403   0.00000  Uiso   1.00
N396   N     0.16665   0.83332   0.04931   0.00000  Uiso   1.00
O397   O     0.16666   0.77322   0.20625   0.00000  Uiso   1.00
O398   O     0.24795   0.87061   0.05794   0.00000  Uiso   1.00
O399   O     0.16667   0.89345   0.12709   0.00000  Uiso   1.00
O400   O     0.16666   0.77321   0.12706   0.00000  Uiso   1.00
O401   O     0.16667   0.89346   0.20628   0.00000  Uiso   1.00
O402   O     0.09161   0.83334   0.19712   0.00000  Uiso   1.00
O403   O     0.24172   0.83333   0.13621   0.00000  Uiso   1.00
O404   O     0.09161   0.83333   0.11793   0.00000  Uiso   1.00
O405   O     0.24172   0.83334   0.21540   0.00000  Uiso   1.00
O406   O     0.11060   0.77339   0.27715   0.00000  Uiso   1.00
C407   C     0.50057   0.75412   0.16640   0.00000  Uiso   1.00
C408   C     0.48792   0.68877   0.20564   0.00000  Uiso   1.00
C409   C     0.49556   0.95710   0.16702   0.00000  Uiso   1.00
C410   C     0.49977   0.70947   0.16566   0.00000  Uiso   1.00
C411   C     0.46608   0.80785   0.02024   0.00000  Uiso   1.00
C412   C     0.53433   0.85837   0.31320   0.00000  Uiso   1.00
C413   C     0.46700   0.80675   0.30386   0.00000  Uiso   1.00
C414   C     0.53619   0.85700   0.02972   0.00000  Uiso   1.00
C415   C     0.38919   0.77345   0.27061   0.00000  Uiso   1.00
C416   C     0.36646   0.72975   0.27546   0.00000  Uiso   1.00
C417   C     0.64068   0.72856   0.26841   0.00000  Uiso   1.00
C418   C     0.49793   0.91249   0.16677   0.00000  Uiso   1.00
C419   C     0.58559   0.91383   0.06326   0.00000  Uiso   1.00
C420   C     0.64180   0.92886   0.06176   0.00000  Uiso   1.00
C421   C     0.64824   0.97555   0.06663   0.00000  Uiso   1.00
C422   C     0.40133   0.83371   0.15462   0.00000  Uiso   1.00
C423   C     0.59868   0.83474   0.17865   0.00000  Uiso   1.00
C424   C     0.34593   0.83344   0.14798   0.00000  Uiso   1.00
C425   C     0.65403   0.83808   0.18491   0.00000  Uiso   1.00
C426   C     0.50877   0.68689   0.12570   0.00000  Uiso   1.00
C427   C     0.48580   0.97961   0.20684   0.00000  Uiso   1.00
C428   C     0.50457   0.97789   0.12632   0.00000  Uiso   1.00
Cl429  Cl    0.52829   0.70880   0.07454   0.00000  Uiso   1.00
Cl430  Cl    0.46828   0.95717   0.25845   0.00000  Uiso   1.00
Cl431  Cl    0.42481   0.77274   0.04518   0.00000  Uiso   1.00
Cl432  Cl    0.57975   0.89043   0.28924   0.00000  Uiso   1.00
Cu433  Cu    0.50000   0.83334   0.21355   0.00000  Uiso   1.00
Cu434  Cu    0.50000   0.83333   0.11978   0.00000  Uiso   1.00
H435   H     0.65915   0.82827   0.11259   0.00000  Uiso   1.00
H436   H     0.62537   0.69652   0.27173   0.00000  Uiso   1.00
H437   H     0.62578   0.73970   0.23291   0.00000  Uiso   1.00
H438   H     0.57714   0.92165   0.09880   0.00000  Uiso   1.00
H439   H     0.55908   0.93041   0.03688   0.00000  Uiso   1.00
H440   H     0.33391   0.91486   0.09095   0.00000  Uiso   1.00
H441   H     0.65462   0.91919   0.02828   0.00000  Uiso   1.00
H442   H     0.62444   0.99025   0.03694   0.00000  Uiso   1.00
H443   H     0.35614   0.98540   0.06626   0.00000  Uiso   1.00
H444   H     0.63630   0.98599   0.10027   0.00000  Uiso   1.00
H445   H     0.34074   0.84427   0.22011   0.00000  Uiso   1.00
H446   H     0.50933   0.96137   0.09462   0.00000  Uiso   1.00
H447   H     0.47993   0.70558   0.23630   0.00000  Uiso   1.00
H448   H     0.37635   0.78201   0.23407   0.00000  Uiso   1.00
H449   H     0.37283   0.79525   0.29415   0.00000  Uiso   1.00
H450   H     0.37963   0.70936   0.24869   0.00000  Uiso   1.00
H451   H     0.38031   0.71746   0.31056   0.00000  Uiso   1.00
H452   H     0.62649   0.74806   0.29540   0.00000  Uiso   1.00
N453   N     0.50001   0.83334   0.28403   0.00000  Uiso   1.00
N454   N     0.49999   0.83332   0.04931   0.00000  Uiso   1.00
O455   O     0.50000   0.77322   0.20625   0.00000  Uiso   1.00
O456   O     0.58128   0.87061   0.05794   0.00000  Uiso   1.00
O457   O     0.50000   0.89345   0.12709   0.00000  Uiso   1.00
O458   O     0.50000   0.77321   0.12706   0.00000  Uiso   1.00
O459   O     0.50000   0.89346   0.20628   0.00000  Uiso   1.00
O460   O     0.42495   0.83334   0.19712   0.00000  Uiso   1.00
O461   O     0.57505   0.83333   0.13621   0.00000  Uiso   1.00
O462   O     0.42494   0.83333   0.11793   0.00000  Uiso   1.00
O463   O     0.57506   0.83334   0.21540   0.00000  Uiso   1.00
O464   O     0.44394   0.77339   0.27715   0.00000  Uiso   1.00
C465   C     0.83390   0.75412   0.16640   0.00000  Uiso   1.00
C466   C     0.82126   0.68877   0.20564   0.00000  Uiso   1.00
C467   C     0.82890   0.95710   0.16702   0.00000  Uiso   1.00
C468   C     0.83310   0.70947   0.16566   0.00000  Uiso   1.00
C469   C     0.79941   0.80785   0.02024   0.00000  Uiso   1.00
C470   C     0.86766   0.85837   0.31320   0.00000  Uiso   1.00
C471   C     0.80034   0.80675   0.30386   0.00000  Uiso   1.00
C472   C     0.86952   0.85700   0.02972   0.00000  Uiso   1.00
C473   C     0.72253   0.77345   0.27061   0.00000  Uiso   1.00
C474   C     0.69980   0.72975   0.27546   0.00000  Uiso   1.00
C475   C     0.97401   0.72856   0.26841   0.00000  Uiso   1.00
C476   C     0.83127   0.91249   0.16677   0.00000  Uiso   1.00
C477   C     0.91893   0.91383   0.06326   0.00000  Uiso   1.00
C478   C     0.97513   0.92886   0.06176   0.00000  Uiso   1.00
C479   C     0.98157   0.97555   0.06663   0.00000  Uiso   1.00
C480   C     0.73466   0.83371   0.15462   0.00000  Uiso   1.00
C481   C     0.93202   0.83474   0.17865   0.00000  Uiso   1.00
C482   C     0.67927   0.83344   0.14798   0.00000  Uiso   1.00
C483   C     0.98737   0.83808   0.18491   0.00000  Uiso   1.00
C484   C     0.84211   0.68689   0.12570   0.00000  Uiso   1.00
C485   C     0.81914   0.97961   0.20684   0.00000  Uiso   1.00
C486   C     0.83790   0.97789   0.12632   0.00000  Uiso   1.00
Cl487  Cl    0.86162   0.70880   0.07454   0.00000  Uiso   1.00
Cl488  Cl    0.80162   0.95717   0.25845   0.00000  Uiso   1.00
Cl489  Cl    0.75814   0.77274   0.04518   0.00000  Uiso   1.00
Cl490  Cl    0.91309   0.89043   0.28924   0.00000  Uiso   1.00
Cu491  Cu    0.83333   0.83334   0.21355   0.00000  Uiso   1.00
Cu492  Cu    0.83333   0.83333   0.11978   0.00000  Uiso   1.00
H493   H     0.99249   0.82827   0.11259   0.00000  Uiso   1.00
H494   H     0.95870   0.69652   0.27173   0.00000  Uiso   1.00
H495   H     0.95912   0.73970   0.23291   0.00000  Uiso   1.00
H496   H     0.91048   0.92165   0.09880   0.00000  Uiso   1.00
H497   H     0.89241   0.93041   0.03688   0.00000  Uiso   1.00
H498   H     0.66724   0.91486   0.09095   0.00000  Uiso   1.00
H499   H     0.98796   0.91919   0.02828   0.00000  Uiso   1.00
H500   H     0.95777   0.99025   0.03694   0.00000  Uiso   1.00
H501   H     0.68947   0.98540   0.06626   0.00000  Uiso   1.00
H502   H     0.96963   0.98599   0.10027   0.00000  Uiso   1.00
H503   H     0.67407   0.84427   0.22011   0.00000  Uiso   1.00
H504   H     0.84266   0.96137   0.09462   0.00000  Uiso   1.00
H505   H     0.81326   0.70558   0.23630   0.00000  Uiso   1.00
H506   H     0.70969   0.78201   0.23407   0.00000  Uiso   1.00
H507   H     0.70616   0.79525   0.29415   0.00000  Uiso   1.00
H508   H     0.71297   0.70936   0.24869   0.00000  Uiso   1.00
H509   H     0.71364   0.71746   0.31056   0.00000  Uiso   1.00
H510   H     0.95983   0.74806   0.29540   0.00000  Uiso   1.00
N511   N     0.83335   0.83334   0.28403   0.00000  Uiso   1.00
N512   N     0.83332   0.83332   0.04931   0.00000  Uiso   1.00
O513   O     0.83333   0.77322   0.20625   0.00000  Uiso   1.00
O514   O     0.91461   0.87061   0.05794   0.00000  Uiso   1.00
O515   O     0.83334   0.89345   0.12709   0.00000  Uiso   1.00
O516   O     0.83333   0.77321   0.12706   0.00000  Uiso   1.00
O517   O     0.83334   0.89346   0.20628   0.00000  Uiso   1.00
O518   O     0.75828   0.83334   0.19712   0.00000  Uiso   1.00
O519   O     0.90839   0.83333   0.13621   0.00000  Uiso   1.00
O520   O     0.75828   0.83333   0.11793   0.00000  Uiso   1.00
O521   O     0.90839   0.83334   0.21540   0.00000  Uiso   1.00
O522   O     0.77727   0.77339   0.27715   0.00000  Uiso   1.00
C523   C     0.16724   0.08746   0.49973   0.00000  Uiso   1.00
C524   C     0.15459   0.02210   0.53898   0.00000  Uiso   1.00
C525   C     0.16223   0.29043   0.50036   0.00000  Uiso   1.00
C526   C     0.16643   0.04280   0.49899   0.00000  Uiso   1.00
C527   C     0.13274   0.14118   0.35357   0.00000  Uiso   1.00
C528   C     0.20099   0.19171   0.64653   0.00000  Uiso   1.00
C529   C     0.13367   0.14008   0.63719   0.00000  Uiso   1.00
C530   C     0.20285   0.19034   0.36305   0.00000  Uiso   1.00
C531   C     0.05586   0.10679   0.60394   0.00000  Uiso   1.00
C532   C     0.03313   0.06308   0.60879   0.00000  Uiso   1.00
C533   C     0.30734   0.06190   0.60174   0.00000  Uiso   1.00
C534   C     0.16460   0.24582   0.50010   0.00000  Uiso   1.00
C535   C     0.25226   0.24716   0.39660   0.00000  Uiso   1.00
C536   C     0.30846   0.26219   0.39509   0.00000  Uiso   1.00
C537   C     0.31491   0.30889   0.39996   0.00000  Uiso   1.00
C538   C     0.06799   0.16705   0.48795   0.00000  Uiso   1.00
C539   C     0.26535   0.16808   0.51199   0.00000  Uiso   1.00
C540   C     0.01260   0.16678   0.48131   0.00000  Uiso   1.00
C541   C     0.32070   0.17141   0.51824   0.00000  Uiso   1.00
C542   C     0.17544   0.02023   0.45903   0.00000  Uiso   1.00
C543   C     0.15247   0.31295   0.54018   0.00000  Uiso   1.00
C544   C     0.17124   0.31123   0.45965   0.00000  Uiso   1.00
Cl545  Cl    0.19495   0.04213   0.40787   0.00000  Uiso   1.00
Cl546  Cl    0.13495   0.29051   0.59178   0.00000  Uiso   1.00
Cl547  Cl    0.09148   0.10607   0.37851   0.00000  Uiso   1.00
Cl548  Cl    0.24642   0.22377   0.62257   0.00000  Uiso   1.00
Cu549  Cu    0.16667   0.16667   0.54689   0.00000  Uiso   1.00
Cu550  Cu    0.16667   0.16666   0.45311   0.00000  Uiso   1.00
H551   H     0.32582   0.16160   0.44593   0.00000  Uiso   1.00
H552   H     0.29203   0.02985   0.60507   0.00000  Uiso   1.00
H553   H     0.29245   0.07303   0.56624   0.00000  Uiso   1.00
H554   H     0.24381   0.25499   0.43213   0.00000  Uiso   1.00
H555   H     0.22574   0.26375   0.37021   0.00000  Uiso   1.00
H556   H     0.00058   0.24819   0.42428   0.00000  Uiso   1.00
H557   H     0.32129   0.25252   0.36161   0.00000  Uiso   1.00
H558   H     0.29110   0.32358   0.37027   0.00000  Uiso   1.00
H559   H     0.02281   0.31873   0.39960   0.00000  Uiso   1.00
H560   H     0.30297   0.31932   0.43360   0.00000  Uiso   1.00
H561   H     0.00741   0.17760   0.55344   0.00000  Uiso   1.00
H562   H     0.17600   0.29470   0.42796   0.00000  Uiso   1.00
H563   H     0.14660   0.03891   0.56963   0.00000  Uiso   1.00
H564   H     0.04302   0.11535   0.56740   0.00000  Uiso   1.00
H565   H     0.03949   0.12858   0.62748   0.00000  Uiso   1.00
H566   H     0.04630   0.04270   0.58202   0.00000  Uiso   1.00
H567   H     0.04698   0.05079   0.64389   0.00000  Uiso   1.00
H568   H     0.29316   0.08139   0.62873   0.00000  Uiso   1.00
N569   N     0.16668   0.16668   0.61736   0.00000  Uiso   1.00
N570   N     0.16665   0.16666   0.38264   0.00000  Uiso   1.00
O571   O     0.16666   0.10655   0.53958   0.00000  Uiso   1.00
O572   O     0.24795   0.20395   0.39127   0.00000  Uiso   1.00
O573   O     0.16667   0.22678   0.46042   0.00000  Uiso   1.00
O574   O     0.16666   0.10654   0.46039   0.00000  Uiso   1.00
O575   O     0.16667   0.22679   0.53961   0.00000  Uiso   1.00
O576   O     0.09161   0.16667   0.53046   0.00000  Uiso   1.00
O577   O     0.24172   0.16666   0.46954   0.00000  Uiso   1.00
O578   O     0.09161   0.16666   0.45127   0.00000  Uiso   1.00
O579   O     0.24172   0.16667   0.54873   0.00000  Uiso   1.00
O580   O     0.11060   0.10672   0.61048   0.00000  Uiso   1.00
C581   C     0.50057   0.08746   0.49973   0.00000  Uiso   1.00
C582   C     0.48792   0.02210   0.53898   0.00000  Uiso   1.00
C583   C     0.49556   0.29043   0.50036   0.00000  Uiso   1.00
C584   C     0.49977   0.04280   0.49899   0.00000  Uiso   1.00
C585   C     0.46608   0.14118   0.35357   0.00000  Uiso   1.00
C586   C     0.53433   0.19171   0.64653   0.00000  Uiso   1.00
C587   C     0.46700   0.14008   0.63719   0.00000  Uiso   1.00
C588   C     0.53619   0.19034   0.36305   0.00000  Uiso   1.00
C589   C     0.38919   0.10679   0.60394   0.00000  Uiso   1.00
C590   C     0.36646   0.06308   0.60879   0.00000  Uiso   1.00
C591   C     0.64068   0.06190   0.60174   0.00000  Uiso   1.00
C592   C     0.49793   0.24582   0.50010   0.00000  Uiso   1.00
C593   C     0.58559   0.24716   0.39660   0.00000  Uiso   1.00
C594   C     0.64180   0.26219   0.39509   0.00000  Uiso   1.00
C595   C     0.64824   0.30889   0.39996   0.00000  Uiso   1.00
C596   C     0.40133   0.16705   0.48795   0.00000  Uiso   1.00
C597   C     0.59868   0.16808   0.51199   0.00000  Uiso   1.00
C598   C     0.34593   0.16678   0.48131   0.00000  Uiso   1.00
C599   C     0.65403   0.17141   0.51824   0.00000  Uiso   1.00
C600   C     0.50877   0.02023   0.45903   0.00000  Uiso   1.00
C601   C     0.48580   0.31295   0.54018   0.00000  Uiso   1.00
C602   C     0.50457   0.31123   0.45965   0.00000  Uiso   1.00
Cl603  Cl    0.52829   0.04213   0.40787   0.00000  Uiso   1.00
Cl604  Cl    0.46828   0.29051   0.59178   0.00000  Uiso   1.00
Cl605  Cl    0.42481   0.10607   0.37851   0.00000  Uiso   1.00
Cl606  Cl    0.57975   0.22377   0.62257   0.00000  Uiso   1.00
Cu607  Cu    0.50000   0.16667   0.54689   0.00000  Uiso   1.00
Cu608  Cu    0.50000   0.16666   0.45311   0.00000  Uiso   1.00
H609   H     0.65915   0.16160   0.44593   0.00000  Uiso   1.00
H610   H     0.62537   0.02985   0.60507   0.00000  Uiso   1.00
H611   H     0.62578   0.07303   0.56624   0.00000  Uiso   1.00
H612   H     0.57714   0.25499   0.43213   0.00000  Uiso   1.00
H613   H     0.55908   0.26375   0.37021   0.00000  Uiso   1.00
H614   H     0.33391   0.24819   0.42428   0.00000  Uiso   1.00
H615   H     0.65462   0.25252   0.36161   0.00000  Uiso   1.00
H616   H     0.62444   0.32358   0.37027   0.00000  Uiso   1.00
H617   H     0.35614   0.31873   0.39960   0.00000  Uiso   1.00
H618   H     0.63630   0.31932   0.43360   0.00000  Uiso   1.00
H619   H     0.34074   0.17760   0.55344   0.00000  Uiso   1.00
H620   H     0.50933   0.29470   0.42796   0.00000  Uiso   1.00
H621   H     0.47993   0.03891   0.56963   0.00000  Uiso   1.00
H622   H     0.37635   0.11535   0.56740   0.00000  Uiso   1.00
H623   H     0.37283   0.12858   0.62748   0.00000  Uiso   1.00
H624   H     0.37963   0.04270   0.58202   0.00000  Uiso   1.00
H625   H     0.38031   0.05079   0.64389   0.00000  Uiso   1.00
H626   H     0.62649   0.08139   0.62873   0.00000  Uiso   1.00
N627   N     0.50001   0.16668   0.61736   0.00000  Uiso   1.00
N628   N     0.49999   0.16666   0.38264   0.00000  Uiso   1.00
O629   O     0.50000   0.10655   0.53958   0.00000  Uiso   1.00
O630   O     0.58128   0.20395   0.39127   0.00000  Uiso   1.00
O631   O     0.50000   0.22678   0.46042   0.00000  Uiso   1.00
O632   O     0.50000   0.10654   0.46039   0.00000  Uiso   1.00
O633   O     0.50000   0.22679   0.53961   0.00000  Uiso   1.00
O634   O     0.42495   0.16667   0.53046   0.00000  Uiso   1.00
O635   O     0.57505   0.16666   0.46954   0.00000  Uiso   1.00
O636   O     0.42494   0.16666   0.45127   0.00000  Uiso   1.00
O637   O     0.57506   0.16667   0.54873   0.00000  Uiso   1.00
O638   O     0.44394   0.10672   0.61048   0.00000  Uiso   1.00
C639   C     0.83390   0.08746   0.49973   0.00000  Uiso   1.00
C640   C     0.82126   0.02210   0.53898   0.00000  Uiso   1.00
C641   C     0.82890   0.29043   0.50036   0.00000  Uiso   1.00
C642   C     0.83310   0.04280   0.49899   0.00000  Uiso   1.00
C643   C     0.79941   0.14118   0.35357   0.00000  Uiso   1.00
C644   C     0.86766   0.19171   0.64653   0.00000  Uiso   1.00
C645   C     0.80034   0.14008   0.63719   0.00000  Uiso   1.00
C646   C     0.86952   0.19034   0.36305   0.00000  Uiso   1.00
C647   C     0.72253   0.10679   0.60394   0.00000  Uiso   1.00
C648   C     0.69980   0.06308   0.60879   0.00000  Uiso   1.00
C649   C     0.97401   0.06190   0.60174   0.00000  Uiso   1.00
C650   C     0.83127   0.24582   0.50010   0.00000  Uiso   1.00
C651   C     0.91893   0.24716   0.39660   0.00000  Uiso   1.00
C652   C     0.97513   0.26219   0.39509   0.00000  Uiso   1.00
C653   C     0.98157   0.30889   0.39996   0.00000  Uiso   1.00
C654   C     0.73466   0.16705   0.48795   0.00000  Uiso   1.00
C655   C     0.93202   0.16808   0.51199   0.00000  Uiso   1.00
C656   C     0.67927   0.16678   0.48131   0.00000  Uiso   1.00
C657   C     0.98737   0.17141   0.51824   0.00000  Uiso   1.00
C658   C     0.84211   0.02023   0.45903   0.00000  Uiso   1.00
C659   C     0.81914   0.31295   0.54018   0.00000  Uiso   1.00
C660   C     0.83790   0.31123   0.45965   0.00000  Uiso   1.00
Cl661  Cl    0.86162   0.04213   0.40787   0.00000  Uiso   1.00
Cl662  Cl    0.80162   0.29051   0.59178   0.00000  Uiso   1.00
Cl663  Cl    0.75814   0.10607   0.37851   0.00000  Uiso   1.00
Cl664  Cl    0.91309   0.22377   0.62257   0.00000  Uiso   1.00
Cu665  Cu    0.83333   0.16667   0.54689   0.00000  Uiso   1.00
Cu666  Cu    0.83333   0.16666   0.45311   0.00000  Uiso   1.00
H667   H     0.99249   0.16160   0.44593   0.00000  Uiso   1.00
H668   H     0.95870   0.02985   0.60507   0.00000  Uiso   1.00
H669   H     0.95912   0.07303   0.56624   0.00000  Uiso   1.00
H670   H     0.91048   0.25499   0.43213   0.00000  Uiso   1.00
H671   H     0.89241   0.26375   0.37021   0.00000  Uiso   1.00
H672   H     0.66724   0.24819   0.42428   0.00000  Uiso   1.00
H673   H     0.98796   0.25252   0.36161   0.00000  Uiso   1.00
H674   H     0.95777   0.32358   0.37027   0.00000  Uiso   1.00
H675   H     0.68947   0.31873   0.39960   0.00000  Uiso   1.00
H676   H     0.96963   0.31932   0.43360   0.00000  Uiso   1.00
H677   H     0.67407   0.17760   0.55344   0.00000  Uiso   1.00
H678   H     0.84266   0.29470   0.42796   0.00000  Uiso   1.00
H679   H     0.81326   0.03891   0.56963   0.00000  Uiso   1.00
H680   H     0.70969   0.11535   0.56740   0.00000  Uiso   1.00
H681   H     0.70616   0.12858   0.62748   0.00000  Uiso   1.00
H682   H     0.71297   0.04270   0.58202   0.00000  Uiso   1.00
H683   H     0.71364   0.05079   0.64389   0.00000  Uiso   1.00
H684   H     0.95983   0.08139   0.62873   0.00000  Uiso   1.00
N685   N     0.83335   0.16668   0.61736   0.00000  Uiso   1.00
N686   N     0.83332   0.16666   0.38264   0.00000  Uiso   1.00
O687   O     0.83333   0.10655   0.53958   0.00000  Uiso   1.00
O688   O     0.91461   0.20395   0.39127   0.00000  Uiso   1.00
O689   O     0.83334   0.22678   0.46042   0.00000  Uiso   1.00
O690   O     0.83333   0.10654   0.46039   0.00000  Uiso   1.00
O691   O     0.83334   0.22679   0.53961   0.00000  Uiso   1.00
O692   O     0.75828   0.16667   0.53046   0.00000  Uiso   1.00
O693   O     0.90839   0.16666   0.46954   0.00000  Uiso   1.00
O694   O     0.75828   0.16666   0.45127   0.00000  Uiso   1.00
O695   O     0.90839   0.16667   0.54873   0.00000  Uiso   1.00
O696   O     0.77727   0.10672   0.61048   0.00000  Uiso   1.00
C697   C     0.16724   0.42079   0.49973   0.00000  Uiso   1.00
C698   C     0.15459   0.35543   0.53898   0.00000  Uiso   1.00
C699   C     0.16223   0.62377   0.50036   0.00000  Uiso   1.00
C700   C     0.16643   0.37613   0.49899   0.00000  Uiso   1.00
C701   C     0.13274   0.47452   0.35357   0.00000  Uiso   1.00
C702   C     0.20099   0.52504   0.64653   0.00000  Uiso   1.00
C703   C     0.13367   0.47342   0.63719   0.00000  Uiso   1.00
C704   C     0.20285   0.52367   0.36305   0.00000  Uiso   1.00
C705   C     0.05586   0.44012   0.60394   0.00000  Uiso   1.00
C706   C     0.03313   0.39641   0.60879   0.00000  Uiso   1.00
C707   C     0.30734   0.39523   0.60174   0.00000  Uiso   1.00
C708   C     0.16460   0.57915   0.50010   0.00000  Uiso   1.00
C709   C     0.25226   0.58049   0.39660   0.00000  Uiso   1.00
C710   C     0.30846   0.59552   0.39509   0.00000  Uiso   1.00
C711   C     0.31491   0.64222   0.39996   0.00000  Uiso   1.00
C712   C     0.06799   0.50038   0.48795   0.00000  Uiso   1.00
C713   C     0.26535   0.50141   0.51199   0.00000  Uiso   1.00
C714   C     0.01260   0.50011   0.48131   0.00000  Uiso   1.00
C715   C     0.32070   0.50475   0.51824   0.00000  Uiso   1.00
C716   C     0.17544   0.35356   0.45903   0.00000  Uiso   1.00
C717   C     0.15247   0.64628   0.54018   0.00000  Uiso   1.00
C718   C     0.17124   0.64456   0.45965   0.00000  Uiso   1.00
Cl719  Cl    0.19495   0.37547   0.40787   0.00000  Uiso   1.00
Cl720  Cl    0.13495   0.62384   0.59178   0.00000  Uiso   1.00
Cl721  Cl    0.09148   0.43941   0.37851   0.00000  Uiso   1.00
Cl722  Cl    0.24642   0.55710   0.62257   0.00000  Uiso   1.00
Cu723  Cu    0.16667   0.50001   0.54689   0.00000  Uiso   1.00
Cu724  Cu    0.16667   0.49999   0.45311   0.00000  Uiso   1.00
H725   H     0.32582   0.49494   0.44593   0.00000  Uiso   1.00
H726   H     0.29203   0.36319   0.60507   0.00000  Uiso   1.00
H727   H     0.29245   0.40636   0.56624   0.00000  Uiso   1.00
H728   H     0.24381   0.58832   0.43213   0.00000  Uiso   1.00
H729   H     0.22574   0.59708   0.37021   0.00000  Uiso   1.00
H730   H     0.00058   0.58152   0.42428   0.00000  Uiso   1.00
H731   H     0.32129   0.58585   0.36161   0.00000  Uiso   1.00
H732   H     0.29110   0.65692   0.37027   0.00000  Uiso   1.00
H733   H     0.02281   0.65206   0.39960   0.00000  Uiso   1.00
H734   H     0.30297   0.65265   0.43360   0.00000  Uiso   1.00
H735   H     0.00741   0.51093   0.55344   0.00000  Uiso   1.00
H736   H     0.17600   0.62804   0.42796   0.00000  Uiso   1.00
H737   H     0.14660   0.37225   0.56963   0.00000  Uiso   1.00
H738   H     0.04302   0.44868   0.56740   0.00000  Uiso   1.00
H739   H     0.03949   0.46192   0.62748   0.00000  Uiso   1.00
H740   H     0.04630   0.37603   0.58202   0.00000  Uiso   1.00
H741   H     0.04698   0.38413   0.64389   0.00000  Uiso   1.00
H742   H     0.29316   0.41473   0.62873   0.00000  Uiso   1.00
N743   N     0.16668   0.50001   0.61736   0.00000  Uiso   1.00
N744   N     0.16665   0.49999   0.38264   0.00000  Uiso   1.00
O745   O     0.16666   0.43989   0.53958   0.00000  Uiso   1.00
O746   O     0.24795   0.53728   0.39127   0.00000  Uiso   1.00
O747   O     0.16667   0.56011   0.46042   0.00000  Uiso   1.00
O748   O     0.16666   0.43988   0.46039   0.00000  Uiso   1.00
O749   O     0.16667   0.56012   0.53961   0.00000  Uiso   1.00
O750   O     0.09161   0.50000   0.53046   0.00000  Uiso   1.00
O751   O     0.24172   0.50000   0.46954   0.00000  Uiso   1.00
O752   O     0.09161   0.49999   0.45127   0.00000  Uiso   1.00
O753   O     0.24172   0.50001   0.54873   0.00000  Uiso   1.00
O754   O     0.11060   0.44006   0.61048   0.00000  Uiso   1.00
C755   C     0.50057   0.42079   0.49973   0.00000  Uiso   1.00
C756   C     0.48792   0.35543   0.53898   0.00000  Uiso   1.00
C757   C     0.49556   0.62377   0.50036   0.00000  Uiso   1.00
C758   C     0.49977   0.37613   0.49899   0.00000  Uiso   1.00
C759   C     0.46608   0.47452   0.35357   0.00000  Uiso   1.00
C760   C     0.53433   0.52504   0.64653   0.00000  Uiso   1.00
C761   C     0.46700   0.47342   0.63719   0.00000  Uiso   1.00
C762   C     0.53619   0.52367   0.36305   0.00000  Uiso   1.00
C763   C     0.38919   0.44012   0.60394   0.00000  Uiso   1.00
C764   C     0.36646   0.39641   0.60879   0.00000  Uiso   1.00
C765   C     0.64068   0.39523   0.60174   0.00000  Uiso   1.00
C766   C     0.49793   0.57915   0.50010   0.00000  Uiso   1.00
C767   C     0.58559   0.58049   0.39660   0.00000  Uiso   1.00
C768   C     0.64180   0.59552   0.39509   0.00000  Uiso   1.00
C769   C     0.64824   0.64222   0.39996   0.00000  Uiso   1.00
C770   C     0.40133   0.50038   0.48795   0.00000  Uiso   1.00
C771   C     0.59868   0.50141   0.51199   0.00000  Uiso   1.00
C772   C     0.34593   0.50011   0.48131   0.00000  Uiso   1.00
C773   C     0.65403   0.50475   0.51824   0.00000  Uiso   1.00
C774   C     0.50877   0.35356   0.45903   0.00000  Uiso   1.00
C775   C     0.48580   0.64628   0.54018   0.00000  Uiso   1.00
C776   C     0.50457   0.64456   0.45965   0.00000  Uiso   1.00
Cl777  Cl    0.52829   0.37547   0.40787   0.00000  Uiso   1.00
Cl778  Cl    0.46828   0.62384   0.59178   0.00000  Uiso   1.00
Cl779  Cl    0.42481   0.43941   0.37851   0.00000  Uiso   1.00
Cl780  Cl    0.57975   0.55710   0.62257   0.00000  Uiso   1.00
Cu781  Cu    0.50000   0.50001   0.54689   0.00000  Uiso   1.00
Cu782  Cu    0.50000   0.49999   0.45311   0.00000  Uiso   1.00
H783   H     0.65915   0.49494   0.44593   0.00000  Uiso   1.00
H784   H     0.62537   0.36319   0.60507   0.00000  Uiso   1.00
H785   H     0.62578   0.40636   0.56624   0.00000  Uiso   1.00
H786   H     0.57714   0.58832   0.43213   0.00000  Uiso   1.00
H787   H     0.55908   0.59708   0.37021   0.00000  Uiso   1.00
H788   H     0.33391   0.58152   0.42428   0.00000  Uiso   1.00
H789   H     0.65462   0.58585   0.36161   0.00000  Uiso   1.00
H790   H     0.62444   0.65692   0.37027   0.00000  Uiso   1.00
H791   H     0.35614   0.65206   0.39960   0.00000  Uiso   1.00
H792   H     0.63630   0.65265   0.43360   0.00000  Uiso   1.00
H793   H     0.34074   0.51093   0.55344   0.00000  Uiso   1.00
H794   H     0.50933   0.62804   0.42796   0.00000  Uiso   1.00
H795   H     0.47993   0.37225   0.56963   0.00000  Uiso   1.00
H796   H     0.37635   0.44868   0.56740   0.00000  Uiso   1.00
H797   H     0.37283   0.46192   0.62748   0.00000  Uiso   1.00
H798   H     0.37963   0.37603   0.58202   0.00000  Uiso   1.00
H799   H     0.38031   0.38413   0.64389   0.00000  Uiso   1.00
H800   H     0.62649   0.41473   0.62873   0.00000  Uiso   1.00
N801   N     0.50001   0.50001   0.61736   0.00000  Uiso   1.00
N802   N     0.49999   0.49999   0.38264   0.00000  Uiso   1.00
O803   O     0.50000   0.43989   0.53958   0.00000  Uiso   1.00
O804   O     0.58128   0.53728   0.39127   0.00000  Uiso   1.00
O805   O     0.50000   0.56011   0.46042   0.00000  Uiso   1.00
O806   O     0.50000   0.43988   0.46039   0.00000  Uiso   1.00
O807   O     0.50000   0.56012   0.53961   0.00000  Uiso   1.00
O808   O     0.42495   0.50000   0.53046   0.00000  Uiso   1.00
O809   O     0.57505   0.50000   0.46954   0.00000  Uiso   1.00
O810   O     0.42494   0.49999   0.45127   0.00000  Uiso   1.00
O811   O     0.57506   0.50001   0.54873   0.00000  Uiso   1.00
O812   O     0.44394   0.44006   0.61048   0.00000  Uiso   1.00
C813   C     0.83390   0.42079   0.49973   0.00000  Uiso   1.00
C814   C     0.82126   0.35543   0.53898   0.00000  Uiso   1.00
C815   C     0.82890   0.62377   0.50036   0.00000  Uiso   1.00
C816   C     0.83310   0.37613   0.49899   0.00000  Uiso   1.00
C817   C     0.79941   0.47452   0.35357   0.00000  Uiso   1.00
C818   C     0.86766   0.52504   0.64653   0.00000  Uiso   1.00
C819   C     0.80034   0.47342   0.63719   0.00000  Uiso   1.00
C820   C     0.86952   0.52367   0.36305   0.00000  Uiso   1.00
C821   C     0.72253   0.44012   0.60394   0.00000  Uiso   1.00
C822   C     0.69980   0.39641   0.60879   0.00000  Uiso   1.00
C823   C     0.97401   0.39523   0.60174   0.00000  Uiso   1.00
C824   C     0.83127   0.57915   0.50010   0.00000  Uiso   1.00
C825   C     0.91893   0.58049   0.39660   0.00000  Uiso   1.00
C826   C     0.97513   0.59552   0.39509   0.00000  Uiso   1.00
C827   C     0.98157   0.64222   0.39996   0.00000  Uiso   1.00
C828   C     0.73466   0.50038   0.48795   0.00000  Uiso   1.00
C829   C     0.93202   0.50141   0.51199   0.00000  Uiso   1.00
C830   C     0.67927   0.50011   0.48131   0.00000  Uiso   1.00
C831   C     0.98737   0.50475   0.51824   0.00000  Uiso   1.00
C832   C     0.84211   0.35356   0.45903   0.00000  Uiso   1.00
C833   C     0.81914   0.64628   0.54018   0.00000  Uiso   1.00
C834   C     0.83790   0.64456   0.45965   0.00000  Uiso   1.00
Cl835  Cl    0.86162   0.37547   0.40787   0.00000  Uiso   1.00
Cl836  Cl    0.80162   0.62384   0.59178   0.00000  Uiso   1.00
Cl837  Cl    0.75814   0.43941   0.37851   0.00000  Uiso   1.00
Cl838  Cl    0.91309   0.55710   0.62257   0.00000  Uiso   1.00
Cu839  Cu    0.83333   0.50001   0.54689   0.00000  Uiso   1.00
Cu840  Cu    0.83333   0.49999   0.45311   0.00000  Uiso   1.00
H841   H     0.99249   0.49494   0.44593   0.00000  Uiso   1.00
H842   H     0.95870   0.36319   0.60507   0.00000  Uiso   1.00
H843   H     0.95912   0.40636   0.56624   0.00000  Uiso   1.00
H844   H     0.91048   0.58832   0.43213   0.00000  Uiso   1.00
H845   H     0.89241   0.59708   0.37021   0.00000  Uiso   1.00
H846   H     0.66724   0.58152   0.42428   0.00000  Uiso   1.00
H847   H     0.98796   0.58585   0.36161   0.00000  Uiso   1.00
H848   H     0.95777   0.65692   0.37027   0.00000  Uiso   1.00
H849   H     0.68947   0.65206   0.39960   0.00000  Uiso   1.00
H850   H     0.96963   0.65265   0.43360   0.00000  Uiso   1.00
H851   H     0.67407   0.51093   0.55344   0.00000  Uiso   1.00
H852   H     0.84266   0.62804   0.42796   0.00000  Uiso   1.00
H853   H     0.81326   0.37225   0.56963   0.00000  Uiso   1.00
H854   H     0.70969   0.44868   0.56740   0.00000  Uiso   1.00
H855   H     0.70616   0.46192   0.62748   0.00000  Uiso   1.00
H856   H     0.71297   0.37603   0.58202   0.00000  Uiso   1.00
H857   H     0.71364   0.38413   0.64389   0.00000  Uiso   1.00
H858   H     0.95983   0.41473   0.62873   0.00000  Uiso   1.00
N859   N     0.83335   0.50001   0.61736   0.00000  Uiso   1.00
N860   N     0.83332   0.49999   0.38264   0.00000  Uiso   1.00
O861   O     0.83333   0.43989   0.53958   0.00000  Uiso   1.00
O862   O     0.91461   0.53728   0.39127   0.00000  Uiso   1.00
O863   O     0.83334   0.56011   0.46042   0.00000  Uiso   1.00
O864   O     0.83333   0.43988   0.46039   0.00000  Uiso   1.00
O865   O     0.83334   0.56012   0.53961   0.00000  Uiso   1.00
O866   O     0.75828   0.50000   0.53046   0.00000  Uiso   1.00
O867   O     0.90839   0.50000   0.46954   0.00000  Uiso   1.00
O868   O     0.75828   0.49999   0.45127   0.00000  Uiso   1.00
O869   O     0.90839   0.50001   0.54873   0.00000  Uiso   1.00
O870   O     0.77727   0.44006   0.61048   0.00000  Uiso   1.00
C871   C     0.16724   0.75412   0.49973   0.00000  Uiso   1.00
C872   C     0.15459   0.68877   0.53898   0.00000  Uiso   1.00
C873   C     0.16223   0.95710   0.50036   0.00000  Uiso   1.00
C874   C     0.16643   0.70947   0.49899   0.00000  Uiso   1.00
C875   C     0.13274   0.80785   0.35357   0.00000  Uiso   1.00
C876   C     0.20099   0.85837   0.64653   0.00000  Uiso   1.00
C877   C     0.13367   0.80675   0.63719   0.00000  Uiso   1.00
C878   C     0.20285   0.85700   0.36305   0.00000  Uiso   1.00
C879   C     0.05586   0.77345   0.60394   0.00000  Uiso   1.00
C880   C     0.03313   0.72975   0.60879   0.00000  Uiso   1.00
C881   C     0.30734   0.72856   0.60174   0.00000  Uiso   1.00
C882   C     0.16460   0.91249   0.50010   0.00000  Uiso   1.00
C883   C     0.25226   0.91383   0.39660   0.00000  Uiso   1.00
C884   C     0.30846   0.92886   0.39509   0.00000  Uiso   1.00
C885   C     0.31491   0.97555   0.39996   0.00000  Uiso   1.00
C886   C     0.06799   0.83371   0.48795   0.00000  Uiso   1.00
C887   C     0.26535   0.83474   0.51199   0.00000  Uiso   1.00
C888   C     0.01260   0.83344   0.48131   0.00000  Uiso   1.00
C889   C     0.32070   0.83808   0.51824   0.00000  Uiso   1.00
C890   C     0.17544   0.68689   0.45903   0.00000  Uiso   1.00
C891   C     0.15247   0.97961   0.54018   0.00000  Uiso   1.00
C892   C     0.17124   0.97789   0.45965   0.00000  Uiso   1.00
Cl893  Cl    0.19495   0.70880   0.40787   0.00000  Uiso   1.00
Cl894  Cl    0.13495   0.95717   0.59178   0.00000  Uiso   1.00
Cl895  Cl    0.09148   0.77274   0.37851   0.00000  Uiso   1.00
Cl896  Cl    0.24642   0.89043   0.62257   0.00000  Uiso   1.00
Cu897  Cu    0.16667   0.83334   0.54689   0.00000  Uiso   1.00
Cu898  Cu    0.16667   0.83333   0.45311   0.00000  Uiso   1.00
H899   H     0.32582   0.82827   0.44593   0.00000  Uiso   1.00
H900   H     0.29203   0.69652   0.60507   0.00000  Uiso   1.00
H901   H     0.29245   0.73970   0.56624   0.00000  Uiso   1.00
H902   H     0.24381   0.92165   0.43213   0.00000  Uiso   1.00
H903   H     0.22574   0.93041   0.37021   0.00000  Uiso   1.00
H904   H     0.00058   0.91486   0.42428   0.00000  Uiso   1.00
H905   H     0.32129   0.91919   0.36161   0.00000  Uiso   1.00
H906   H     0.29110   0.99025   0.37027   0.00000  Uiso   1.00
H907   H     0.02281   0.98540   0.39960   0.00000  Uiso   1.00
H908   H     0.30297   0.98599   0.43360   0.00000  Uiso   1.00
H909   H     0.00741   0.84427   0.55344   0.00000  Uiso   1.00
H910   H     0.17600   0.96137   0.42796   0.00000  Uiso   1.00
H911   H     0.14660   0.70558   0.56963   0.00000  Uiso   1.00
H912   H     0.04302   0.78201   0.56740   0.00000  Uiso   1.00
H913   H     0.03949   0.79525   0.62748   0.00000  Uiso   1.00
H914   H     0.04630   0.70936   0.58202   0.00000  Uiso   1.00
H915   H     0.04698   0.71746   0.64389   0.00000  Uiso   1.00
H916   H     0.29316   0.74806   0.62873   0.00000  Uiso   1.00
N917   N     0.16668   0.83334   0.61736   0.00000  Uiso   1.00
N918   N     0.16665   0.83332   0.38264   0.00000  Uiso   1.00
O919   O     0.16666   0.77322   0.53958   0.00000  Uiso   1.00
O920   O     0.24795   0.87061   0.39127   0.00000  Uiso   1.00
O921   O     0.16667   0.89345   0.46042   0.00000  Uiso   1.00
O922   O     0.16666   0.77321   0.46039   0.00000  Uiso   1.00
O923   O     0.16667   0.89346   0.53961   0.00000  Uiso   1.00
O924   O     0.09161   0.83334   0.53046   0.00000  Uiso   1.00
O925   O     0.24172   0.83333   0.46954   0.00000  Uiso   1.00
O926   O     0.09161   0.83333   0.45127   0.00000  Uiso   1.00
O927   O     0.24172   0.83334   0.54873   0.00000  Uiso   1.00
O928   O     0.11060   0.77339   0.61048   0.00000  Uiso   1.00
C929   C     0.50057   0.75412   0.49973   0.00000  Uiso   1.00
C930   C     0.48792   0.68877   0.53898   0.00000  Uiso   1.00
C931   C     0.49556   0.95710   0.50036   0.00000  Uiso   1.00
C932   C     0.49977   0.70947   0.49899   0.00000  Uiso   1.00
C933   C     0.46608   0.80785   0.35357   0.00000  Uiso   1.00
C934   C     0.53433   0.85837   0.64653   0.00000  Uiso   1.00
C935   C     0.46700   0.80675   0.63719   0.00000  Uiso   1.00
C936   C     0.53619   0.85700   0.36305   0.00000  Uiso   1.00
C937   C     0.38919   0.77345   0.60394   0.00000  Uiso   1.00
C938   C     0.36646   0.72975   0.60879   0.00000  Uiso   1.00
C939   C     0.64068   0.72856   0.60174   0.00000  Uiso   1.00
C940   C     0.49793   0.91249   0.50010   0.00000  Uiso   1.00
C941   C     0.58559   0.91383   0.39660   0.00000  Uiso   1.00
C942   C     0.64180   0.92886   0.39509   0.00000  Uiso   1.00
C943   C     0.64824   0.97555   0.39996   0.00000  Uiso   1.00
C944   C     0.40133   0.83371   0.48795   0.00000  Uiso   1.00
C945   C     0.59868   0.83474   0.51199   0.00000  Uiso   1.00
C946   C     0.34593   0.83344   0.48131   0.00000  Uiso   1.00
C947   C     0.65403   0.83808   0.51824   0.00000  Uiso   1.00
C948   C     0.50877   0.68689   0.45903   0.00000  Uiso   1.00
C949   C     0.48580   0.97961   0.54018   0.00000  Uiso   1.00
C950   C     0.50457   0.97789   0.45965   0.00000  Uiso   1.00
Cl951  Cl    0.52829   0.70880   0.40787   0.00000  Uiso   1.00
Cl952  Cl    0.46828   0.95717   0.59178   0.00000  Uiso   1.00
Cl953  Cl    0.42481   0.77274   0.37851   0.00000  Uiso   1.00
Cl954  Cl    0.57975   0.89043   0.62257   0.00000  Uiso   1.00
Cu955  Cu    0.50000   0.83334   0.54689   0.00000  Uiso   1.00
Cu956  Cu    0.50000   0.83333   0.45311   0.00000  Uiso   1.00
H957   H     0.65915   0.82827   0.44593   0.00000  Uiso   1.00
H958   H     0.62537   0.69652   0.60507   0.00000  Uiso   1.00
H959   H     0.62578   0.73970   0.56624   0.00000  Uiso   1.00
H960   H     0.57714   0.92165   0.43213   0.00000  Uiso   1.00
H961   H     0.55908   0.93041   0.37021   0.00000  Uiso   1.00
H962   H     0.33391   0.91486   0.42428   0.00000  Uiso   1.00
H963   H     0.65462   0.91919   0.36161   0.00000  Uiso   1.00
H964   H     0.62444   0.99025   0.37027   0.00000  Uiso   1.00
H965   H     0.35614   0.98540   0.39960   0.00000  Uiso   1.00
H966   H     0.63630   0.98599   0.43360   0.00000  Uiso   1.00
H967   H     0.34074   0.84427   0.55344   0.00000  Uiso   1.00
H968   H     0.50933   0.96137   0.42796   0.00000  Uiso   1.00
H969   H     0.47993   0.70558   0.56963   0.00000  Uiso   1.00
H970   H     0.37635   0.78201   0.56740   0.00000  Uiso   1.00
H971   H     0.37283   0.79525   0.62748   0.00000  Uiso   1.00
H972   H     0.37963   0.70936   0.58202   0.00000  Uiso   1.00
H973   H     0.38031   0.71746   0.64389   0.00000  Uiso   1.00
H974   H     0.62649   0.74806   0.62873   0.00000  Uiso   1.00
N975   N     0.50001   0.83334   0.61736   0.00000  Uiso   1.00
N976   N     0.49999   0.83332   0.38264   0.00000  Uiso   1.00
O977   O     0.50000   0.77322   0.53958   0.00000  Uiso   1.00
O978   O     0.58128   0.87061   0.39127   0.00000  Uiso   1.00
O979   O     0.50000   0.89345   0.46042   0.00000  Uiso   1.00
O980   O     0.50000   0.77321   0.46039   0.00000  Uiso   1.00
O981   O     0.50000   0.89346   0.53961   0.00000  Uiso   1.00
O982   O     0.42495   0.83334   0.53046   0.00000  Uiso   1.00
O983   O     0.57505   0.83333   0.46954   0.00000  Uiso   1.00
O984   O     0.42494   0.83333   0.45127   0.00000  Uiso   1.00
O985   O     0.57506   0.83334   0.54873   0.00000  Uiso   1.00
O986   O     0.44394   0.77339   0.61048   0.00000  Uiso   1.00
C987   C     0.83390   0.75412   0.49973   0.00000  Uiso   1.00
C988   C     0.82126   0.68877   0.53898   0.00000  Uiso   1.00
C989   C     0.82890   0.95710   0.50036   0.00000  Uiso   1.00
C990   C     0.83310   0.70947   0.49899   0.00000  Uiso   1.00
C991   C     0.79941   0.80785   0.35357   0.00000  Uiso   1.00
C992   C     0.86766   0.85837   0.64653   0.00000  Uiso   1.00
C993   C     0.80034   0.80675   0.63719   0.00000  Uiso   1.00
C994   C     0.86952   0.85700   0.36305   0.00000  Uiso   1.00
C995   C     0.72253   0.77345   0.60394   0.00000  Uiso   1.00
C996   C     0.69980   0.72975   0.60879   0.00000  Uiso   1.00
C997   C     0.97401   0.72856   0.60174   0.00000  Uiso   1.00
C998   C     0.83127   0.91249   0.50010   0.00000  Uiso   1.00
C999   C     0.91893   0.91383   0.39660   0.00000  Uiso   1.00
C1000  C     0.97513   0.92886   0.39509   0.00000  Uiso   1.00
C1001  C     0.98157   0.97555   0.39996   0.00000  Uiso   1.00
C1002  C     0.73466   0.83371   0.48795   0.00000  Uiso   1.00
C1003  C     0.93202   0.83474   0.51199   0.00000  Uiso   1.00
C1004  C     0.67927   0.83344   0.48131   0.00000  Uiso   1.00
C1005  C     0.98737   0.83808   0.51824   0.00000  Uiso   1.00
C1006  C     0.84211   0.68689   0.45903   0.00000  Uiso   1.00
C1007  C     0.81914   0.97961   0.54018   0.00000  Uiso   1.00
C1008  C     0.83790   0.97789   0.45965   0.00000  Uiso   1.00
Cl1009 Cl    0.86162   0.70880   0.40787   0.00000  Uiso   1.00
Cl1010 Cl    0.80162   0.95717   0.59178   0.00000  Uiso   1.00
Cl1011 Cl    0.75814   0.77274   0.37851   0.00000  Uiso   1.00
Cl1012 Cl    0.91309   0.89043   0.62257   0.00000  Uiso   1.00
Cu1013 Cu    0.83333   0.83334   0.54689   0.00000  Uiso   1.00
Cu1014 Cu    0.83333   0.83333   0.45311   0.00000  Uiso   1.00
H1015  H     0.99249   0.82827   0.44593   0.00000  Uiso   1.00
H1016  H     0.95870   0.69652   0.60507   0.00000  Uiso   1.00
H1017  H     0.95912   0.73970   0.56624   0.00000  Uiso   1.00
H1018  H     0.91048   0.92165   0.43213   0.00000  Uiso   1.00
H1019  H     0.89241   0.93041   0.37021   0.00000  Uiso   1.00
H1020  H     0.66724   0.91486   0.42428   0.00000  Uiso   1.00
H1021  H     0.98796   0.91919   0.36161   0.00000  Uiso   1.00
H1022  H     0.95777   0.99025   0.37027   0.00000  Uiso   1.00
H1023  H     0.68947   0.98540   0.39960   0.00000  Uiso   1.00
H1024  H     0.96963   0.98599   0.43360   0.00000  Uiso   1.00
H1025  H     0.67407   0.84427   0.55344   0.00000  Uiso   1.00
H1026  H     0.84266   0.96137   0.42796   0.00000  Uiso   1.00
H1027  H     0.81326   0.70558   0.56963   0.00000  Uiso   1.00
H1028  H     0.70969   0.78201   0.56740   0.00000  Uiso   1.00
H1029  H     0.70616   0.79525   0.62748   0.00000  Uiso   1.00
H1030  H     0.71297   0.70936   0.58202   0.00000  Uiso   1.00
H1031  H     0.71364   0.71746   0.64389   0.00000  Uiso   1.00
H1032  H     0.95983   0.74806   0.62873   0.00000  Uiso   1.00
N1033  N     0.83335   0.83334   0.61736   0.00000  Uiso   1.00
N1034  N     0.83332   0.83332   0.38264   0.00000  Uiso   1.00
O1035  O     0.83333   0.77322   0.53958   0.00000  Uiso   1.00
O1036  O     0.91461   0.87061   0.39127   0.00000  Uiso   1.00
O1037  O     0.83334   0.89345   0.46042   0.00000  Uiso   1.00
O1038  O     0.83333   0.77321   0.46039   0.00000  Uiso   1.00
O1039  O     0.83334   0.89346   0.53961   0.00000  Uiso   1.00
O1040  O     0.75828   0.83334   0.53046   0.00000  Uiso   1.00
O1041  O     0.90839   0.83333   0.46954   0.00000  Uiso   1.00
O1042  O     0.75828   0.83333   0.45127   0.00000  Uiso   1.00
O1043  O     0.90839   0.83334   0.54873   0.00000  Uiso   1.00
O1044  O     0.77727   0.77339   0.61048   0.00000  Uiso   1.00
C1045  C     0.16724   0.08746   0.83306   0.00000  Uiso   1.00
C1046  C     0.15459   0.02210   0.87231   0.00000  Uiso   1.00
C1047  C     0.16223   0.29043   0.83369   0.00000  Uiso   1.00
C1048  C     0.16643   0.04280   0.83233   0.00000  Uiso   1.00
C1049  C     0.13274   0.14118   0.68691   0.00000  Uiso   1.00
C1050  C     0.20099   0.19171   0.97987   0.00000  Uiso   1.00
C1051  C     0.13367   0.14008   0.97052   0.00000  Uiso   1.00
C1052  C     0.20285   0.19034   0.69638   0.00000  Uiso   1.00
C1053  C     0.05586   0.10679   0.93728   0.00000  Uiso   1.00
C1054  C     0.03313   0.06308   0.94213   0.00000  Uiso   1.00
C1055  C     0.30734   0.06190   0.93507   0.00000  Uiso   1.00
C1056  C     0.16460   0.24582   0.83343   0.00000  Uiso   1.00
C1057  C     0.25226   0.24716   0.72993   0.00000  Uiso   1.00
C1058  C     0.30846   0.26219   0.72843   0.00000  Uiso   1.00
C1059  C     0.31491   0.30889   0.73330   0.00000  Uiso   1.00
C1060  C     0.06799   0.16705   0.82129   0.00000  Uiso   1.00
C1061  C     0.26535   0.16808   0.84532   0.00000  Uiso   1.00
C1062  C     0.01260   0.16678   0.81465   0.00000  Uiso   1.00
C1063  C     0.32070   0.17141   0.85158   0.00000  Uiso   1.00
C1064  C     0.17544   0.02023   0.79236   0.00000  Uiso   1.00
C1065  C     0.15247   0.31295   0.87351   0.00000  Uiso   1.00
C1066  C     0.17124   0.31123   0.79299   0.00000  Uiso   1.00
Cl1067 Cl    0.19495   0.04213   0.74121   0.00000  Uiso   1.00
Cl1068 Cl    0.13495   0.29051   0.92512   0.00000  Uiso   1.00
Cl1069 Cl    0.09148   0.10607   0.71184   0.00000  Uiso   1.00
Cl1070 Cl    0.24642   0.22377   0.95590   0.00000  Uiso   1.00
Cu1071 Cu    0.16667   0.16667   0.88022   0.00000  Uiso   1.00
Cu1072 Cu    0.16667   0.16666   0.78645   0.00000  Uiso   1.00
H1073  H     0.32582   0.16160   0.77926   0.00000  Uiso   1.00
H1074  H     0.29203   0.02985   0.93840   0.00000  Uiso   1.00
H1075  H     0.29245   0.07303   0.89958   0.00000  Uiso   1.00
H1076  H     0.24381   0.25499   0.76547   0.00000  Uiso   1.00
H1077  H     0.22574   0.26375   0.70354   0.00000  Uiso   1.00
H1078  H     0.00058   0.24819   0.75762   0.00000  Uiso   1.00
H1079  H     0.32129   0.25252   0.69494   0.00000  Uiso   1.00
H1080  H     0.29110   0.32358   0.70361   0.00000  Uiso   1.00
H1081  H     0.02281   0.31873   0.73293   0.00000  Uiso   1.00
H1082  H     0.30297   0.31932   0.76694   0.00000  Uiso   1.00
H1083  H     0.00741   0.17760   0.88678   0.00000  Uiso   1.00
H1084  H     0.17600   0.29470   0.76129   0.00000  Uiso   1.00
H1085  H     0.14660   0.03891   0.90296   0.00000  Uiso   1.00
H1086  H     0.04302   0.11535   0.90074   0.00000  Uiso   1.00
H1087  H     0.03949   0.12858   0.96081   0.00000  Uiso   1.00
H1088  H     0.04630   0.04270   0.91536   0.00000  Uiso   1.00
H1089  H     0.04698   0.05079   0.97723   0.00000  Uiso   1.00
H1090  H     0.29316   0.08139   0.96206   0.00000  Uiso   1.00
N1091  N     0.16668   0.16668   0.95069   0.00000  Uiso   1.00
N1092  N     0.16665   0.16666   0.71597   0.00000  Uiso   1.00
O1093  O     0.16666   0.10655   0.87291   0.00000  Uiso   1.00
O1094  O     0.24795   0.20395   0.72461   0.00000  Uiso   1.00
O1095  O     0.16667   0.22678   0.79375   0.00000  Uiso   1.00
O1096  O     0.16666   0.10654   0.79372   0.00000  Uiso   1.00
O1097  O     0.16667   0.22679   0.87294   0.00000  Uiso   1.00
O1098  O     0.09161   0.16667   0.86379   0.00000  Uiso   1.00
O1099  O     0.24172   0.16666   0.80288   0.00000  Uiso   1.00
O1100  O     0.09161   0.16666   0.78460   0.00000  Uiso   1.00
O1101  O     0.24172   0.16667   0.88207   0.00000  Uiso   1.00
O1102  O     0.11060   0.10672   0.94382   0.00000  Uiso   1.00
C1103  C     0.50057   0.08746   0.83306   0.00000  Uiso   1.00
C1104  C     0.48792   0.02210   0.87231   0.00000  Uiso   1.00
C1105  C     0.49556   0.29043   0.83369   0.00000  Uiso   1.00
C1106  C     0.49977   0.04280   0.83233   0.00000  Uiso   1.00
C1107  C     0.46608   0.14118   0.68691   0.00000  Uiso   1.00
C1108  C     0.53433   0.19171   0.97987   0.00000  Uiso   1.00
C1109  C     0.46700   0.14008   0.97052   0.00000  Uiso   1.00
C1110  C     0.53619   0.19034   0.69638   0.00000  Uiso   1.00
C1111  C     0.38919   0.10679   0.93728   0.00000  Uiso   1.00
C1112  C     0.36646   0.06308   0.94213   0.00000  Uiso   1.00
C1113  C     0.64068   0.06190   0.93507   0.00000  Uiso   1.00
C1114  C     0.49793   0.24582   0.83343   0.00000  Uiso   1.00
C1115  C     0.58559   0.24716   0.72993   0.00000  Uiso   1.00
C1116  C     0.64180   0.26219   0.72843   0.00000  Uiso   1.00
C1117  C     0.64824   0.30889   0.73330   0.00000  Uiso   1.00
C1118  C     0.40133   0.16705   0.82129   0.00000  Uiso   1.00
C1119  C     0.59868   0.16808   0.84532   0.00000  Uiso   1.00
C1120  C     0.34593   0.16678   0.81465   0.00000  Uiso   1.00
C1121  C     0.65403   0.17141   0.85158   0.00000  Uiso   1.00
C1122  C     0.50877   0.02023   0.79236   0.00000  Uiso   1.00
C1123  C     0.48580   0.31295   0.87351   0.00000  Uiso   1.00
C1124  C     0.50457   0.31123   0.79299   0.00000  Uiso   1.00
Cl1125 Cl    0.52829   0.04213   0.74121   0.00000  Uiso   1.00
Cl1126 Cl    0.46828   0.29051   0.92512   0.00000  Uiso   1.00
Cl1127 Cl    0.42481   0.10607   0.71184   0.00000  Uiso   1.00
Cl1128 Cl    0.57975   0.22377   0.95590   0.00000  Uiso   1.00
Cu1129 Cu    0.50000   0.16667   0.88022   0.00000  Uiso   1.00
Cu1130 Cu    0.50000   0.16666   0.78645   0.00000  Uiso   1.00
H1131  H     0.65915   0.16160   0.77926   0.00000  Uiso   1.00
H1132  H     0.62537   0.02985   0.93840   0.00000  Uiso   1.00
H1133  H     0.62578   0.07303   0.89958   0.00000  Uiso   1.00
H1134  H     0.57714   0.25499   0.76547   0.00000  Uiso   1.00
H1135  H     0.55908   0.26375   0.70354   0.00000  Uiso   1.00
H1136  H     0.33391   0.24819   0.75762   0.00000  Uiso   1.00
H1137  H     0.65462   0.25252   0.69494   0.00000  Uiso   1.00
H1138  H     0.62444   0.32358   0.70361   0.00000  Uiso   1.00
H1139  H     0.35614   0.31873   0.73293   0.00000  Uiso   1.00
H1140  H     0.63630   0.31932   0.76694   0.00000  Uiso   1.00
H1141  H     0.34074   0.17760   0.88678   0.00000  Uiso   1.00
H1142  H     0.50933   0.29470   0.76129   0.00000  Uiso   1.00
H1143  H     0.47993   0.03891   0.90296   0.00000  Uiso   1.00
H1144  H     0.37635   0.11535   0.90074   0.00000  Uiso   1.00
H1145  H     0.37283   0.12858   0.96081   0.00000  Uiso   1.00
H1146  H     0.37963   0.04270   0.91536   0.00000  Uiso   1.00
H1147  H     0.38031   0.05079   0.97723   0.00000  Uiso   1.00
H1148  H     0.62649   0.08139   0.96206   0.00000  Uiso   1.00
N1149  N     0.50001   0.16668   0.95069   0.00000  Uiso   1.00
N1150  N     0.49999   0.16666   0.71597   0.00000  Uiso   1.00
O1151  O     0.50000   0.10655   0.87291   0.00000  Uiso   1.00
O1152  O     0.58128   0.20395   0.72461   0.00000  Uiso   1.00
O1153  O     0.50000   0.22678   0.79375   0.00000  Uiso   1.00
O1154  O     0.50000   0.10654   0.79372   0.00000  Uiso   1.00
O1155  O     0.50000   0.22679   0.87294   0.00000  Uiso   1.00
O1156  O     0.42495   0.16667   0.86379   0.00000  Uiso   1.00
O1157  O     0.57505   0.16666   0.80288   0.00000  Uiso   1.00
O1158  O     0.42494   0.16666   0.78460   0.00000  Uiso   1.00
O1159  O     0.57506   0.16667   0.88207   0.00000  Uiso   1.00
O1160  O     0.44394   0.10672   0.94382   0.00000  Uiso   1.00
C1161  C     0.83390   0.08746   0.83306   0.00000  Uiso   1.00
C1162  C     0.82126   0.02210   0.87231   0.00000  Uiso   1.00
C1163  C     0.82890   0.29043   0.83369   0.00000  Uiso   1.00
C1164  C     0.83310   0.04280   0.83233   0.00000  Uiso   1.00
C1165  C     0.79941   0.14118   0.68691   0.00000  Uiso   1.00
C1166  C     0.86766   0.19171   0.97987   0.00000  Uiso   1.00
C1167  C     0.80034   0.14008   0.97052   0.00000  Uiso   1.00
C1168  C     0.86952   0.19034   0.69638   0.00000  Uiso   1.00
C1169  C     0.72253   0.10679   0.93728   0.00000  Uiso   1.00
C1170  C     0.69980   0.06308   0.94213   0.00000  Uiso   1.00
C1171  C     0.97401   0.06190   0.93507   0.00000  Uiso   1.00
C1172  C     0.83127   0.24582   0.83343   0.00000  Uiso   1.00
C1173  C     0.91893   0.24716   0.72993   0.00000  Uiso   1.00
C1174  C     0.97513   0.26219   0.72843   0.00000  Uiso   1.00
C1175  C     0.98157   0.30889   0.73330   0.00000  Uiso   1.00
C1176  C     0.73466   0.16705   0.82129   0.00000  Uiso   1.00
C1177  C     0.93202   0.16808   0.84532   0.00000  Uiso   1.00
C1178  C     0.67927   0.16678   0.81465   0.00000  Uiso   1.00
C1179  C     0.98737   0.17141   0.85158   0.00000  Uiso   1.00
C1180  C     0.84211   0.02023   0.79236   0.00000  Uiso   1.00
C1181  C     0.81914   0.31295   0.87351   0.00000  Uiso   1.00
C1182  C     0.83790   0.31123   0.79299   0.00000  Uiso   1.00
Cl1183 Cl    0.86162   0.04213   0.74121   0.00000  Uiso   1.00
Cl1184 Cl    0.80162   0.29051   0.92512   0.00000  Uiso   1.00
Cl1185 Cl    0.75814   0.10607   0.71184   0.00000  Uiso   1.00
Cl1186 Cl    0.91309   0.22377   0.95590   0.00000  Uiso   1.00
Cu1187 Cu    0.83333   0.16667   0.88022   0.00000  Uiso   1.00
Cu1188 Cu    0.83333   0.16666   0.78645   0.00000  Uiso   1.00
H1189  H     0.99249   0.16160   0.77926   0.00000  Uiso   1.00
H1190  H     0.95870   0.02985   0.93840   0.00000  Uiso   1.00
H1191  H     0.95912   0.07303   0.89958   0.00000  Uiso   1.00
H1192  H     0.91048   0.25499   0.76547   0.00000  Uiso   1.00
H1193  H     0.89241   0.26375   0.70354   0.00000  Uiso   1.00
H1194  H     0.66724   0.24819   0.75762   0.00000  Uiso   1.00
H1195  H     0.98796   0.25252   0.69494   0.00000  Uiso   1.00
H1196  H     0.95777   0.32358   0.70361   0.00000  Uiso   1.00
H1197  H     0.68947   0.31873   0.73293   0.00000  Uiso   1.00
H1198  H     0.96963   0.31932   0.76694   0.00000  Uiso   1.00
H1199  H     0.67407   0.17760   0.88678   0.00000  Uiso   1.00
H1200  H     0.84266   0.29470   0.76129   0.00000  Uiso   1.00
H1201  H     0.81326   0.03891   0.90296   0.00000  Uiso   1.00
H1202  H     0.70969   0.11535   0.90074   0.00000  Uiso   1.00
H1203  H     0.70616   0.12858   0.96081   0.00000  Uiso   1.00
H1204  H     0.71297   0.04270   0.91536   0.00000  Uiso   1.00
H1205  H     0.71364   0.05079   0.97723   0.00000  Uiso   1.00
H1206  H     0.95983   0.08139   0.96206   0.00000  Uiso   1.00
N1207  N     0.83335   0.16668   0.95069   0.00000  Uiso   1.00
N1208  N     0.83332   0.16666   0.71597   0.00000  Uiso   1.00
O1209  O     0.83333   0.10655   0.87291   0.00000  Uiso   1.00
O1210  O     0.91461   0.20395   0.72461   0.00000  Uiso   1.00
O1211  O     0.83334   0.22678   0.79375   0.00000  Uiso   1.00
O1212  O     0.83333   0.10654   0.79372   0.00000  Uiso   1.00
O1213  O     0.83334   0.22679   0.87294   0.00000  Uiso   1.00
O1214  O     0.75828   0.16667   0.86379   0.00000  Uiso   1.00
O1215  O     0.90839   0.16666   0.80288   0.00000  Uiso   1.00
O1216  O     0.75828   0.16666   0.78460   0.00000  Uiso   1.00
O1217  O     0.90839   0.16667   0.88207   0.00000  Uiso   1.00
O1218  O     0.77727   0.10672   0.94382   0.00000  Uiso   1.00
C1219  C     0.16724   0.42079   0.83306   0.00000  Uiso   1.00
C1220  C     0.15459   0.35543   0.87231   0.00000  Uiso   1.00
C1221  C     0.16223   0.62377   0.83369   0.00000  Uiso   1.00
C1222  C     0.16643   0.37613   0.83233   0.00000  Uiso   1.00
C1223  C     0.13274   0.47452   0.68691   0.00000  Uiso   1.00
C1224  C     0.20099   0.52504   0.97987   0.00000  Uiso   1.00
C1225  C     0.13367   0.47342   0.97052   0.00000  Uiso   1.00
C1226  C     0.20285   0.52367   0.69638   0.00000  Uiso   1.00
C1227  C     0.05586   0.44012   0.93728   0.00000  Uiso   1.00
C1228  C     0.03313   0.39641   0.94213   0.00000  Uiso   1.00
C1229  C     0.30734   0.39523   0.93507   0.00000  Uiso   1.00
C1230  C     0.16460   0.57915   0.83343   0.00000  Uiso   1.00
C1231  C     0.25226   0.58049   0.72993   0.00000  Uiso   1.00
C1232  C     0.30846   0.59552   0.72843   0.00000  Uiso   1.00
C1233  C     0.31491   0.64222   0.73330   0.00000  Uiso   1.00
C1234  C     0.06799   0.50038   0.82129   0.00000  Uiso   1.00
C1235  C     0.26535   0.50141   0.84532   0.00000  Uiso   1.00
C1236  C     0.01260   0.50011   0.81465   0.00000  Uiso   1.00
C1237  C     0.32070   0.50475   0.85158   0.00000  Uiso   1.00
C1238  C     0.17544   0.35356   0.79236   0.00000  Uiso   1.00
C1239  C     0.15247   0.64628   0.87351   0.00000  Uiso   1.00
C1240  C     0.17124   0.64456   0.79299   0.00000  Uiso   1.00
Cl1241 Cl    0.19495   0.37547   0.74121   0.00000  Uiso   1.00
Cl1242 Cl    0.13495   0.62384   0.92512   0.00000  Uiso   1.00
Cl1243 Cl    0.09148   0.43941   0.71184   0.00000  Uiso   1.00
Cl1244 Cl    0.24642   0.55710   0.95590   0.00000  Uiso   1.00
Cu1245 Cu    0.16667   0.50001   0.88022   0.00000  Uiso   1.00
Cu1246 Cu    0.16667   0.49999   0.78645   0.00000  Uiso   1.00
H1247  H     0.32582   0.49494   0.77926   0.00000  Uiso   1.00
H1248  H     0.29203   0.36319   0.93840   0.00000  Uiso   1.00
H1249  H     0.29245   0.40636   0.89958   0.00000  Uiso   1.00
H1250  H     0.24381   0.58832   0.76547   0.00000  Uiso   1.00
H1251  H     0.22574   0.59708   0.70354   0.00000  Uiso   1.00
H1252  H     0.00058   0.58152   0.75762   0.00000  Uiso   1.00
H1253  H     0.32129   0.58585   0.69494   0.00000  Uiso   1.00
H1254  H     0.29110   0.65692   0.70361   0.00000  Uiso   1.00
H1255  H     0.02281   0.65206   0.73293   0.00000  Uiso   1.00
H1256  H     0.30297   0.65265   0.76694   0.00000  Uiso   1.00
H1257  H     0.00741   0.51093   0.88678   0.00000  Uiso   1.00
H1258  H     0.17600   0.62804   0.76129   0.00000  Uiso   1.00
H1259  H     0.14660   0.37225   0.90296   0.00000  Uiso   1.00
H1260  H     0.04302   0.44868   0.90074   0.00000  Uiso   1.00
H1261  H     0.03949   0.46192   0.96081   0.00000  Uiso   1.00
H1262  H     0.04630   0.37603   0.91536   0.00000  Uiso   1.00
H1263  H     0.04698   0.38413   0.97723   0.00000  Uiso   1.00
H1264  H     0.29316   0.41473   0.96206   0.00000  Uiso   1.00
N1265  N     0.16668   0.50001   0.95069   0.00000  Uiso   1.00
N1266  N     0.16665   0.49999   0.71597   0.00000  Uiso   1.00
O1267  O     0.16666   0.43989   0.87291   0.00000  Uiso   1.00
O1268  O     0.24795   0.53728   0.72461   0.00000  Uiso   1.00
O1269  O     0.16667   0.56011   0.79375   0.00000  Uiso   1.00
O1270  O     0.16666   0.43988   0.79372   0.00000  Uiso   1.00
O1271  O     0.16667   0.56012   0.87294   0.00000  Uiso   1.00
O1272  O     0.09161   0.50000   0.86379   0.00000  Uiso   1.00
O1273  O     0.24172   0.50000   0.80288   0.00000  Uiso   1.00
O1274  O     0.09161   0.49999   0.78460   0.00000  Uiso   1.00
O1275  O     0.24172   0.50001   0.88207   0.00000  Uiso   1.00
O1276  O     0.11060   0.44006   0.94382   0.00000  Uiso   1.00
C1277  C     0.50057   0.42079   0.83306   0.00000  Uiso   1.00
C1278  C     0.48792   0.35543   0.87231   0.00000  Uiso   1.00
C1279  C     0.49556   0.62377   0.83369   0.00000  Uiso   1.00
C1280  C     0.49977   0.37613   0.83233   0.00000  Uiso   1.00
C1281  C     0.46608   0.47452   0.68691   0.00000  Uiso   1.00
C1282  C     0.53433   0.52504   0.97987   0.00000  Uiso   1.00
C1283  C     0.46700   0.47342   0.97052   0.00000  Uiso   1.00
C1284  C     0.53619   0.52367   0.69638   0.00000  Uiso   1.00
C1285  C     0.38919   0.44012   0.93728   0.00000  Uiso   1.00
C1286  C     0.36646   0.39641   0.94213   0.00000  Uiso   1.00
C1287  C     0.64068   0.39523   0.93507   0.00000  Uiso   1.00
C1288  C     0.49793   0.57915   0.83343   0.00000  Uiso   1.00
C1289  C     0.58559   0.58049   0.72993   0.00000  Uiso   1.00
C1290  C     0.64180   0.59552   0.72843   0.00000  Uiso   1.00
C1291  C     0.64824   0.64222   0.73330   0.00000  Uiso   1.00
C1292  C     0.40133   0.50038   0.82129   0.00000  Uiso   1.00
C1293  C     0.59868   0.50141   0.84532   0.00000  Uiso   1.00
C1294  C     0.34593   0.50011   0.81465   0.00000  Uiso   1.00
C1295  C     0.65403   0.50475   0.85158   0.00000  Uiso   1.00
C1296  C     0.50877   0.35356   0.79236   0.00000  Uiso   1.00
C1297  C     0.48580   0.64628   0.87351   0.00000  Uiso   1.00
C1298  C     0.50457   0.64456   0.79299   0.00000  Uiso   1.00
Cl1299 Cl    0.52829   0.37547   0.74121   0.00000  Uiso   1.00
Cl1300 Cl    0.46828   0.62384   0.92512   0.00000  Uiso   1.00
Cl1301 Cl    0.42481   0.43941   0.71184   0.00000  Uiso   1.00
Cl1302 Cl    0.57975   0.55710   0.95590   0.00000  Uiso   1.00
Cu1303 Cu    0.50000   0.50001   0.88022   0.00000  Uiso   1.00
Cu1304 Cu    0.50000   0.49999   0.78645   0.00000  Uiso   1.00
H1305  H     0.65915   0.49494   0.77926   0.00000  Uiso   1.00
H1306  H     0.62537   0.36319   0.93840   0.00000  Uiso   1.00
H1307  H     0.62578   0.40636   0.89958   0.00000  Uiso   1.00
H1308  H     0.57714   0.58832   0.76547   0.00000  Uiso   1.00
H1309  H     0.55908   0.59708   0.70354   0.00000  Uiso   1.00
H1310  H     0.33391   0.58152   0.75762   0.00000  Uiso   1.00
H1311  H     0.65462   0.58585   0.69494   0.00000  Uiso   1.00
H1312  H     0.62444   0.65692   0.70361   0.00000  Uiso   1.00
H1313  H     0.35614   0.65206   0.73293   0.00000  Uiso   1.00
H1314  H     0.63630   0.65265   0.76694   0.00000  Uiso   1.00
H1315  H     0.34074   0.51093   0.88678   0.00000  Uiso   1.00
H1316  H     0.50933   0.62804   0.76129   0.00000  Uiso   1.00
H1317  H     0.47993   0.37225   0.90296   0.00000  Uiso   1.00
H1318  H     0.37635   0.44868   0.90074   0.00000  Uiso   1.00
H1319  H     0.37283   0.46192   0.96081   0.00000  Uiso   1.00
H1320  H     0.37963   0.37603   0.91536   0.00000  Uiso   1.00
H1321  H     0.38031   0.38413   0.97723   0.00000  Uiso   1.00
H1322  H     0.62649   0.41473   0.96206   0.00000  Uiso   1.00
N1323  N     0.50001   0.50001   0.95069   0.00000  Uiso   1.00
N1324  N     0.49999   0.49999   0.71597   0.00000  Uiso   1.00
O1325  O     0.50000   0.43989   0.87291   0.00000  Uiso   1.00
O1326  O     0.58128   0.53728   0.72461   0.00000  Uiso   1.00
O1327  O     0.50000   0.56011   0.79375   0.00000  Uiso   1.00
O1328  O     0.50000   0.43988   0.79372   0.00000  Uiso   1.00
O1329  O     0.50000   0.56012   0.87294   0.00000  Uiso   1.00
O1330  O     0.42495   0.50000   0.86379   0.00000  Uiso   1.00
O1331  O     0.57505   0.50000   0.80288   0.00000  Uiso   1.00
O1332  O     0.42494   0.49999   0.78460   0.00000  Uiso   1.00
O1333  O     0.57506   0.50001   0.88207   0.00000  Uiso   1.00
O1334  O     0.44394   0.44006   0.94382   0.00000  Uiso   1.00
C1335  C     0.83390   0.42079   0.83306   0.00000  Uiso   1.00
C1336  C     0.82126   0.35543   0.87231   0.00000  Uiso   1.00
C1337  C     0.82890   0.62377   0.83369   0.00000  Uiso   1.00
C1338  C     0.83310   0.37613   0.83233   0.00000  Uiso   1.00
C1339  C     0.79941   0.47452   0.68691   0.00000  Uiso   1.00
C1340  C     0.86766   0.52504   0.97987   0.00000  Uiso   1.00
C1341  C     0.80034   0.47342   0.97052   0.00000  Uiso   1.00
C1342  C     0.86952   0.52367   0.69638   0.00000  Uiso   1.00
C1343  C     0.72253   0.44012   0.93728   0.00000  Uiso   1.00
C1344  C     0.69980   0.39641   0.94213   0.00000  Uiso   1.00
C1345  C     0.97401   0.39523   0.93507   0.00000  Uiso   1.00
C1346  C     0.83127   0.57915   0.83343   0.00000  Uiso   1.00
C1347  C     0.91893   0.58049   0.72993   0.00000  Uiso   1.00
C1348  C     0.97513   0.59552   0.72843   0.00000  Uiso   1.00
C1349  C     0.98157   0.64222   0.73330   0.00000  Uiso   1.00
C1350  C     0.73466   0.50038   0.82129   0.00000  Uiso   1.00
C1351  C     0.93202   0.50141   0.84532   0.00000  Uiso   1.00
C1352  C     0.67927   0.50011   0.81465   0.00000  Uiso   1.00
C1353  C     0.98737   0.50475   0.85158   0.00000  Uiso   1.00
C1354  C     0.84211   0.35356   0.79236   0.00000  Uiso   1.00
C1355  C     0.81914   0.64628   0.87351   0.00000  Uiso   1.00
C1356  C     0.83790   0.64456   0.79299   0.00000  Uiso   1.00
Cl1357 Cl    0.86162   0.37547   0.74121   0.00000  Uiso   1.00
Cl1358 Cl    0.80162   0.62384   0.92512   0.00000  Uiso   1.00
Cl1359 Cl    0.75814   0.43941   0.71184   0.00000  Uiso   1.00
Cl1360 Cl    0.91309   0.55710   0.95590   0.00000  Uiso   1.00
Cu1361 Cu    0.83333   0.50001   0.88022   0.00000  Uiso   1.00
Cu1362 Cu    0.83333   0.49999   0.78645   0.00000  Uiso   1.00
H1363  H     0.99249   0.49494   0.77926   0.00000  Uiso   1.00
H1364  H     0.95870   0.36319   0.93840   0.00000  Uiso   1.00
H1365  H     0.95912   0.40636   0.89958   0.00000  Uiso   1.00
H1366  H     0.91048   0.58832   0.76547   0.00000  Uiso   1.00
H1367  H     0.89241   0.59708   0.70354   0.00000  Uiso   1.00
H1368  H     0.66724   0.58152   0.75762   0.00000  Uiso   1.00
H1369  H     0.98796   0.58585   0.69494   0.00000  Uiso   1.00
H1370  H     0.95777   0.65692   0.70361   0.00000  Uiso   1.00
H1371  H     0.68947   0.65206   0.73293   0.00000  Uiso   1.00
H1372  H     0.96963   0.65265   0.76694   0.00000  Uiso   1.00
H1373  H     0.67407   0.51093   0.88678   0.00000  Uiso   1.00
H1374  H     0.84266   0.62804   0.76129   0.00000  Uiso   1.00
H1375  H     0.81326   0.37225   0.90296   0.00000  Uiso   1.00
H1376  H     0.70969   0.44868   0.90074   0.00000  Uiso   1.00
H1377  H     0.70616   0.46192   0.96081   0.00000  Uiso   1.00
H1378  H     0.71297   0.37603   0.91536   0.00000  Uiso   1.00
H1379  H     0.71364   0.38413   0.97723   0.00000  Uiso   1.00
H1380  H     0.95983   0.41473   0.96206   0.00000  Uiso   1.00
N1381  N     0.83335   0.50001   0.95069   0.00000  Uiso   1.00
N1382  N     0.83332   0.49999   0.71597   0.00000  Uiso   1.00
O1383  O     0.83333   0.43989   0.87291   0.00000  Uiso   1.00
O1384  O     0.91461   0.53728   0.72461   0.00000  Uiso   1.00
O1385  O     0.83334   0.56011   0.79375   0.00000  Uiso   1.00
O1386  O     0.83333   0.43988   0.79372   0.00000  Uiso   1.00
O1387  O     0.83334   0.56012   0.87294   0.00000  Uiso   1.00
O1388  O     0.75828   0.50000   0.86379   0.00000  Uiso   1.00
O1389  O     0.90839   0.50000   0.80288   0.00000  Uiso   1.00
O1390  O     0.75828   0.49999   0.78460   0.00000  Uiso   1.00
O1391  O     0.90839   0.50001   0.88207   0.00000  Uiso   1.00
O1392  O     0.77727   0.44006   0.94382   0.00000  Uiso   1.00
C1393  C     0.16724   0.75412   0.83306   0.00000  Uiso   1.00
C1394  C     0.15459   0.68877   0.87231   0.00000  Uiso   1.00
C1395  C     0.16223   0.95710   0.83369   0.00000  Uiso   1.00
C1396  C     0.16643   0.70947   0.83233   0.00000  Uiso   1.00
C1397  C     0.13274   0.80785   0.68691   0.00000  Uiso   1.00
C1398  C     0.20099   0.85837   0.97987   0.00000  Uiso   1.00
C1399  C     0.13367   0.80675   0.97052   0.00000  Uiso   1.00
C1400  C     0.20285   0.85700   0.69638   0.00000  Uiso   1.00
C1401  C     0.05586   0.77345   0.93728   0.00000  Uiso   1.00
C1402  C     0.03313   0.72975   0.94213   0.00000  Uiso   1.00
C1403  C     0.30734   0.72856   0.93507   0.00000  Uiso   1.00
C1404  C     0.16460   0.91249   0.83343   0.00000  Uiso   1.00
C1405  C     0.25226   0.91383   0.72993   0.00000  Uiso   1.00
C1406  C     0.30846   0.92886   0.72843   0.00000  Uiso   1.00
C1407  C     0.31491   0.97555   0.73330   0.00000  Uiso   1.00
C1408  C     0.06799   0.83371   0.82129   0.00000  Uiso   1.00
C1409  C     0.26535   0.83474   0.84532   0.00000  Uiso   1.00
C1410  C     0.01260   0.83344   0.81465   0.00000  Uiso   1.00
C1411  C     0.32070   0.83808   0.85158   0.00000  Uiso   1.00
C1412  C     0.17544   0.68689   0.79236   0.00000  Uiso   1.00
C1413  C     0.15247   0.97961   0.87351   0.00000  Uiso   1.00
C1414  C     0.17124   0.97789   0.79299   0.00000  Uiso   1.00
Cl1415 Cl    0.19495   0.70880   0.74121   0.00000  Uiso   1.00
Cl1416 Cl    0.13495   0.95717   0.92512   0.00000  Uiso   1.00
Cl1417 Cl    0.09148   0.77274   0.71184   0.00000  Uiso   1.00
Cl1418 Cl    0.24642   0.89043   0.95590   0.00000  Uiso   1.00
Cu1419 Cu    0.16667   0.83334   0.88022   0.00000  Uiso   1.00
Cu1420 Cu    0.16667   0.83333   0.78645   0.00000  Uiso   1.00
H1421  H     0.32582   0.82827   0.77926   0.00000  Uiso   1.00
H1422  H     0.29203   0.69652   0.93840   0.00000  Uiso   1.00
H1423  H     0.29245   0.73970   0.89958   0.00000  Uiso   1.00
H1424  H     0.24381   0.92165   0.76547   0.00000  Uiso   1.00
H1425  H     0.22574   0.93041   0.70354   0.00000  Uiso   1.00
H1426  H     0.00058   0.91486   0.75762   0.00000  Uiso   1.00
H1427  H     0.32129   0.91919   0.69494   0.00000  Uiso   1.00
H1428  H     0.29110   0.99025   0.70361   0.00000  Uiso   1.00
H1429  H     0.02281   0.98540   0.73293   0.00000  Uiso   1.00
H1430  H     0.30297   0.98599   0.76694   0.00000  Uiso   1.00
H1431  H     0.00741   0.84427   0.88678   0.00000  Uiso   1.00
H1432  H     0.17600   0.96137   0.76129   0.00000  Uiso   1.00
H1433  H     0.14660   0.70558   0.90296   0.00000  Uiso   1.00
H1434  H     0.04302   0.78201   0.90074   0.00000  Uiso   1.00
H1435  H     0.03949   0.79525   0.96081   0.00000  Uiso   1.00
H1436  H     0.04630   0.70936   0.91536   0.00000  Uiso   1.00
H1437  H     0.04698   0.71746   0.97723   0.00000  Uiso   1.00
H1438  H     0.29316   0.74806   0.96206   0.00000  Uiso   1.00
N1439  N     0.16668   0.83334   0.95069   0.00000  Uiso   1.00
N1440  N     0.16665   0.83332   0.71597   0.00000  Uiso   1.00
O1441  O     0.16666   0.77322   0.87291   0.00000  Uiso   1.00
O1442  O     0.24795   0.87061   0.72461   0.00000  Uiso   1.00
O1443  O     0.16667   0.89345   0.79375   0.00000  Uiso   1.00
O1444  O     0.16666   0.77321   0.79372   0.00000  Uiso   1.00
O1445  O     0.16667   0.89346   0.87294   0.00000  Uiso   1.00
O1446  O     0.09161   0.83334   0.86379   0.00000  Uiso   1.00
O1447  O     0.24172   0.83333   0.80288   0.00000  Uiso   1.00
O1448  O     0.09161   0.83333   0.78460   0.00000  Uiso   1.00
O1449  O     0.24172   0.83334   0.88207   0.00000  Uiso   1.00
O1450  O     0.11060   0.77339   0.94382   0.00000  Uiso   1.00
C1451  C     0.50057   0.75412   0.83306   0.00000  Uiso   1.00
C1452  C     0.48792   0.68877   0.87231   0.00000  Uiso   1.00
C1453  C     0.49556   0.95710   0.83369   0.00000  Uiso   1.00
C1454  C     0.49977   0.70947   0.83233   0.00000  Uiso   1.00
C1455  C     0.46608   0.80785   0.68691   0.00000  Uiso   1.00
C1456  C     0.53433   0.85837   0.97987   0.00000  Uiso   1.00
C1457  C     0.46700   0.80675   0.97052   0.00000  Uiso   1.00
C1458  C     0.53619   0.85700   0.69638   0.00000  Uiso   1.00
C1459  C     0.38919   0.77345   0.93728   0.00000  Uiso   1.00
C1460  C     0.36646   0.72975   0.94213   0.00000  Uiso   1.00
C1461  C     0.64068   0.72856   0.93507   0.00000  Uiso   1.00
C1462  C     0.49793   0.91249   0.83343   0.00000  Uiso   1.00
C1463  C     0.58559   0.91383   0.72993   0.00000  Uiso   1.00
C1464  C     0.64180   0.92886   0.72843   0.00000  Uiso   1.00
C1465  C     0.64824   0.97555   0.73330   0.00000  Uiso   1.00
C1466  C     0.40133   0.83371   0.82129   0.00000  Uiso   1.00
C1467  C     0.59868   0.83474   0.84532   0.00000  Uiso   1.00
C1468  C     0.34593   0.83344   0.81465   0.00000  Uiso   1.00
C1469  C     0.65403   0.83808   0.85158   0.00000  Uiso   1.00
C1470  C     0.50877   0.68689   0.79236   0.00000  Uiso   1.00
C1471  C     0.48580   0.97961   0.87351   0.00000  Uiso   1.00
C1472  C     0.50457   0.97789   0.79299   0.00000  Uiso   1.00
Cl1473 Cl    0.52829   0.70880   0.74121   0.00000  Uiso   1.00
Cl1474 Cl    0.46828   0.95717   0.92512   0.00000  Uiso   1.00
Cl1475 Cl    0.42481   0.77274   0.71184   0.00000  Uiso   1.00
Cl1476 Cl    0.57975   0.89043   0.95590   0.00000  Uiso   1.00
Cu1477 Cu    0.50000   0.83334   0.88022   0.00000  Uiso   1.00
Cu1478 Cu    0.50000   0.83333   0.78645   0.00000  Uiso   1.00
H1479  H     0.65915   0.82827   0.77926   0.00000  Uiso   1.00
H1480  H     0.62537   0.69652   0.93840   0.00000  Uiso   1.00
H1481  H     0.62578   0.73970   0.89958   0.00000  Uiso   1.00
H1482  H     0.57714   0.92165   0.76547   0.00000  Uiso   1.00
H1483  H     0.55908   0.93041   0.70354   0.00000  Uiso   1.00
H1484  H     0.33391   0.91486   0.75762   0.00000  Uiso   1.00
H1485  H     0.65462   0.91919   0.69494   0.00000  Uiso   1.00
H1486  H     0.62444   0.99025   0.70361   0.00000  Uiso   1.00
H1487  H     0.35614   0.98540   0.73293   0.00000  Uiso   1.00
H1488  H     0.63630   0.98599   0.76694   0.00000  Uiso   1.00
H1489  H     0.34074   0.84427   0.88678   0.00000  Uiso   1.00
H1490  H     0.50933   0.96137   0.76129   0.00000  Uiso   1.00
H1491  H     0.47993   0.70558   0.90296   0.00000  Uiso   1.00
H1492  H     0.37635   0.78201   0.90074   0.00000  Uiso   1.00
H1493  H     0.37283   0.79525   0.96081   0.00000  Uiso   1.00
H1494  H     0.37963   0.70936   0.91536   0.00000  Uiso   1.00
H1495  H     0.38031   0.71746   0.97723   0.00000  Uiso   1.00
H1496  H     0.62649   0.74806   0.96206   0.00000  Uiso   1.00
N1497  N     0.50001   0.83334   0.95069   0.00000  Uiso   1.00
N1498  N     0.49999   0.83332   0.71597   0.00000  Uiso   1.00
O1499  O     0.50000   0.77322   0.87291   0.00000  Uiso   1.00
O1500  O     0.58128   0.87061   0.72461   0.00000  Uiso   1.00
O1501  O     0.50000   0.89345   0.79375   0.00000  Uiso   1.00
O1502  O     0.50000   0.77321   0.79372   0.00000  Uiso   1.00
O1503  O     0.50000   0.89346   0.87294   0.00000  Uiso   1.00
O1504  O     0.42495   0.83334   0.86379   0.00000  Uiso   1.00
O1505  O     0.57505   0.83333   0.80288   0.00000  Uiso   1.00
O1506  O     0.42494   0.83333   0.78460   0.00000  Uiso   1.00
O1507  O     0.57506   0.83334   0.88207   0.00000  Uiso   1.00
O1508  O     0.44394   0.77339   0.94382   0.00000  Uiso   1.00
C1509  C     0.83390   0.75412   0.83306   0.00000  Uiso   1.00
C1510  C     0.82126   0.68877   0.87231   0.00000  Uiso   1.00
C1511  C     0.82890   0.95710   0.83369   0.00000  Uiso   1.00
C1512  C     0.83310   0.70947   0.83233   0.00000  Uiso   1.00
C1513  C     0.79941   0.80785   0.68691   0.00000  Uiso   1.00
C1514  C     0.86766   0.85837   0.97987   0.00000  Uiso   1.00
C1515  C     0.80034   0.80675   0.97052   0.00000  Uiso   1.00
C1516  C     0.86952   0.85700   0.69638   0.00000  Uiso   1.00
C1517  C     0.72253   0.77345   0.93728   0.00000  Uiso   1.00
C1518  C     0.69980   0.72975   0.94213   0.00000  Uiso   1.00
C1519  C     0.97401   0.72856   0.93507   0.00000  Uiso   1.00
C1520  C     0.83127   0.91249   0.83343   0.00000  Uiso   1.00
C1521  C     0.91893   0.91383   0.72993   0.00000  Uiso   1.00
C1522  C     0.97513   0.92886   0.72843   0.00000  Uiso   1.00
C1523  C     0.98157   0.97555   0.73330   0.00000  Uiso   1.00
C1524  C     0.73466   0.83371   0.82129   0.00000  Uiso   1.00
C1525  C     0.93202   0.83474   0.84532   0.00000  Uiso   1.00
C1526  C     0.67927   0.83344   0.81465   0.00000  Uiso   1.00
C1527  C     0.98737   0.83808   0.85158   0.00000  Uiso   1.00
C1528  C     0.84211   0.68689   0.79236   0.00000  Uiso   1.00
C1529  C     0.81914   0.97961   0.87351   0.00000  Uiso   1.00
C1530  C     0.83790   0.97789   0.79299   0.00000  Uiso   1.00
Cl1531 Cl    0.86162   0.70880   0.74121   0.00000  Uiso   1.00
Cl1532 Cl    0.80162   0.95717   0.92512   0.00000  Uiso   1.00
Cl1533 Cl    0.75814   0.77274   0.71184   0.00000  Uiso   1.00
Cl1534 Cl    0.91309   0.89043   0.95590   0.00000  Uiso   1.00
Cu1535 Cu    0.83333   0.83334   0.88022   0.00000  Uiso   1.00
Cu1536 Cu    0.83333   0.83333   0.78645   0.00000  Uiso   1.00
H1537  H     0.99249   0.82827   0.77926   0.00000  Uiso   1.00
H1538  H     0.95870   0.69652   0.93840   0.00000  Uiso   1.00
H1539  H     0.95912   0.73970   0.89958   0.00000  Uiso   1.00
H1540  H     0.91048   0.92165   0.76547   0.00000  Uiso   1.00
H1541  H     0.89241   0.93041   0.70354   0.00000  Uiso   1.00
H1542  H     0.66724   0.91486   0.75762   0.00000  Uiso   1.00
H1543  H     0.98796   0.91919   0.69494   0.00000  Uiso   1.00
H1544  H     0.95777   0.99025   0.70361   0.00000  Uiso   1.00
H1545  H     0.68947   0.98540   0.73293   0.00000  Uiso   1.00
H1546  H     0.96963   0.98599   0.76694   0.00000  Uiso   1.00
H1547  H     0.67407   0.84427   0.88678   0.00000  Uiso   1.00
H1548  H     0.84266   0.96137   0.76129   0.00000  Uiso   1.00
H1549  H     0.81326   0.70558   0.90296   0.00000  Uiso   1.00
H1550  H     0.70969   0.78201   0.90074   0.00000  Uiso   1.00
H1551  H     0.70616   0.79525   0.96081   0.00000  Uiso   1.00
H1552  H     0.71297   0.70936   0.91536   0.00000  Uiso   1.00
H1553  H     0.71364   0.71746   0.97723   0.00000  Uiso   1.00
H1554  H     0.95983   0.74806   0.96206   0.00000  Uiso   1.00
N1555  N     0.83335   0.83334   0.95069   0.00000  Uiso   1.00
N1556  N     0.83332   0.83332   0.71597   0.00000  Uiso   1.00
O1557  O     0.83333   0.77322   0.87291   0.00000  Uiso   1.00
O1558  O     0.91461   0.87061   0.72461   0.00000  Uiso   1.00
O1559  O     0.83334   0.89345   0.79375   0.00000  Uiso   1.00
O1560  O     0.83333   0.77321   0.79372   0.00000  Uiso   1.00
O1561  O     0.83334   0.89346   0.87294   0.00000  Uiso   1.00
O1562  O     0.75828   0.83334   0.86379   0.00000  Uiso   1.00
O1563  O     0.90839   0.83333   0.80288   0.00000  Uiso   1.00
O1564  O     0.75828   0.83333   0.78460   0.00000  Uiso   1.00
O1565  O     0.90839   0.83334   0.88207   0.00000  Uiso   1.00
O1566  O     0.77727   0.77339   0.94382   0.00000  Uiso   1.00
loop_
_geom_bond_atom_site_label_1
_geom_bond_atom_site_label_2
_geom_bond_distance
_geom_bond_site_symmetry_2
_ccdc_geom_bond_type
C1     C4      1.455   .     S
C1     O52     1.294   .     A
C1     O49     1.301   .     A
C2     C4      1.401   .     A
C2     H41     1.083   .     S
C2     C369    1.384   1_545 S
C3     C21     1.413   .     A
C3     C12     1.459   .     S
C3     C22     1.399   .     A
C4     C20     1.411   .     A
C5     Cl25    1.760   .     S
C5     N48     1.374   .     A
C5     C1051   1.433   1_554 S
C6     Cl26    1.759   .     S
C6     N47     1.373   .     A
C6     C530    1.428   .     S
C7     O58     1.390   .     S
C7     N47     1.376   .     A
C7     C527    1.433   .     S
C8     N48     1.376   .     A
C8     O50     1.388   .     S
C8     C1050   1.428   1_554 S
C9     C10     1.533   .     S
C9     H42     1.101   .     S
C9     O58     1.416   .     S
C9     H43     1.115   .     S
C10    H45     1.109   .     S
C10    H44     1.112   .     S
C10    C127    1.528   1_455 S
C11    H31     1.112   .     S
C11    H46     1.111   .     S
C11    H30     1.111   .     S
C11    C68     1.528   .     S
C12    O53     1.295   .     A
C12    O51     1.302   .     A
C13    H33     1.116   .     S
C13    H32     1.104   .     S
C13    C14     1.532   .     S
C13    O50     1.413   .     S
C14    H35     1.109   .     S
C14    C15     1.527   .     S
C14    H92     1.112   .     S
C15    H38     1.111   .     S
C15    H36     1.111   .     S
C15    H95     1.111   .     S
C16    O56     1.293   .     A
C16    O54     1.292   .     A
C16    C18     1.433   .     S
C17    O55     1.289   .     A
C17    C19     1.431   .     S
C17    O57     1.294   .     A
C18    C135    1.335   1_455 S
C18    H145    1.087   1_455 S
C19    C76     1.335   .     S
C19    H97     1.086   .     S
C20    Cl23    1.767   .     S
C20    C370    1.380   1_545 S
C21    Cl24    1.766   .     S
C21    C176    1.384   .     S
C22    H40     1.079   .     S
C22    C194    1.380   .     S
Cu27   O53     1.973   .     S
Cu27   O54     1.952   .     S
Cu27   O57     1.953   .     S
Cu27   N47     2.026   .     S
Cu27   Cu28    2.696   .     S
Cu27   O49     1.969   .     S
Cu28   O56     1.953   .     S
Cu28   O52     1.973   .     S
Cu28   O55     1.952   .     S
Cu28   O51     1.969   .     S
Cu28   N48     2.026   .     S
H29    C76     1.087   .     S
H34    C130    1.112   1_455 S
H37    C131    1.111   1_455 S
H39    C135    1.086   1_455 S
C59    C62     1.455   .     S
C59    O110    1.294   .     A
C59    O107    1.301   .     A
C60    C62     1.401   .     A
C60    H99     1.083   .     S
C60    C427    1.384   1_545 S
C61    C79     1.413   .     A
C61    C70     1.459   .     S
C61    C80     1.399   .     A
C62    C78     1.411   .     A
C63    Cl83    1.760   .     S
C63    N106    1.374   .     A
C63    C1109   1.433   1_554 S
C64    Cl84    1.759   .     S
C64    N105    1.373   .     A
C64    C588    1.428   .     S
C65    O116    1.390   .     S
C65    N105    1.376   .     A
C65    C585    1.433   .     S
C66    N106    1.376   .     A
C66    O108    1.388   .     S
C66    C1108   1.428   1_554 S
C67    C68     1.533   .     S
C67    H100    1.101   .     S
C67    O116    1.416   .     S
C67    H101    1.115   .     S
C68    H103    1.109   .     S
C68    H102    1.112   .     S
C69    H89     1.112   .     S
C69    H104    1.111   .     S
C69    H88     1.111   .     S
C69    C126    1.528   .     S
C70    O111    1.295   .     A
C70    O109    1.302   .     A
C71    H91     1.116   .     S
C71    H90     1.104   .     S
C71    C72     1.532   .     S
C71    O108    1.413   .     S
C72    H93     1.109   .     S
C72    C73     1.527   .     S
C72    H150    1.112   .     S
C73    H96     1.111   .     S
C73    H94     1.111   .     S
C73    H153    1.111   .     S
C74    O114    1.293   .     A
C74    O112    1.292   .     A
C74    C76     1.433   .     S
C75    O113    1.289   .     A
C75    C77     1.431   .     S
C75    O115    1.294   .     A
C77    C134    1.335   .     S
C77    H155    1.086   .     S
C78    Cl81    1.767   .     S
C78    C428    1.380   1_545 S
C79    Cl82    1.766   .     S
C79    C234    1.384   .     S
C80    H98     1.079   .     S
C80    C252    1.380   .     S
Cu85   O111    1.973   .     S
Cu85   O112    1.952   .     S
Cu85   O115    1.953   .     S
Cu85   N105    2.026   .     S
Cu85   Cu86    2.696   .     S
Cu85   O107    1.969   .     S
Cu86   O114    1.953   .     S
Cu86   O110    1.973   .     S
Cu86   O113    1.952   .     S
Cu86   O109    1.969   .     S
Cu86   N106    2.026   .     S
H87    C134    1.087   .     S
C117   C120    1.455   .     S
C117   O168    1.294   .     A
C117   O165    1.301   .     A
C118   C120    1.401   .     A
C118   H157    1.083   .     S
C118   C485    1.384   1_545 S
C119   C137    1.413   .     A
C119   C128    1.459   .     S
C119   C138    1.399   .     A
C120   C136    1.411   .     A
C121   Cl141   1.760   .     S
C121   N164    1.374   .     A
C121   C1167   1.433   1_554 S
C122   Cl142   1.759   .     S
C122   N163    1.373   .     A
C122   C646    1.428   .     S
C123   O174    1.390   .     S
C123   N163    1.376   .     A
C123   C643    1.433   .     S
C124   N164    1.376   .     A
C124   O166    1.388   .     S
C124   C1166   1.428   1_554 S
C125   C126    1.533   .     S
C125   H158    1.101   .     S
C125   O174    1.416   .     S
C125   H159    1.115   .     S
C126   H161    1.109   .     S
C126   H160    1.112   .     S
C127   H147    1.112   .     S
C127   H162    1.111   .     S
C127   H146    1.111   .     S
C127   C10     1.528   1_655 S
C128   O169    1.295   .     A
C128   O167    1.302   .     A
C129   H149    1.116   .     S
C129   H148    1.104   .     S
C129   C130    1.532   .     S
C129   O166    1.413   .     S
C130   H151    1.109   .     S
C130   C131    1.527   .     S
C130   H34     1.112   1_655 S
C131   H154    1.111   .     S
C131   H152    1.111   .     S
C131   H37     1.111   1_655 S
C132   O172    1.293   .     A
C132   O170    1.292   .     A
C132   C134    1.433   .     S
C133   O171    1.289   .     A
C133   C135    1.431   .     S
C133   O173    1.294   .     A
C135   C18     1.335   1_655 S
C135   H39     1.086   1_655 S
C136   Cl139   1.767   .     S
C136   C486    1.380   1_545 S
C137   Cl140   1.766   .     S
C137   C292    1.384   .     S
C138   H156    1.079   .     S
C138   C310    1.380   .     S
Cu143  O169    1.973   .     S
Cu143  O170    1.952   .     S
Cu143  O173    1.953   .     S
Cu143  N163    2.026   .     S
Cu143  Cu144   2.696   .     S
Cu143  O165    1.969   .     S
Cu144  O172    1.953   .     S
Cu144  O168    1.973   .     S
Cu144  O171    1.952   .     S
Cu144  O167    1.969   .     S
Cu144  N164    2.026   .     S
H145   C18     1.087   1_655 S
C175   C178    1.455   .     S
C175   O226    1.294   .     A
C175   O223    1.301   .     A
C176   C178    1.401   .     A
C176   H215    1.083   .     S
C177   C195    1.413   .     A
C177   C186    1.459   .     S
C177   C196    1.399   .     A
C178   C194    1.411   .     A
C179   Cl199   1.760   .     S
C179   N222    1.374   .     A
C179   C1225   1.433   1_554 S
C180   Cl200   1.759   .     S
C180   N221    1.373   .     A
C180   C704    1.428   .     S
C181   O232    1.390   .     S
C181   N221    1.376   .     A
C181   C701    1.433   .     S
C182   N222    1.376   .     A
C182   O224    1.388   .     S
C182   C1224   1.428   1_554 S
C183   C184    1.533   .     S
C183   H216    1.101   .     S
C183   O232    1.416   .     S
C183   H217    1.115   .     S
C184   H219    1.109   .     S
C184   H218    1.112   .     S
C184   C301    1.528   1_455 S
C185   H205    1.112   .     S
C185   H220    1.111   .     S
C185   H204    1.111   .     S
C185   C242    1.528   .     S
C186   O227    1.295   .     A
C186   O225    1.302   .     A
C187   H207    1.116   .     S
C187   H206    1.104   .     S
C187   C188    1.532   .     S
C187   O224    1.413   .     S
C188   H209    1.109   .     S
C188   C189    1.527   .     S
C188   H266    1.112   .     S
C189   H212    1.111   .     S
C189   H210    1.111   .     S
C189   H269    1.111   .     S
C190   O230    1.293   .     A
C190   O228    1.292   .     A
C190   C192    1.433   .     S
C191   O229    1.289   .     A
C191   C193    1.431   .     S
C191   O231    1.294   .     A
C192   C309    1.335   1_455 S
C192   H319    1.087   1_455 S
C193   C250    1.335   .     S
C193   H271    1.086   .     S
C194   Cl197   1.767   .     S
C195   Cl198   1.766   .     S
C195   C350    1.384   .     S
C196   H214    1.079   .     S
C196   C368    1.380   .     S
Cu201  O227    1.973   .     S
Cu201  O228    1.952   .     S
Cu201  O231    1.953   .     S
Cu201  N221    2.026   .     S
Cu201  Cu202   2.696   .     S
Cu201  O223    1.969   .     S
Cu202  O230    1.953   .     S
Cu202  O226    1.973   .     S
Cu202  O229    1.952   .     S
Cu202  O225    1.969   .     S
Cu202  N222    2.026   .     S
H203   C250    1.087   .     S
H208   C304    1.112   1_455 S
H211   C305    1.111   1_455 S
H213   C309    1.086   1_455 S
C233   C236    1.455   .     S
C233   O284    1.294   .     A
C233   O281    1.301   .     A
C234   C236    1.401   .     A
C234   H273    1.083   .     S
C235   C253    1.413   .     A
C235   C244    1.459   .     S
C235   C254    1.399   .     A
C236   C252    1.411   .     A
C237   Cl257   1.760   .     S
C237   N280    1.374   .     A
C237   C1283   1.433   1_554 S
C238   Cl258   1.759   .     S
C238   N279    1.373   .     A
C238   C762    1.428   .     S
C239   O290    1.390   .     S
C239   N279    1.376   .     A
C239   C759    1.433   .     S
C240   N280    1.376   .     A
C240   O282    1.388   .     S
C240   C1282   1.428   1_554 S
C241   C242    1.533   .     S
C241   H274    1.101   .     S
C241   O290    1.416   .     S
C241   H275    1.115   .     S
C242   H277    1.109   .     S
C242   H276    1.112   .     S
C243   H263    1.112   .     S
C243   H278    1.111   .     S
C243   H262    1.111   .     S
C243   C300    1.528   .     S
C244   O285    1.295   .     A
C244   O283    1.302   .     A
C245   H265    1.116   .     S
C245   H264    1.104   .     S
C245   C246    1.532   .     S
C245   O282    1.413   .     S
C246   H267    1.109   .     S
C246   C247    1.527   .     S
C246   H324    1.112   .     S
C247   H270    1.111   .     S
C247   H268    1.111   .     S
C247   H327    1.111   .     S
C248   O288    1.293   .     A
C248   O286    1.292   .     A
C248   C250    1.433   .     S
C249   O287    1.289   .     A
C249   C251    1.431   .     S
C249   O289    1.294   .     A
C251   C308    1.335   .     S
C251   H329    1.086   .     S
C252   Cl255   1.767   .     S
C253   Cl256   1.766   .     S
C253   C408    1.384   .     S
C254   H272    1.079   .     S
C254   C426    1.380   .     S
Cu259  O285    1.973   .     S
Cu259  O286    1.952   .     S
Cu259  O289    1.953   .     S
Cu259  N279    2.026   .     S
Cu259  Cu260   2.696   .     S
Cu259  O281    1.969   .     S
Cu260  O288    1.953   .     S
Cu260  O284    1.973   .     S
Cu260  O287    1.952   .     S
Cu260  O283    1.969   .     S
Cu260  N280    2.026   .     S
H261   C308    1.087   .     S
C291   C294    1.455   .     S
C291   O342    1.294   .     A
C291   O339    1.301   .     A
C292   C294    1.401   .     A
C292   H331    1.083   .     S
C293   C311    1.413   .     A
C293   C302    1.459   .     S
C293   C312    1.399   .     A
C294   C310    1.411   .     A
C295   Cl315   1.760   .     S
C295   N338    1.374   .     A
C295   C1341   1.433   1_554 S
C296   Cl316   1.759   .     S
C296   N337    1.373   .     A
C296   C820    1.428   .     S
C297   O348    1.390   .     S
C297   N337    1.376   .     A
C297   C817    1.433   .     S
C298   N338    1.376   .     A
C298   O340    1.388   .     S
C298   C1340   1.428   1_554 S
C299   C300    1.533   .     S
C299   H332    1.101   .     S
C299   O348    1.416   .     S
C299   H333    1.115   .     S
C300   H335    1.109   .     S
C300   H334    1.112   .     S
C301   H321    1.112   .     S
C301   H336    1.111   .     S
C301   H320    1.111   .     S
C301   C184    1.528   1_655 S
C302   O343    1.295   .     A
C302   O341    1.302   .     A
C303   H323    1.116   .     S
C303   H322    1.104   .     S
C303   C304    1.532   .     S
C303   O340    1.413   .     S
C304   H325    1.109   .     S
C304   C305    1.527   .     S
C304   H208    1.112   1_655 S
C305   H328    1.111   .     S
C305   H326    1.111   .     S
C305   H211    1.111   1_655 S
C306   O346    1.293   .     A
C306   O344    1.292   .     A
C306   C308    1.433   .     S
C307   O345    1.289   .     A
C307   C309    1.431   .     S
C307   O347    1.294   .     A
C309   C192    1.335   1_655 S
C309   H213    1.086   1_655 S
C310   Cl313   1.767   .     S
C311   Cl314   1.766   .     S
C311   C466    1.384   .     S
C312   H330    1.079   .     S
C312   C484    1.380   .     S
Cu317  O343    1.973   .     S
Cu317  O344    1.952   .     S
Cu317  O347    1.953   .     S
Cu317  N337    2.026   .     S
Cu317  Cu318   2.696   .     S
Cu317  O339    1.969   .     S
Cu318  O346    1.953   .     S
Cu318  O342    1.973   .     S
Cu318  O345    1.952   .     S
Cu318  O341    1.969   .     S
Cu318  N338    2.026   .     S
H319   C192    1.087   1_655 S
C349   C352    1.455   .     S
C349   O400    1.294   .     A
C349   O397    1.301   .     A
C350   C352    1.401   .     A
C350   H389    1.083   .     S
C351   C369    1.413   .     A
C351   C360    1.459   .     S
C351   C370    1.399   .     A
C352   C368    1.411   .     A
C353   Cl373   1.760   .     S
C353   N396    1.374   .     A
C353   C1399   1.433   1_554 S
C354   Cl374   1.759   .     S
C354   N395    1.373   .     A
C354   C878    1.428   .     S
C355   O406    1.390   .     S
C355   N395    1.376   .     A
C355   C875    1.433   .     S
C356   N396    1.376   .     A
C356   O398    1.388   .     S
C356   C1398   1.428   1_554 S
C357   C358    1.533   .     S
C357   H390    1.101   .     S
C357   O406    1.416   .     S
C357   H391    1.115   .     S
C358   H393    1.109   .     S
C358   H392    1.112   .     S
C358   C475    1.528   1_455 S
C359   H379    1.112   .     S
C359   H394    1.111   .     S
C359   H378    1.111   .     S
C359   C416    1.528   .     S
C360   O401    1.295   .     A
C360   O399    1.302   .     A
C361   H381    1.116   .     S
C361   H380    1.104   .     S
C361   C362    1.532   .     S
C361   O398    1.413   .     S
C362   H383    1.109   .     S
C362   C363    1.527   .     S
C362   H440    1.112   .     S
C363   H386    1.111   .     S
C363   H384    1.111   .     S
C363   H443    1.111   .     S
C364   O404    1.293   .     A
C364   O402    1.292   .     A
C364   C366    1.433   .     S
C365   O403    1.289   .     A
C365   C367    1.431   .     S
C365   O405    1.294   .     A
C366   C483    1.335   1_455 S
C366   H493    1.087   1_455 S
C367   C424    1.335   .     S
C367   H445    1.086   .     S
C368   Cl371   1.767   .     S
C369   Cl372   1.766   .     S
C369   C2      1.384   1_565 S
C370   H388    1.079   .     S
C370   C20     1.380   1_565 S
Cu375  O401    1.973   .     S
Cu375  O402    1.952   .     S
Cu375  O405    1.953   .     S
Cu375  N395    2.026   .     S
Cu375  Cu376   2.696   .     S
Cu375  O397    1.969   .     S
Cu376  O404    1.953   .     S
Cu376  O400    1.973   .     S
Cu376  O403    1.952   .     S
Cu376  O399    1.969   .     S
Cu376  N396    2.026   .     S
H377   C424    1.087   .     S
H382   C478    1.112   1_455 S
H385   C479    1.111   1_455 S
H387   C483    1.086   1_455 S
C407   C410    1.455   .     S
C407   O458    1.294   .     A
C407   O455    1.301   .     A
C408   C410    1.401   .     A
C408   H447    1.083   .     S
C409   C427    1.413   .     A
C409   C418    1.459   .     S
C409   C428    1.399   .     A
C410   C426    1.411   .     A
C411   Cl431   1.760   .     S
C411   N454    1.374   .     A
C411   C1457   1.433   1_554 S
C412   Cl432   1.759   .     S
C412   N453    1.373   .     A
C412   C936    1.428   .     S
C413   O464    1.390   .     S
C413   N453    1.376   .     A
C413   C933    1.433   .     S
C414   N454    1.376   .     A
C414   O456    1.388   .     S
C414   C1456   1.428   1_554 S
C415   C416    1.533   .     S
C415   H448    1.101   .     S
C415   O464    1.416   .     S
C415   H449    1.115   .     S
C416   H451    1.109   .     S
C416   H450    1.112   .     S
C417   H437    1.112   .     S
C417   H452    1.111   .     S
C417   H436    1.111   .     S
C417   C474    1.528   .     S
C418   O459    1.295   .     A
C418   O457    1.302   .     A
C419   H439    1.116   .     S
C419   H438    1.104   .     S
C419   C420    1.532   .     S
C419   O456    1.413   .     S
C420   H441    1.109   .     S
C420   C421    1.527   .     S
C420   H498    1.112   .     S
C421   H444    1.111   .     S
C421   H442    1.111   .     S
C421   H501    1.111   .     S
C422   O462    1.293   .     A
C422   O460    1.292   .     A
C422   C424    1.433   .     S
C423   O461    1.289   .     A
C423   C425    1.431   .     S
C423   O463    1.294   .     A
C425   C482    1.335   .     S
C425   H503    1.086   .     S
C426   Cl429   1.767   .     S
C427   Cl430   1.766   .     S
C427   C60     1.384   1_565 S
C428   H446    1.079   .     S
C428   C78     1.380   1_565 S
Cu433  O459    1.973   .     S
Cu433  O460    1.952   .     S
Cu433  O463    1.953   .     S
Cu433  N453    2.026   .     S
Cu433  Cu434   2.696   .     S
Cu433  O455    1.969   .     S
Cu434  O462    1.953   .     S
Cu434  O458    1.973   .     S
Cu434  O461    1.952   .     S
Cu434  O457    1.969   .     S
Cu434  N454    2.026   .     S
H435   C482    1.087   .     S
C465   C468    1.455   .     S
C465   O516    1.294   .     A
C465   O513    1.301   .     A
C466   C468    1.401   .     A
C466   H505    1.083   .     S
C467   C485    1.413   .     A
C467   C476    1.459   .     S
C467   C486    1.399   .     A
C468   C484    1.411   .     A
C469   Cl489   1.760   .     S
C469   N512    1.374   .     A
C469   C1515   1.433   1_554 S
C470   Cl490   1.759   .     S
C470   N511    1.373   .     A
C470   C994    1.428   .     S
C471   O522    1.390   .     S
C471   N511    1.376   .     A
C471   C991    1.433   .     S
C472   N512    1.376   .     A
C472   O514    1.388   .     S
C472   C1514   1.428   1_554 S
C473   C474    1.533   .     S
C473   H506    1.101   .     S
C473   O522    1.416   .     S
C473   H507    1.115   .     S
C474   H509    1.109   .     S
C474   H508    1.112   .     S
C475   H495    1.112   .     S
C475   H510    1.111   .     S
C475   H494    1.111   .     S
C475   C358    1.528   1_655 S
C476   O517    1.295   .     A
C476   O515    1.302   .     A
C477   H497    1.116   .     S
C477   H496    1.104   .     S
C477   C478    1.532   .     S
C477   O514    1.413   .     S
C478   H499    1.109   .     S
C478   C479    1.527   .     S
C478   H382    1.112   1_655 S
C479   H502    1.111   .     S
C479   H500    1.111   .     S
C479   H385    1.111   1_655 S
C480   O520    1.293   .     A
C480   O518    1.292   .     A
C480   C482    1.433   .     S
C481   O519    1.289   .     A
C481   C483    1.431   .     S
C481   O521    1.294   .     A
C483   C366    1.335   1_655 S
C483   H387    1.086   1_655 S
C484   Cl487   1.767   .     S
C485   Cl488   1.766   .     S
C485   C118    1.384   1_565 S
C486   H504    1.079   .     S
C486   C136    1.380   1_565 S
Cu491  O517    1.973   .     S
Cu491  O518    1.952   .     S
Cu491  O521    1.953   .     S
Cu491  N511    2.026   .     S
Cu491  Cu492   2.696   .     S
Cu491  O513    1.969   .     S
Cu492  O520    1.953   .     S
Cu492  O516    1.973   .     S
Cu492  O519    1.952   .     S
Cu492  O515    1.969   .     S
Cu492  N512    2.026   .     S
H493   C366    1.087   1_655 S
C523   C526    1.455   .     S
C523   O574    1.294   .     A
C523   O571    1.301   .     A
C524   C526    1.401   .     A
C524   H563    1.083   .     S
C524   C891    1.384   1_545 S
C525   C543    1.413   .     A
C525   C534    1.459   .     S
C525   C544    1.399   .     A
C526   C542    1.411   .     A
C527   Cl547   1.760   .     S
C527   N570    1.374   .     A
C528   Cl548   1.759   .     S
C528   N569    1.373   .     A
C528   C1052   1.428   .     S
C529   O580    1.390   .     S
C529   N569    1.376   .     A
C529   C1049   1.433   .     S
C530   N570    1.376   .     A
C530   O572    1.388   .     S
C531   C532    1.533   .     S
C531   H564    1.101   .     S
C531   O580    1.416   .     S
C531   H565    1.115   .     S
C532   H567    1.109   .     S
C532   H566    1.112   .     S
C532   C649    1.528   1_455 S
C533   H553    1.112   .     S
C533   H568    1.111   .     S
C533   H552    1.111   .     S
C533   C590    1.528   .     S
C534   O575    1.295   .     A
C534   O573    1.302   .     A
C535   H555    1.116   .     S
C535   H554    1.104   .     S
C535   C536    1.532   .     S
C535   O572    1.413   .     S
C536   H557    1.109   .     S
C536   C537    1.527   .     S
C536   H614    1.112   .     S
C537   H560    1.111   .     S
C537   H558    1.111   .     S
C537   H617    1.111   .     S
C538   O578    1.293   .     A
C538   O576    1.292   .     A
C538   C540    1.433   .     S
C539   O577    1.289   .     A
C539   C541    1.431   .     S
C539   O579    1.294   .     A
C540   C657    1.335   1_455 S
C540   H667    1.087   1_455 S
C541   C598    1.335   .     S
C541   H619    1.086   .     S
C542   Cl545   1.767   .     S
C542   C892    1.380   1_545 S
C543   Cl546   1.766   .     S
C543   C698    1.384   .     S
C544   H562    1.079   .     S
C544   C716    1.380   .     S
Cu549  O575    1.973   .     S
Cu549  O576    1.952   .     S
Cu549  O579    1.953   .     S
Cu549  N569    2.026   .     S
Cu549  Cu550   2.696   .     S
Cu549  O571    1.969   .     S
Cu550  O578    1.953   .     S
Cu550  O574    1.973   .     S
Cu550  O577    1.952   .     S
Cu550  O573    1.969   .     S
Cu550  N570    2.026   .     S
H551   C598    1.087   .     S
H556   C652    1.112   1_455 S
H559   C653    1.111   1_455 S
H561   C657    1.086   1_455 S
C581   C584    1.455   .     S
C581   O632    1.294   .     A
C581   O629    1.301   .     A
C582   C584    1.401   .     A
C582   H621    1.083   .     S
C582   C949    1.384   1_545 S
C583   C601    1.413   .     A
C583   C592    1.459   .     S
C583   C602    1.399   .     A
C584   C600    1.411   .     A
C585   Cl605   1.760   .     S
C585   N628    1.374   .     A
C586   Cl606   1.759   .     S
C586   N627    1.373   .     A
C586   C1110   1.428   .     S
C587   O638    1.390   .     S
C587   N627    1.376   .     A
C587   C1107   1.433   .     S
C588   N628    1.376   .     A
C588   O630    1.388   .     S
C589   C590    1.533   .     S
C589   H622    1.101   .     S
C589   O638    1.416   .     S
C589   H623    1.115   .     S
C590   H625    1.109   .     S
C590   H624    1.112   .     S
C591   H611    1.112   .     S
C591   H626    1.111   .     S
C591   H610    1.111   .     S
C591   C648    1.528   .     S
C592   O633    1.295   .     A
C592   O631    1.302   .     A
C593   H613    1.116   .     S
C593   H612    1.104   .     S
C593   C594    1.532   .     S
C593   O630    1.413   .     S
C594   H615    1.109   .     S
C594   C595    1.527   .     S
C594   H672    1.112   .     S
C595   H618    1.111   .     S
C595   H616    1.111   .     S
C595   H675    1.111   .     S
C596   O636    1.293   .     A
C596   O634    1.292   .     A
C596   C598    1.433   .     S
C597   O635    1.289   .     A
C597   C599    1.431   .     S
C597   O637    1.294   .     A
C599   C656    1.335   .     S
C599   H677    1.086   .     S
C600   Cl603   1.767   .     S
C600   C950    1.380   1_545 S
C601   Cl604   1.766   .     S
C601   C756    1.384   .     S
C602   H620    1.079   .     S
C602   C774    1.380   .     S
Cu607  O633    1.973   .     S
Cu607  O634    1.952   .     S
Cu607  O637    1.953   .     S
Cu607  N627    2.026   .     S
Cu607  Cu608   2.696   .     S
Cu607  O629    1.969   .     S
Cu608  O636    1.953   .     S
Cu608  O632    1.973   .     S
Cu608  O635    1.952   .     S
Cu608  O631    1.969   .     S
Cu608  N628    2.026   .     S
H609   C656    1.087   .     S
C639   C642    1.455   .     S
C639   O690    1.294   .     A
C639   O687    1.301   .     A
C640   C642    1.401   .     A
C640   H679    1.083   .     S
C640   C1007   1.384   1_545 S
C641   C659    1.413   .     A
C641   C650    1.459   .     S
C641   C660    1.399   .     A
C642   C658    1.411   .     A
C643   Cl663   1.760   .     S
C643   N686    1.374   .     A
C644   Cl664   1.759   .     S
C644   N685    1.373   .     A
C644   C1168   1.428   .     S
C645   O696    1.390   .     S
C645   N685    1.376   .     A
C645   C1165   1.433   .     S
C646   N686    1.376   .     A
C646   O688    1.388   .     S
C647   C648    1.533   .     S
C647   H680    1.101   .     S
C647   O696    1.416   .     S
C647   H681    1.115   .     S
C648   H683    1.109   .     S
C648   H682    1.112   .     S
C649   H669    1.112   .     S
C649   H684    1.111   .     S
C649   H668    1.111   .     S
C649   C532    1.528   1_655 S
C650   O691    1.295   .     A
C650   O689    1.302   .     A
C651   H671    1.116   .     S
C651   H670    1.104   .     S
C651   C652    1.532   .     S
C651   O688    1.413   .     S
C652   H673    1.109   .     S
C652   C653    1.527   .     S
C652   H556    1.112   1_655 S
C653   H676    1.111   .     S
C653   H674    1.111   .     S
C653   H559    1.111   1_655 S
C654   O694    1.293   .     A
C654   O692    1.292   .     A
C654   C656    1.433   .     S
C655   O693    1.289   .     A
C655   C657    1.431   .     S
C655   O695    1.294   .     A
C657   C540    1.335   1_655 S
C657   H561    1.086   1_655 S
C658   Cl661   1.767   .     S
C658   C1008   1.380   1_545 S
C659   Cl662   1.766   .     S
C659   C814    1.384   .     S
C660   H678    1.079   .     S
C660   C832    1.380   .     S
Cu665  O691    1.973   .     S
Cu665  O692    1.952   .     S
Cu665  O695    1.953   .     S
Cu665  N685    2.026   .     S
Cu665  Cu666   2.696   .     S
Cu665  O687    1.969   .     S
Cu666  O694    1.953   .     S
Cu666  O690    1.973   .     S
Cu666  O693    1.952   .     S
Cu666  O689    1.969   .     S
Cu666  N686    2.026   .     S
H667   C540    1.087   1_655 S
C697   C700    1.455   .     S
C697   O748    1.294   .     A
C697   O745    1.301   .     A
C698   C700    1.401   .     A
C698   H737    1.083   .     S
C699   C717    1.413   .     A
C699   C708    1.459   .     S
C699   C718    1.399   .     A
C700   C716    1.411   .     A
C701   Cl721   1.760   .     S
C701   N744    1.374   .     A
C702   Cl722   1.759   .     S
C702   N743    1.373   .     A
C702   C1226   1.428   .     S
C703   O754    1.390   .     S
C703   N743    1.376   .     A
C703   C1223   1.433   .     S
C704   N744    1.376   .     A
C704   O746    1.388   .     S
C705   C706    1.533   .     S
C705   H738    1.101   .     S
C705   O754    1.416   .     S
C705   H739    1.115   .     S
C706   H741    1.109   .     S
C706   H740    1.112   .     S
C706   C823    1.528   1_455 S
C707   H727    1.112   .     S
C707   H742    1.111   .     S
C707   H726    1.111   .     S
C707   C764    1.528   .     S
C708   O749    1.295   .     A
C708   O747    1.302   .     A
C709   H729    1.116   .     S
C709   H728    1.104   .     S
C709   C710    1.532   .     S
C709   O746    1.413   .     S
C710   H731    1.109   .     S
C710   C711    1.527   .     S
C710   H788    1.112   .     S
C711   H734    1.111   .     S
C711   H732    1.111   .     S
C711   H791    1.111   .     S
C712   O752    1.293   .     A
C712   O750    1.292   .     A
C712   C714    1.433   .     S
C713   O751    1.289   .     A
C713   C715    1.431   .     S
C713   O753    1.294   .     A
C714   C831    1.335   1_455 S
C714   H841    1.087   1_455 S
C715   C772    1.335   .     S
C715   H793    1.086   .     S
C716   Cl719   1.767   .     S
C717   Cl720   1.766   .     S
C717   C872    1.384   .     S
C718   H736    1.079   .     S
C718   C890    1.380   .     S
Cu723  O749    1.973   .     S
Cu723  O750    1.952   .     S
Cu723  O753    1.953   .     S
Cu723  N743    2.026   .     S
Cu723  Cu724   2.696   .     S
Cu723  O745    1.969   .     S
Cu724  O752    1.953   .     S
Cu724  O748    1.973   .     S
Cu724  O751    1.952   .     S
Cu724  O747    1.969   .     S
Cu724  N744    2.026   .     S
H725   C772    1.087   .     S
H730   C826    1.112   1_455 S
H733   C827    1.111   1_455 S
H735   C831    1.086   1_455 S
C755   C758    1.455   .     S
C755   O806    1.294   .     A
C755   O803    1.301   .     A
C756   C758    1.401   .     A
C756   H795    1.083   .     S
C757   C775    1.413   .     A
C757   C766    1.459   .     S
C757   C776    1.399   .     A
C758   C774    1.411   .     A
C759   Cl779   1.760   .     S
C759   N802    1.374   .     A
C760   Cl780   1.759   .     S
C760   N801    1.373   .     A
C760   C1284   1.428   .     S
C761   O812    1.390   .     S
C761   N801    1.376   .     A
C761   C1281   1.433   .     S
C762   N802    1.376   .     A
C762   O804    1.388   .     S
C763   C764    1.533   .     S
C763   H796    1.101   .     S
C763   O812    1.416   .     S
C763   H797    1.115   .     S
C764   H799    1.109   .     S
C764   H798    1.112   .     S
C765   H785    1.112   .     S
C765   H800    1.111   .     S
C765   H784    1.111   .     S
C765   C822    1.528   .     S
C766   O807    1.295   .     A
C766   O805    1.302   .     A
C767   H787    1.116   .     S
C767   H786    1.104   .     S
C767   C768    1.532   .     S
C767   O804    1.413   .     S
C768   H789    1.109   .     S
C768   C769    1.527   .     S
C768   H846    1.112   .     S
C769   H792    1.111   .     S
C769   H790    1.111   .     S
C769   H849    1.111   .     S
C770   O810    1.293   .     A
C770   O808    1.292   .     A
C770   C772    1.433   .     S
C771   O809    1.289   .     A
C771   C773    1.431   .     S
C771   O811    1.294   .     A
C773   C830    1.335   .     S
C773   H851    1.086   .     S
C774   Cl777   1.767   .     S
C775   Cl778   1.766   .     S
C775   C930    1.384   .     S
C776   H794    1.079   .     S
C776   C948    1.380   .     S
Cu781  O807    1.973   .     S
Cu781  O808    1.952   .     S
Cu781  O811    1.953   .     S
Cu781  N801    2.026   .     S
Cu781  Cu782   2.696   .     S
Cu781  O803    1.969   .     S
Cu782  O810    1.953   .     S
Cu782  O806    1.973   .     S
Cu782  O809    1.952   .     S
Cu782  O805    1.969   .     S
Cu782  N802    2.026   .     S
H783   C830    1.087   .     S
C813   C816    1.455   .     S
C813   O864    1.294   .     A
C813   O861    1.301   .     A
C814   C816    1.401   .     A
C814   H853    1.083   .     S
C815   C833    1.413   .     A
C815   C824    1.459   .     S
C815   C834    1.399   .     A
C816   C832    1.411   .     A
C817   Cl837   1.760   .     S
C817   N860    1.374   .     A
C818   Cl838   1.759   .     S
C818   N859    1.373   .     A
C818   C1342   1.428   .     S
C819   O870    1.390   .     S
C819   N859    1.376   .     A
C819   C1339   1.433   .     S
C820   N860    1.376   .     A
C820   O862    1.388   .     S
C821   C822    1.533   .     S
C821   H854    1.101   .     S
C821   O870    1.416   .     S
C821   H855    1.115   .     S
C822   H857    1.109   .     S
C822   H856    1.112   .     S
C823   H843    1.112   .     S
C823   H858    1.111   .     S
C823   H842    1.111   .     S
C823   C706    1.528   1_655 S
C824   O865    1.295   .     A
C824   O863    1.302   .     A
C825   H845    1.116   .     S
C825   H844    1.104   .     S
C825   C826    1.532   .     S
C825   O862    1.413   .     S
C826   H847    1.109   .     S
C826   C827    1.527   .     S
C826   H730    1.112   1_655 S
C827   H850    1.111   .     S
C827   H848    1.111   .     S
C827   H733    1.111   1_655 S
C828   O868    1.293   .     A
C828   O866    1.292   .     A
C828   C830    1.433   .     S
C829   O867    1.289   .     A
C829   C831    1.431   .     S
C829   O869    1.294   .     A
C831   C714    1.335   1_655 S
C831   H735    1.086   1_655 S
C832   Cl835   1.767   .     S
C833   Cl836   1.766   .     S
C833   C988    1.384   .     S
C834   H852    1.079   .     S
C834   C1006   1.380   .     S
Cu839  O865    1.973   .     S
Cu839  O866    1.952   .     S
Cu839  O869    1.953   .     S
Cu839  N859    2.026   .     S
Cu839  Cu840   2.696   .     S
Cu839  O861    1.969   .     S
Cu840  O868    1.953   .     S
Cu840  O864    1.973   .     S
Cu840  O867    1.952   .     S
Cu840  O863    1.969   .     S
Cu840  N860    2.026   .     S
H841   C714    1.087   1_655 S
C871   C874    1.455   .     S
C871   O922    1.294   .     A
C871   O919    1.301   .     A
C872   C874    1.401   .     A
C872   H911    1.083   .     S
C873   C891    1.413   .     A
C873   C882    1.459   .     S
C873   C892    1.399   .     A
C874   C890    1.411   .     A
C875   Cl895   1.760   .     S
C875   N918    1.374   .     A
C876   Cl896   1.759   .     S
C876   N917    1.373   .     A
C876   C1400   1.428   .     S
C877   O928    1.390   .     S
C877   N917    1.376   .     A
C877   C1397   1.433   .     S
C878   N918    1.376   .     A
C878   O920    1.388   .     S
C879   C880    1.533   .     S
C879   H912    1.101   .     S
C879   O928    1.416   .     S
C879   H913    1.115   .     S
C880   H915    1.109   .     S
C880   H914    1.112   .     S
C880   C997    1.528   1_455 S
C881   H901    1.112   .     S
C881   H916    1.111   .     S
C881   H900    1.111   .     S
C881   C938    1.528   .     S
C882   O923    1.295   .     A
C882   O921    1.302   .     A
C883   H903    1.116   .     S
C883   H902    1.104   .     S
C883   C884    1.532   .     S
C883   O920    1.413   .     S
C884   H905    1.109   .     S
C884   C885    1.527   .     S
C884   H962    1.112   .     S
C885   H908    1.111   .     S
C885   H906    1.111   .     S
C885   H965    1.111   .     S
C886   O926    1.293   .     A
C886   O924    1.292   .     A
C886   C888    1.433   .     S
C887   O925    1.289   .     A
C887   C889    1.431   .     S
C887   O927    1.294   .     A
C888   C1005   1.335   1_455 S
C888   H1015   1.087   1_455 S
C889   C946    1.335   .     S
C889   H967    1.086   .     S
C890   Cl893   1.767   .     S
C891   Cl894   1.766   .     S
C891   C524    1.384   1_565 S
C892   H910    1.079   .     S
C892   C542    1.380   1_565 S
Cu897  O923    1.973   .     S
Cu897  O924    1.952   .     S
Cu897  O927    1.953   .     S
Cu897  N917    2.026   .     S
Cu897  Cu898   2.696   .     S
Cu897  O919    1.969   .     S
Cu898  O926    1.953   .     S
Cu898  O922    1.973   .     S
Cu898  O925    1.952   .     S
Cu898  O921    1.969   .     S
Cu898  N918    2.026   .     S
H899   C946    1.087   .     S
H904   C1000   1.112   1_455 S
H907   C1001   1.111   1_455 S
H909   C1005   1.086   1_455 S
C929   C932    1.455   .     S
C929   O980    1.294   .     A
C929   O977    1.301   .     A
C930   C932    1.401   .     A
C930   H969    1.083   .     S
C931   C949    1.413   .     A
C931   C940    1.459   .     S
C931   C950    1.399   .     A
C932   C948    1.411   .     A
C933   Cl953   1.760   .     S
C933   N976    1.374   .     A
C934   Cl954   1.759   .     S
C934   N975    1.373   .     A
C934   C1458   1.428   .     S
C935   O986    1.390   .     S
C935   N975    1.376   .     A
C935   C1455   1.433   .     S
C936   N976    1.376   .     A
C936   O978    1.388   .     S
C937   C938    1.533   .     S
C937   H970    1.101   .     S
C937   O986    1.416   .     S
C937   H971    1.115   .     S
C938   H973    1.109   .     S
C938   H972    1.112   .     S
C939   H959    1.112   .     S
C939   H974    1.111   .     S
C939   H958    1.111   .     S
C939   C996    1.528   .     S
C940   O981    1.295   .     A
C940   O979    1.302   .     A
C941   H961    1.116   .     S
C941   H960    1.104   .     S
C941   C942    1.532   .     S
C941   O978    1.413   .     S
C942   H963    1.109   .     S
C942   C943    1.527   .     S
C942   H1020   1.112   .     S
C943   H966    1.111   .     S
C943   H964    1.111   .     S
C943   H1023   1.111   .     S
C944   O984    1.293   .     A
C944   O982    1.292   .     A
C944   C946    1.433   .     S
C945   O983    1.289   .     A
C945   C947    1.431   .     S
C945   O985    1.294   .     A
C947   C1004   1.335   .     S
C947   H1025   1.086   .     S
C948   Cl951   1.767   .     S
C949   Cl952   1.766   .     S
C949   C582    1.384   1_565 S
C950   H968    1.079   .     S
C950   C600    1.380   1_565 S
Cu955  O981    1.973   .     S
Cu955  O982    1.952   .     S
Cu955  O985    1.953   .     S
Cu955  N975    2.026   .     S
Cu955  Cu956   2.696   .     S
Cu955  O977    1.969   .     S
Cu956  O984    1.953   .     S
Cu956  O980    1.973   .     S
Cu956  O983    1.952   .     S
Cu956  O979    1.969   .     S
Cu956  N976    2.026   .     S
H957   C1004   1.087   .     S
C987   C990    1.455   .     S
C987   O1038   1.294   .     A
C987   O1035   1.301   .     A
C988   C990    1.401   .     A
C988   H1027   1.083   .     S
C989   C1007   1.413   .     A
C989   C998    1.459   .     S
C989   C1008   1.399   .     A
C990   C1006   1.411   .     A
C991   Cl1011  1.760   .     S
C991   N1034   1.374   .     A
C992   Cl1012  1.759   .     S
C992   N1033   1.373   .     A
C992   C1516   1.428   .     S
C993   O1044   1.390   .     S
C993   N1033   1.376   .     A
C993   C1513   1.433   .     S
C994   N1034   1.376   .     A
C994   O1036   1.388   .     S
C995   C996    1.533   .     S
C995   H1028   1.101   .     S
C995   O1044   1.416   .     S
C995   H1029   1.115   .     S
C996   H1031   1.109   .     S
C996   H1030   1.112   .     S
C997   H1017   1.112   .     S
C997   H1032   1.111   .     S
C997   H1016   1.111   .     S
C997   C880    1.528   1_655 S
C998   O1039   1.295   .     A
C998   O1037   1.302   .     A
C999   H1019   1.116   .     S
C999   H1018   1.104   .     S
C999   C1000   1.532   .     S
C999   O1036   1.413   .     S
C1000  H1021   1.109   .     S
C1000  C1001   1.527   .     S
C1000  H904    1.112   1_655 S
C1001  H1024   1.111   .     S
C1001  H1022   1.111   .     S
C1001  H907    1.111   1_655 S
C1002  O1042   1.293   .     A
C1002  O1040   1.292   .     A
C1002  C1004   1.433   .     S
C1003  O1041   1.289   .     A
C1003  C1005   1.431   .     S
C1003  O1043   1.294   .     A
C1005  C888    1.335   1_655 S
C1005  H909    1.086   1_655 S
C1006  Cl1009  1.767   .     S
C1007  Cl1010  1.766   .     S
C1007  C640    1.384   1_565 S
C1008  H1026   1.079   .     S
C1008  C658    1.380   1_565 S
Cu1013 O1039   1.973   .     S
Cu1013 O1040   1.952   .     S
Cu1013 O1043   1.953   .     S
Cu1013 N1033   2.026   .     S
Cu1013 Cu1014  2.696   .     S
Cu1013 O1035   1.969   .     S
Cu1014 O1042   1.953   .     S
Cu1014 O1038   1.973   .     S
Cu1014 O1041   1.952   .     S
Cu1014 O1037   1.969   .     S
Cu1014 N1034   2.026   .     S
H1015  C888    1.087   1_655 S
C1045  C1048   1.455   .     S
C1045  O1096   1.294   .     A
C1045  O1093   1.301   .     A
C1046  C1048   1.401   .     A
C1046  H1085   1.083   .     S
C1046  C1413   1.384   1_545 S
C1047  C1065   1.413   .     A
C1047  C1056   1.459   .     S
C1047  C1066   1.399   .     A
C1048  C1064   1.411   .     A
C1049  Cl1069  1.760   .     S
C1049  N1092   1.374   .     A
C1050  Cl1070  1.759   .     S
C1050  N1091   1.373   .     A
C1050  C8      1.428   1_556 S
C1051  O1102   1.390   .     S
C1051  N1091   1.376   .     A
C1051  C5      1.433   1_556 S
C1052  N1092   1.376   .     A
C1052  O1094   1.388   .     S
C1053  C1054   1.533   .     S
C1053  H1086   1.101   .     S
C1053  O1102   1.416   .     S
C1053  H1087   1.115   .     S
C1054  H1089   1.109   .     S
C1054  H1088   1.112   .     S
C1054  C1171   1.528   1_455 S
C1055  H1075   1.112   .     S
C1055  H1090   1.111   .     S
C1055  H1074   1.111   .     S
C1055  C1112   1.528   .     S
C1056  O1097   1.295   .     A
C1056  O1095   1.302   .     A
C1057  H1077   1.116   .     S
C1057  H1076   1.104   .     S
C1057  C1058   1.532   .     S
C1057  O1094   1.413   .     S
C1058  H1079   1.109   .     S
C1058  C1059   1.527   .     S
C1058  H1136   1.112   .     S
C1059  H1082   1.111   .     S
C1059  H1080   1.111   .     S
C1059  H1139   1.111   .     S
C1060  O1100   1.293   .     A
C1060  O1098   1.292   .     A
C1060  C1062   1.433   .     S
C1061  O1099   1.289   .     A
C1061  C1063   1.431   .     S
C1061  O1101   1.294   .     A
C1062  C1179   1.335   1_455 S
C1062  H1189   1.087   1_455 S
C1063  C1120   1.335   .     S
C1063  H1141   1.086   .     S
C1064  Cl1067  1.767   .     S
C1064  C1414   1.380   1_545 S
C1065  Cl1068  1.766   .     S
C1065  C1220   1.384   .     S
C1066  H1084   1.079   .     S
C1066  C1238   1.380   .     S
Cu1071 O1097   1.973   .     S
Cu1071 O1098   1.952   .     S
Cu1071 O1101   1.953   .     S
Cu1071 N1091   2.026   .     S
Cu1071 Cu1072  2.696   .     S
Cu1071 O1093   1.969   .     S
Cu1072 O1100   1.953   .     S
Cu1072 O1096   1.973   .     S
Cu1072 O1099   1.952   .     S
Cu1072 O1095   1.969   .     S
Cu1072 N1092   2.026   .     S
H1073  C1120   1.087   .     S
H1078  C1174   1.112   1_455 S
H1081  C1175   1.111   1_455 S
H1083  C1179   1.086   1_455 S
C1103  C1106   1.455   .     S
C1103  O1154   1.294   .     A
C1103  O1151   1.301   .     A
C1104  C1106   1.401   .     A
C1104  H1143   1.083   .     S
C1104  C1471   1.384   1_545 S
C1105  C1123   1.413   .     A
C1105  C1114   1.459   .     S
C1105  C1124   1.399   .     A
C1106  C1122   1.411   .     A
C1107  Cl1127  1.760   .     S
C1107  N1150   1.374   .     A
C1108  Cl1128  1.759   .     S
C1108  N1149   1.373   .     A
C1108  C66     1.428   1_556 S
C1109  O1160   1.390   .     S
C1109  N1149   1.376   .     A
C1109  C63     1.433   1_556 S
C1110  N1150   1.376   .     A
C1110  O1152   1.388   .     S
C1111  C1112   1.533   .     S
C1111  H1144   1.101   .     S
C1111  O1160   1.416   .     S
C1111  H1145   1.115   .     S
C1112  H1147   1.109   .     S
C1112  H1146   1.112   .     S
C1113  H1133   1.112   .     S
C1113  H1148   1.111   .     S
C1113  H1132   1.111   .     S
C1113  C1170   1.528   .     S
C1114  O1155   1.295   .     A
C1114  O1153   1.302   .     A
C1115  H1135   1.116   .     S
C1115  H1134   1.104   .     S
C1115  C1116   1.532   .     S
C1115  O1152   1.413   .     S
C1116  H1137   1.109   .     S
C1116  C1117   1.527   .     S
C1116  H1194   1.112   .     S
C1117  H1140   1.111   .     S
C1117  H1138   1.111   .     S
C1117  H1197   1.111   .     S
C1118  O1158   1.293   .     A
C1118  O1156   1.292   .     A
C1118  C1120   1.433   .     S
C1119  O1157   1.289   .     A
C1119  C1121   1.431   .     S
C1119  O1159   1.294   .     A
C1121  C1178   1.335   .     S
C1121  H1199   1.086   .     S
C1122  Cl1125  1.767   .     S
C1122  C1472   1.380   1_545 S
C1123  Cl1126  1.766   .     S
C1123  C1278   1.384   .     S
C1124  H1142   1.079   .     S
C1124  C1296   1.380   .     S
Cu1129 O1155   1.973   .     S
Cu1129 O1156   1.952   .     S
Cu1129 O1159   1.953   .     S
Cu1129 N1149   2.026   .     S
Cu1129 Cu1130  2.696   .     S
Cu1129 O1151   1.969   .     S
Cu1130 O1158   1.953   .     S
Cu1130 O1154   1.973   .     S
Cu1130 O1157   1.952   .     S
Cu1130 O1153   1.969   .     S
Cu1130 N1150   2.026   .     S
H1131  C1178   1.087   .     S
C1161  C1164   1.455   .     S
C1161  O1212   1.294   .     A
C1161  O1209   1.301   .     A
C1162  C1164   1.401   .     A
C1162  H1201   1.083   .     S
C1162  C1529   1.384   1_545 S
C1163  C1181   1.413   .     A
C1163  C1172   1.459   .     S
C1163  C1182   1.399   .     A
C1164  C1180   1.411   .     A
C1165  Cl1185  1.760   .     S
C1165  N1208   1.374   .     A
C1166  Cl1186  1.759   .     S
C1166  N1207   1.373   .     A
C1166  C124    1.428   1_556 S
C1167  O1218   1.390   .     S
C1167  N1207   1.376   .     A
C1167  C121    1.433   1_556 S
C1168  N1208   1.376   .     A
C1168  O1210   1.388   .     S
C1169  C1170   1.533   .     S
C1169  H1202   1.101   .     S
C1169  O1218   1.416   .     S
C1169  H1203   1.115   .     S
C1170  H1205   1.109   .     S
C1170  H1204   1.112   .     S
C1171  H1191   1.112   .     S
C1171  H1206   1.111   .     S
C1171  H1190   1.111   .     S
C1171  C1054   1.528   1_655 S
C1172  O1213   1.295   .     A
C1172  O1211   1.302   .     A
C1173  H1193   1.116   .     S
C1173  H1192   1.104   .     S
C1173  C1174   1.532   .     S
C1173  O1210   1.413   .     S
C1174  H1195   1.109   .     S
C1174  C1175   1.527   .     S
C1174  H1078   1.112   1_655 S
C1175  H1198   1.111   .     S
C1175  H1196   1.111   .     S
C1175  H1081   1.111   1_655 S
C1176  O1216   1.293   .     A
C1176  O1214   1.292   .     A
C1176  C1178   1.433   .     S
C1177  O1215   1.289   .     A
C1177  C1179   1.431   .     S
C1177  O1217   1.294   .     A
C1179  C1062   1.335   1_655 S
C1179  H1083   1.086   1_655 S
C1180  Cl1183  1.767   .     S
C1180  C1530   1.380   1_545 S
C1181  Cl1184  1.766   .     S
C1181  C1336   1.384   .     S
C1182  H1200   1.079   .     S
C1182  C1354   1.380   .     S
Cu1187 O1213   1.973   .     S
Cu1187 O1214   1.952   .     S
Cu1187 O1217   1.953   .     S
Cu1187 N1207   2.026   .     S
Cu1187 Cu1188  2.696   .     S
Cu1187 O1209   1.969   .     S
Cu1188 O1216   1.953   .     S
Cu1188 O1212   1.973   .     S
Cu1188 O1215   1.952   .     S
Cu1188 O1211   1.969   .     S
Cu1188 N1208   2.026   .     S
H1189  C1062   1.087   1_655 S
C1219  C1222   1.455   .     S
C1219  O1270   1.294   .     A
C1219  O1267   1.301   .     A
C1220  C1222   1.401   .     A
C1220  H1259   1.083   .     S
C1221  C1239   1.413   .     A
C1221  C1230   1.459   .     S
C1221  C1240   1.399   .     A
C1222  C1238   1.411   .     A
C1223  Cl1243  1.760   .     S
C1223  N1266   1.374   .     A
C1224  Cl1244  1.759   .     S
C1224  N1265   1.373   .     A
C1224  C182    1.428   1_556 S
C1225  O1276   1.390   .     S
C1225  N1265   1.376   .     A
C1225  C179    1.433   1_556 S
C1226  N1266   1.376   .     A
C1226  O1268   1.388   .     S
C1227  C1228   1.533   .     S
C1227  H1260   1.101   .     S
C1227  O1276   1.416   .     S
C1227  H1261   1.115   .     S
C1228  H1263   1.109   .     S
C1228  H1262   1.112   .     S
C1228  C1345   1.528   1_455 S
C1229  H1249   1.112   .     S
C1229  H1264   1.111   .     S
C1229  H1248   1.111   .     S
C1229  C1286   1.528   .     S
C1230  O1271   1.295   .     A
C1230  O1269   1.302   .     A
C1231  H1251   1.116   .     S
C1231  H1250   1.104   .     S
C1231  C1232   1.532   .     S
C1231  O1268   1.413   .     S
C1232  H1253   1.109   .     S
C1232  C1233   1.527   .     S
C1232  H1310   1.112   .     S
C1233  H1256   1.111   .     S
C1233  H1254   1.111   .     S
C1233  H1313   1.111   .     S
C1234  O1274   1.293   .     A
C1234  O1272   1.292   .     A
C1234  C1236   1.433   .     S
C1235  O1273   1.289   .     A
C1235  C1237   1.431   .     S
C1235  O1275   1.294   .     A
C1236  C1353   1.335   1_455 S
C1236  H1363   1.087   1_455 S
C1237  C1294   1.335   .     S
C1237  H1315   1.086   .     S
C1238  Cl1241  1.767   .     S
C1239  Cl1242  1.766   .     S
C1239  C1394   1.384   .     S
C1240  H1258   1.079   .     S
C1240  C1412   1.380   .     S
Cu1245 O1271   1.973   .     S
Cu1245 O1272   1.952   .     S
Cu1245 O1275   1.953   .     S
Cu1245 N1265   2.026   .     S
Cu1245 Cu1246  2.696   .     S
Cu1245 O1267   1.969   .     S
Cu1246 O1274   1.953   .     S
Cu1246 O1270   1.973   .     S
Cu1246 O1273   1.952   .     S
Cu1246 O1269   1.969   .     S
Cu1246 N1266   2.026   .     S
H1247  C1294   1.087   .     S
H1252  C1348   1.112   1_455 S
H1255  C1349   1.111   1_455 S
H1257  C1353   1.086   1_455 S
C1277  C1280   1.455   .     S
C1277  O1328   1.294   .     A
C1277  O1325   1.301   .     A
C1278  C1280   1.401   .     A
C1278  H1317   1.083   .     S
C1279  C1297   1.413   .     A
C1279  C1288   1.459   .     S
C1279  C1298   1.399   .     A
C1280  C1296   1.411   .     A
C1281  Cl1301  1.760   .     S
C1281  N1324   1.374   .     A
C1282  Cl1302  1.759   .     S
C1282  N1323   1.373   .     A
C1282  C240    1.428   1_556 S
C1283  O1334   1.390   .     S
C1283  N1323   1.376   .     A
C1283  C237    1.433   1_556 S
C1284  N1324   1.376   .     A
C1284  O1326   1.388   .     S
C1285  C1286   1.533   .     S
C1285  H1318   1.101   .     S
C1285  O1334   1.416   .     S
C1285  H1319   1.115   .     S
C1286  H1321   1.109   .     S
C1286  H1320   1.112   .     S
C1287  H1307   1.112   .     S
C1287  H1322   1.111   .     S
C1287  H1306   1.111   .     S
C1287  C1344   1.528   .     S
C1288  O1329   1.295   .     A
C1288  O1327   1.302   .     A
C1289  H1309   1.116   .     S
C1289  H1308   1.104   .     S
C1289  C1290   1.532   .     S
C1289  O1326   1.413   .     S
C1290  H1311   1.109   .     S
C1290  C1291   1.527   .     S
C1290  H1368   1.112   .     S
C1291  H1314   1.111   .     S
C1291  H1312   1.111   .     S
C1291  H1371   1.111   .     S
C1292  O1332   1.293   .     A
C1292  O1330   1.292   .     A
C1292  C1294   1.433   .     S
C1293  O1331   1.289   .     A
C1293  C1295   1.431   .     S
C1293  O1333   1.294   .     A
C1295  C1352   1.335   .     S
C1295  H1373   1.086   .     S
C1296  Cl1299  1.767   .     S
C1297  Cl1300  1.766   .     S
C1297  C1452   1.384   .     S
C1298  H1316   1.079   .     S
C1298  C1470   1.380   .     S
Cu1303 O1329   1.973   .     S
Cu1303 O1330   1.952   .     S
Cu1303 O1333   1.953   .     S
Cu1303 N1323   2.026   .     S
Cu1303 Cu1304  2.696   .     S
Cu1303 O1325   1.969   .     S
Cu1304 O1332   1.953   .     S
Cu1304 O1328   1.973   .     S
Cu1304 O1331   1.952   .     S
Cu1304 O1327   1.969   .     S
Cu1304 N1324   2.026   .     S
H1305  C1352   1.087   .     S
C1335  C1338   1.455   .     S
C1335  O1386   1.294   .     A
C1335  O1383   1.301   .     A
C1336  C1338   1.401   .     A
C1336  H1375   1.083   .     S
C1337  C1355   1.413   .     A
C1337  C1346   1.459   .     S
C1337  C1356   1.399   .     A
C1338  C1354   1.411   .     A
C1339  Cl1359  1.760   .     S
C1339  N1382   1.374   .     A
C1340  Cl1360  1.759   .     S
C1340  N1381   1.373   .     A
C1340  C298    1.428   1_556 S
C1341  O1392   1.390   .     S
C1341  N1381   1.376   .     A
C1341  C295    1.433   1_556 S
C1342  N1382   1.376   .     A
C1342  O1384   1.388   .     S
C1343  C1344   1.533   .     S
C1343  H1376   1.101   .     S
C1343  O1392   1.416   .     S
C1343  H1377   1.115   .     S
C1344  H1379   1.109   .     S
C1344  H1378   1.112   .     S
C1345  H1365   1.112   .     S
C1345  H1380   1.111   .     S
C1345  H1364   1.111   .     S
C1345  C1228   1.528   1_655 S
C1346  O1387   1.295   .     A
C1346  O1385   1.302   .     A
C1347  H1367   1.116   .     S
C1347  H1366   1.104   .     S
C1347  C1348   1.532   .     S
C1347  O1384   1.413   .     S
C1348  H1369   1.109   .     S
C1348  C1349   1.527   .     S
C1348  H1252   1.112   1_655 S
C1349  H1372   1.111   .     S
C1349  H1370   1.111   .     S
C1349  H1255   1.111   1_655 S
C1350  O1390   1.293   .     A
C1350  O1388   1.292   .     A
C1350  C1352   1.433   .     S
C1351  O1389   1.289   .     A
C1351  C1353   1.431   .     S
C1351  O1391   1.294   .     A
C1353  C1236   1.335   1_655 S
C1353  H1257   1.086   1_655 S
C1354  Cl1357  1.767   .     S
C1355  Cl1358  1.766   .     S
C1355  C1510   1.384   .     S
C1356  H1374   1.079   .     S
C1356  C1528   1.380   .     S
Cu1361 O1387   1.973   .     S
Cu1361 O1388   1.952   .     S
Cu1361 O1391   1.953   .     S
Cu1361 N1381   2.026   .     S
Cu1361 Cu1362  2.696   .     S
Cu1361 O1383   1.969   .     S
Cu1362 O1390   1.953   .     S
Cu1362 O1386   1.973   .     S
Cu1362 O1389   1.952   .     S
Cu1362 O1385   1.969   .     S
Cu1362 N1382   2.026   .     S
H1363  C1236   1.087   1_655 S
C1393  C1396   1.455   .     S
C1393  O1444   1.294   .     A
C1393  O1441   1.301   .     A
C1394  C1396   1.401   .     A
C1394  H1433   1.083   .     S
C1395  C1413   1.413   .     A
C1395  C1404   1.459   .     S
C1395  C1414   1.399   .     A
C1396  C1412   1.411   .     A
C1397  Cl1417  1.760   .     S
C1397  N1440   1.374   .     A
C1398  Cl1418  1.759   .     S
C1398  N1439   1.373   .     A
C1398  C356    1.428   1_556 S
C1399  O1450   1.390   .     S
C1399  N1439   1.376   .     A
C1399  C353    1.433   1_556 S
C1400  N1440   1.376   .     A
C1400  O1442   1.388   .     S
C1401  C1402   1.533   .     S
C1401  H1434   1.101   .     S
C1401  O1450   1.416   .     S
C1401  H1435   1.115   .     S
C1402  H1437   1.109   .     S
C1402  H1436   1.112   .     S
C1402  C1519   1.528   1_455 S
C1403  H1423   1.112   .     S
C1403  H1438   1.111   .     S
C1403  H1422   1.111   .     S
C1403  C1460   1.528   .     S
C1404  O1445   1.295   .     A
C1404  O1443   1.302   .     A
C1405  H1425   1.116   .     S
C1405  H1424   1.104   .     S
C1405  C1406   1.532   .     S
C1405  O1442   1.413   .     S
C1406  H1427   1.109   .     S
C1406  C1407   1.527   .     S
C1406  H1484   1.112   .     S
C1407  H1430   1.111   .     S
C1407  H1428   1.111   .     S
C1407  H1487   1.111   .     S
C1408  O1448   1.293   .     A
C1408  O1446   1.292   .     A
C1408  C1410   1.433   .     S
C1409  O1447   1.289   .     A
C1409  C1411   1.431   .     S
C1409  O1449   1.294   .     A
C1410  C1527   1.335   1_455 S
C1410  H1537   1.087   1_455 S
C1411  C1468   1.335   .     S
C1411  H1489   1.086   .     S
C1412  Cl1415  1.767   .     S
C1413  Cl1416  1.766   .     S
C1413  C1046   1.384   1_565 S
C1414  H1432   1.079   .     S
C1414  C1064   1.380   1_565 S
Cu1419 O1445   1.973   .     S
Cu1419 O1446   1.952   .     S
Cu1419 O1449   1.953   .     S
Cu1419 N1439   2.026   .     S
Cu1419 Cu1420  2.696   .     S
Cu1419 O1441   1.969   .     S
Cu1420 O1448   1.953   .     S
Cu1420 O1444   1.973   .     S
Cu1420 O1447   1.952   .     S
Cu1420 O1443   1.969   .     S
Cu1420 N1440   2.026   .     S
H1421  C1468   1.087   .     S
H1426  C1522   1.112   1_455 S
H1429  C1523   1.111   1_455 S
H1431  C1527   1.086   1_455 S
C1451  C1454   1.455   .     S
C1451  O1502   1.294   .     A
C1451  O1499   1.301   .     A
C1452  C1454   1.401   .     A
C1452  H1491   1.083   .     S
C1453  C1471   1.413   .     A
C1453  C1462   1.459   .     S
C1453  C1472   1.399   .     A
C1454  C1470   1.411   .     A
C1455  Cl1475  1.760   .     S
C1455  N1498   1.374   .     A
C1456  Cl1476  1.759   .     S
C1456  N1497   1.373   .     A
C1456  C414    1.428   1_556 S
C1457  O1508   1.390   .     S
C1457  N1497   1.376   .     A
C1457  C411    1.433   1_556 S
C1458  N1498   1.376   .     A
C1458  O1500   1.388   .     S
C1459  C1460   1.533   .     S
C1459  H1492   1.101   .     S
C1459  O1508   1.416   .     S
C1459  H1493   1.115   .     S
C1460  H1495   1.109   .     S
C1460  H1494   1.112   .     S
C1461  H1481   1.112   .     S
C1461  H1496   1.111   .     S
C1461  H1480   1.111   .     S
C1461  C1518   1.528   .     S
C1462  O1503   1.295   .     A
C1462  O1501   1.302   .     A
C1463  H1483   1.116   .     S
C1463  H1482   1.104   .     S
C1463  C1464   1.532   .     S
C1463  O1500   1.413   .     S
C1464  H1485   1.109   .     S
C1464  C1465   1.527   .     S
C1464  H1542   1.112   .     S
C1465  H1488   1.111   .     S
C1465  H1486   1.111   .     S
C1465  H1545   1.111   .     S
C1466  O1506   1.293   .     A
C1466  O1504   1.292   .     A
C1466  C1468   1.433   .     S
C1467  O1505   1.289   .     A
C1467  C1469   1.431   .     S
C1467  O1507   1.294   .     A
C1469  C1526   1.335   .     S
C1469  H1547   1.086   .     S
C1470  Cl1473  1.767   .     S
C1471  Cl1474  1.766   .     S
C1471  C1104   1.384   1_565 S
C1472  H1490   1.079   .     S
C1472  C1122   1.380   1_565 S
Cu1477 O1503   1.973   .     S
Cu1477 O1504   1.952   .     S
Cu1477 O1507   1.953   .     S
Cu1477 N1497   2.026   .     S
Cu1477 Cu1478  2.696   .     S
Cu1477 O1499   1.969   .     S
Cu1478 O1506   1.953   .     S
Cu1478 O1502   1.973   .     S
Cu1478 O1505   1.952   .     S
Cu1478 O1501   1.969   .     S
Cu1478 N1498   2.026   .     S
H1479  C1526   1.087   .     S
C1509  C1512   1.455   .     S
C1509  O1560   1.294   .     A
C1509  O1557   1.301   .     A
C1510  C1512   1.401   .     A
C1510  H1549   1.083   .     S
C1511  C1529   1.413   .     A
C1511  C1520   1.459   .     S
C1511  C1530   1.399   .     A
C1512  C1528   1.411   .     A
C1513  Cl1533  1.760   .     S
C1513  N1556   1.374   .     A
C1514  Cl1534  1.759   .     S
C1514  N1555   1.373   .     A
C1514  C472    1.428   1_556 S
C1515  O1566   1.390   .     S
C1515  N1555   1.376   .     A
C1515  C469    1.433   1_556 S
C1516  N1556   1.376   .     A
C1516  O1558   1.388   .     S
C1517  C1518   1.533   .     S
C1517  H1550   1.101   .     S
C1517  O1566   1.416   .     S
C1517  H1551   1.115   .     S
C1518  H1553   1.109   .     S
C1518  H1552   1.112   .     S
C1519  H1539   1.112   .     S
C1519  H1554   1.111   .     S
C1519  H1538   1.111   .     S
C1519  C1402   1.528   1_655 S
C1520  O1561   1.295   .     A
C1520  O1559   1.302   .     A
C1521  H1541   1.116   .     S
C1521  H1540   1.104   .     S
C1521  C1522   1.532   .     S
C1521  O1558   1.413   .     S
C1522  H1543   1.109   .     S
C1522  C1523   1.527   .     S
C1522  H1426   1.112   1_655 S
C1523  H1546   1.111   .     S
C1523  H1544   1.111   .     S
C1523  H1429   1.111   1_655 S
C1524  O1564   1.293   .     A
C1524  O1562   1.292   .     A
C1524  C1526   1.433   .     S
C1525  O1563   1.289   .     A
C1525  C1527   1.431   .     S
C1525  O1565   1.294   .     A
C1527  C1410   1.335   1_655 S
C1527  H1431   1.086   1_655 S
C1528  Cl1531  1.767   .     S
C1529  Cl1532  1.766   .     S
C1529  C1162   1.384   1_565 S
C1530  H1548   1.079   .     S
C1530  C1180   1.380   1_565 S
Cu1535 O1561   1.973   .     S
Cu1535 O1562   1.952   .     S
Cu1535 O1565   1.953   .     S
Cu1535 N1555   2.026   .     S
Cu1535 Cu1536  2.696   .     S
Cu1535 O1557   1.969   .     S
Cu1536 O1564   1.953   .     S
Cu1536 O1560   1.973   .     S
Cu1536 O1563   1.952   .     S
Cu1536 O1559   1.969   .     S
Cu1536 N1556   2.026   .     S
H1537  C1410   1.087   1_655 S
