data_str_m3_o1_o1_pcu_sym.67
_audit_creation_date              2020-01-03
_audit_creation_method            'Materials Studio'
_symmetry_space_group_name_H-M    'P1'
_symmetry_Int_Tables_number       1
_symmetry_cell_setting            triclinic
loop_
_symmetry_equiv_pos_as_xyz
  x,y,z
_cell_length_a                    30.0730
_cell_length_b                    29.9833
_cell_length_c                    29.7920
_cell_angle_alpha                 89.9319
_cell_angle_beta                  90.0774
_cell_angle_gamma                 89.9643
loop_
_atom_site_label
_atom_site_type_symbol
_atom_site_fract_x
_atom_site_fract_y
_atom_site_fract_z
_atom_site_U_iso_or_equiv
_atom_site_adp_type
_atom_site_occupancy
C1     C     0.06000   0.19036   0.16672   0.00000  Uiso   1.00
C2     C     0.49758   0.21078   0.30928   0.00000  Uiso   1.00
C3     C     0.00051   0.21072   0.02417   0.00000  Uiso   1.00
C4     C     0.00242   0.28922   0.30919   0.00000  Uiso   1.00
C5     C     0.26836   0.03452   0.02398   0.00000  Uiso   1.00
C6     C     0.22814   0.46754   0.30964   0.00000  Uiso   1.00
C7     C     0.23155   0.46554   0.02401   0.00000  Uiso   1.00
C8     C     0.27179   0.03252   0.30962   0.00000  Uiso   1.00
C9     C     0.41533   0.11743   0.14346   0.00000  Uiso   1.00
C10    C     0.13220   0.33466   0.19051   0.00000  Uiso   1.00
C11    C     0.08510   0.38217   0.14249   0.00000  Uiso   1.00
C12    C     0.44069   0.31029   0.16663   0.00000  Uiso   1.00
C13    C     0.36753   0.16565   0.18977   0.00000  Uiso   1.00
C14    C     0.13628   0.16850   0.14991   0.00000  Uiso   1.00
C15    C     0.36576   0.33254   0.15203   0.00000  Uiso   1.00
C16    C     0.41948   0.38723   0.18192   0.00000  Uiso   1.00
C17    C     0.08274   0.11578   0.18387   0.00000  Uiso   1.00
C18    C     0.11890   0.41387   0.14055   0.00000  Uiso   1.00
C19    C     0.33550   0.13210   0.19140   0.00000  Uiso   1.00
C20    C     0.38148   0.08577   0.14132   0.00000  Uiso   1.00
C21    C     0.16426   0.36816   0.19201   0.00000  Uiso   1.00
C22    C     0.38681   0.41946   0.18238   0.00000  Uiso   1.00
C23    C     0.44022   0.19012   0.16668   0.00000  Uiso   1.00
C24    C     0.11576   0.08312   0.18530   0.00000  Uiso   1.00
C25    C     0.16822   0.13498   0.14925   0.00000  Uiso   1.00
C26    C     0.33311   0.36556   0.15095   0.00000  Uiso   1.00
C27    C     0.09296   0.34294   0.16666   0.00000  Uiso   1.00
C28    C     0.40707   0.15704   0.16671   0.00000  Uiso   1.00
C29    C     0.40844   0.34422   0.16645   0.00000  Uiso   1.00
C30    C     0.09384   0.15795   0.16706   0.00000  Uiso   1.00
C31    C     0.34288   0.09325   0.16648   0.00000  Uiso   1.00
C32    C     0.15715   0.40673   0.16645   0.00000  Uiso   1.00
C33    C     0.15713   0.09312   0.16660   0.00000  Uiso   1.00
C34    C     0.05978   0.30989   0.16667   0.00000  Uiso   1.00
C35    C     0.34397   0.40806   0.16687   0.00000  Uiso   1.00
C36    C     0.45674   0.34943   0.04176   0.00000  Uiso   1.00
C37    C     0.45218   0.15244   0.29193   0.00000  Uiso   1.00
C38    C     0.04328   0.15055   0.04205   0.00000  Uiso   1.00
C39    C     0.04777   0.34759   0.29181   0.00000  Uiso   1.00
C40    C     0.25700   0.10683   0.04270   0.00000  Uiso   1.00
C41    C     0.15848   0.44493   0.29181   0.00000  Uiso   1.00
C42    C     0.24236   0.39318   0.04309   0.00000  Uiso   1.00
C43    C     0.34129   0.05564   0.29193   0.00000  Uiso   1.00
C44    C     0.31000   0.44034   0.16672   0.00000  Uiso   1.00
C45    C     0.19005   0.05973   0.16664   0.00000  Uiso   1.00
C46    C     0.19023   0.44002   0.16663   0.00000  Uiso   1.00
C47    C     0.30976   0.05999   0.16663   0.00000  Uiso   1.00
C48    C     0.49950   0.28928   0.02407   0.00000  Uiso   1.00
H49    H     0.45314   0.37612   0.06727   0.00000  Uiso   1.00
H50    H     0.05278   0.37397   0.26616   0.00000  Uiso   1.00
H51    H     0.07496   0.32268   0.28743   0.00000  Uiso   1.00
H52    H     0.05046   0.36372   0.32522   0.00000  Uiso   1.00
H53    H     0.26971   0.13432   0.06402   0.00000  Uiso   1.00
H54    H     0.22293   0.09831   0.05453   0.00000  Uiso   1.00
H55    H     0.25566   0.11950   0.00765   0.00000  Uiso   1.00
H56    H     0.13926   0.42021   0.27208   0.00000  Uiso   1.00
H57    H     0.15046   0.47860   0.27815   0.00000  Uiso   1.00
H58    H     0.14714   0.44221   0.32721   0.00000  Uiso   1.00
H59    H     0.22939   0.36584   0.06447   0.00000  Uiso   1.00
H60    H     0.42862   0.32572   0.04666   0.00000  Uiso   1.00
H61    H     0.27645   0.40150   0.05506   0.00000  Uiso   1.00
H62    H     0.24369   0.38044   0.00810   0.00000  Uiso   1.00
H63    H     0.36033   0.08049   0.27218   0.00000  Uiso   1.00
H64    H     0.34958   0.02203   0.27841   0.00000  Uiso   1.00
H65    H     0.35259   0.05849   0.32736   0.00000  Uiso   1.00
H66    H     0.46285   0.07820   0.12321   0.00000  Uiso   1.00
H67    H     0.17049   0.28672   0.21182   0.00000  Uiso   1.00
H68    H     0.03786   0.42099   0.12059   0.00000  Uiso   1.00
H69    H     0.32891   0.21368   0.21011   0.00000  Uiso   1.00
H70    H     0.12480   0.23265   0.14217   0.00000  Uiso   1.00
H71    H     0.45434   0.36547   0.00824   0.00000  Uiso   1.00
H72    H     0.32569   0.28177   0.14786   0.00000  Uiso   1.00
H73    H     0.48319   0.37528   0.19089   0.00000  Uiso   1.00
H74    H     0.03273   0.07555   0.19288   0.00000  Uiso   1.00
H75    H     0.09656   0.44572   0.08831   0.00000  Uiso   1.00
H76    H     0.30253   0.15557   0.24222   0.00000  Uiso   1.00
H77    H     0.40467   0.05329   0.08999   0.00000  Uiso   1.00
H78    H     0.19678   0.34513   0.24348   0.00000  Uiso   1.00
H79    H     0.37466   0.48336   0.19085   0.00000  Uiso   1.00
H80    H     0.08630   0.04411   0.22814   0.00000  Uiso   1.00
H81    H     0.21436   0.17310   0.12285   0.00000  Uiso   1.00
H82    H     0.44718   0.12601   0.26638   0.00000  Uiso   1.00
H83    H     0.29160   0.33343   0.11273   0.00000  Uiso   1.00
H84    H     0.42501   0.17735   0.28734   0.00000  Uiso   1.00
H85    H     0.44947   0.13638   0.32540   0.00000  Uiso   1.00
H86    H     0.04695   0.12391   0.06768   0.00000  Uiso   1.00
H87    H     0.07142   0.17427   0.04684   0.00000  Uiso   1.00
H88    H     0.04559   0.13445   0.00860   0.00000  Uiso   1.00
N89    N     0.00000   0.25000   0.28573   0.00000  Uiso   1.00
N90    N    -0.00000   0.25000   0.04760   0.00000  Uiso   1.00
N91    N     0.25000   0.00000   0.28573   0.00000  Uiso   1.00
N92    N     0.25000   0.00000   0.04760   0.00000  Uiso   1.00
O93    O     0.04580   0.20419   0.20487   0.00000  Uiso   1.00
O94    O     0.20419   0.04581   0.12846   0.00000  Uiso   1.00
O95    O     0.20419   0.04581   0.20487   0.00000  Uiso   1.00
O96    O     0.29580   0.45419   0.12846   0.00000  Uiso   1.00
O97    O     0.20419   0.45419   0.12846   0.00000  Uiso   1.00
O98    O     0.29580   0.04581   0.20487   0.00000  Uiso   1.00
O99    O     0.29580   0.04581   0.12846   0.00000  Uiso   1.00
O100   O     0.20419   0.45419   0.20487   0.00000  Uiso   1.00
O101   O     0.49854   0.32882   0.04783   0.00000  Uiso   1.00
O102   O     0.49474   0.17129   0.28555   0.00000  Uiso   1.00
O103   O     0.00150   0.17118   0.04802   0.00000  Uiso   1.00
O104   O     0.45419   0.29581   0.12846   0.00000  Uiso   1.00
O105   O     0.00523   0.32871   0.28537   0.00000  Uiso   1.00
O106   O     0.28624   0.07028   0.04673   0.00000  Uiso   1.00
O107   O     0.20424   0.43513   0.28748   0.00000  Uiso   1.00
O108   O     0.21337   0.42993   0.04680   0.00000  Uiso   1.00
O109   O     0.29546   0.06508   0.28741   0.00000  Uiso   1.00
O110   O     0.45676   0.11063   0.12449   0.00000  Uiso   1.00
O111   O     0.13828   0.29351   0.21068   0.00000  Uiso   1.00
O112   O     0.04408   0.38860   0.12240   0.00000  Uiso   1.00
O113   O     0.36116   0.20712   0.20905   0.00000  Uiso   1.00
O114   O     0.14764   0.21042   0.13399   0.00000  Uiso   1.00
O115   O     0.45419   0.29581   0.20487   0.00000  Uiso   1.00
O116   O     0.35710   0.28863   0.14073   0.00000  Uiso   1.00
O117   O     0.46155   0.39944   0.19642   0.00000  Uiso   1.00
O118   O     0.03942   0.10760   0.19716   0.00000  Uiso   1.00
O119   O     0.11541   0.45215   0.11482   0.00000  Uiso   1.00
O120   O     0.29664   0.13643   0.21580   0.00000  Uiso   1.00
O121   O     0.38522   0.04724   0.11611   0.00000  Uiso   1.00
O122   O     0.20289   0.36405   0.21692   0.00000  Uiso   1.00
O123   O     0.39857   0.46163   0.19721   0.00000  Uiso   1.00
O124   O     0.10897   0.04152   0.20421   0.00000  Uiso   1.00
O125   O     0.21114   0.14219   0.13406   0.00000  Uiso   1.00
O126   O     0.04580   0.20419   0.12846   0.00000  Uiso   1.00
O127   O     0.29053   0.35759   0.13532   0.00000  Uiso   1.00
O128   O     0.45419   0.20419   0.12846   0.00000  Uiso   1.00
O129   O     0.04580   0.29581   0.20487   0.00000  Uiso   1.00
O130   O     0.04580   0.29581   0.12846   0.00000  Uiso   1.00
O131   O     0.45419   0.20419   0.20487   0.00000  Uiso   1.00
O132   O     0.29580   0.45419   0.20487   0.00000  Uiso   1.00
Zn133  Zn   -0.00000   0.25000   0.21771   0.00000  Uiso   1.00
Zn134  Zn    0.00000   0.25000   0.11563   0.00000  Uiso   1.00
Zn135  Zn    0.25000   0.00000   0.21771   0.00000  Uiso   1.00
Zn136  Zn    0.25000   0.00000   0.11563   0.00000  Uiso   1.00
C137   C     0.56000   0.19036   0.16672   0.00000  Uiso   1.00
C138   C     0.99758   0.21078   0.30928   0.00000  Uiso   1.00
C139   C     0.50051   0.21072   0.02417   0.00000  Uiso   1.00
C140   C     0.50242   0.28922   0.30919   0.00000  Uiso   1.00
C141   C     0.76836   0.03452   0.02398   0.00000  Uiso   1.00
C142   C     0.72814   0.46754   0.30964   0.00000  Uiso   1.00
C143   C     0.73155   0.46554   0.02401   0.00000  Uiso   1.00
C144   C     0.77179   0.03252   0.30962   0.00000  Uiso   1.00
C145   C     0.91533   0.11743   0.14346   0.00000  Uiso   1.00
C146   C     0.63220   0.33466   0.19051   0.00000  Uiso   1.00
C147   C     0.58510   0.38217   0.14249   0.00000  Uiso   1.00
C148   C     0.94069   0.31029   0.16663   0.00000  Uiso   1.00
C149   C     0.86753   0.16565   0.18977   0.00000  Uiso   1.00
C150   C     0.63628   0.16850   0.14991   0.00000  Uiso   1.00
C151   C     0.86576   0.33254   0.15203   0.00000  Uiso   1.00
C152   C     0.91948   0.38723   0.18192   0.00000  Uiso   1.00
C153   C     0.58274   0.11578   0.18387   0.00000  Uiso   1.00
C154   C     0.61890   0.41387   0.14055   0.00000  Uiso   1.00
C155   C     0.83550   0.13210   0.19140   0.00000  Uiso   1.00
C156   C     0.88148   0.08577   0.14132   0.00000  Uiso   1.00
C157   C     0.66426   0.36816   0.19201   0.00000  Uiso   1.00
C158   C     0.88681   0.41946   0.18238   0.00000  Uiso   1.00
C159   C     0.94022   0.19012   0.16668   0.00000  Uiso   1.00
C160   C     0.61576   0.08312   0.18530   0.00000  Uiso   1.00
C161   C     0.66822   0.13498   0.14925   0.00000  Uiso   1.00
C162   C     0.83311   0.36556   0.15095   0.00000  Uiso   1.00
C163   C     0.59296   0.34294   0.16666   0.00000  Uiso   1.00
C164   C     0.90707   0.15704   0.16671   0.00000  Uiso   1.00
C165   C     0.90844   0.34422   0.16645   0.00000  Uiso   1.00
C166   C     0.59384   0.15795   0.16706   0.00000  Uiso   1.00
C167   C     0.84288   0.09325   0.16648   0.00000  Uiso   1.00
C168   C     0.65715   0.40673   0.16645   0.00000  Uiso   1.00
C169   C     0.65713   0.09312   0.16660   0.00000  Uiso   1.00
C170   C     0.55978   0.30989   0.16667   0.00000  Uiso   1.00
C171   C     0.84397   0.40806   0.16687   0.00000  Uiso   1.00
C172   C     0.95674   0.34943   0.04176   0.00000  Uiso   1.00
C173   C     0.95218   0.15244   0.29193   0.00000  Uiso   1.00
C174   C     0.54328   0.15055   0.04205   0.00000  Uiso   1.00
C175   C     0.54777   0.34759   0.29181   0.00000  Uiso   1.00
C176   C     0.75700   0.10683   0.04270   0.00000  Uiso   1.00
C177   C     0.65848   0.44493   0.29181   0.00000  Uiso   1.00
C178   C     0.74236   0.39318   0.04309   0.00000  Uiso   1.00
C179   C     0.84129   0.05564   0.29193   0.00000  Uiso   1.00
C180   C     0.81000   0.44034   0.16672   0.00000  Uiso   1.00
C181   C     0.69005   0.05973   0.16664   0.00000  Uiso   1.00
C182   C     0.69023   0.44002   0.16663   0.00000  Uiso   1.00
C183   C     0.80976   0.05999   0.16663   0.00000  Uiso   1.00
C184   C     0.99950   0.28928   0.02407   0.00000  Uiso   1.00
H185   H     0.95314   0.37612   0.06727   0.00000  Uiso   1.00
H186   H     0.55278   0.37397   0.26616   0.00000  Uiso   1.00
H187   H     0.57496   0.32268   0.28743   0.00000  Uiso   1.00
H188   H     0.55046   0.36372   0.32522   0.00000  Uiso   1.00
H189   H     0.76971   0.13432   0.06402   0.00000  Uiso   1.00
H190   H     0.72293   0.09831   0.05453   0.00000  Uiso   1.00
H191   H     0.75566   0.11950   0.00765   0.00000  Uiso   1.00
H192   H     0.63926   0.42021   0.27208   0.00000  Uiso   1.00
H193   H     0.65046   0.47860   0.27815   0.00000  Uiso   1.00
H194   H     0.64714   0.44221   0.32721   0.00000  Uiso   1.00
H195   H     0.72939   0.36584   0.06447   0.00000  Uiso   1.00
H196   H     0.92862   0.32572   0.04666   0.00000  Uiso   1.00
H197   H     0.77645   0.40150   0.05506   0.00000  Uiso   1.00
H198   H     0.74369   0.38044   0.00810   0.00000  Uiso   1.00
H199   H     0.86033   0.08049   0.27218   0.00000  Uiso   1.00
H200   H     0.84958   0.02203   0.27841   0.00000  Uiso   1.00
H201   H     0.85259   0.05849   0.32736   0.00000  Uiso   1.00
H202   H     0.96285   0.07820   0.12321   0.00000  Uiso   1.00
H203   H     0.67049   0.28672   0.21182   0.00000  Uiso   1.00
H204   H     0.53786   0.42099   0.12059   0.00000  Uiso   1.00
H205   H     0.82891   0.21368   0.21011   0.00000  Uiso   1.00
H206   H     0.62480   0.23265   0.14217   0.00000  Uiso   1.00
H207   H     0.95434   0.36547   0.00824   0.00000  Uiso   1.00
H208   H     0.82569   0.28177   0.14786   0.00000  Uiso   1.00
H209   H     0.98319   0.37528   0.19089   0.00000  Uiso   1.00
H210   H     0.53273   0.07555   0.19288   0.00000  Uiso   1.00
H211   H     0.59656   0.44572   0.08831   0.00000  Uiso   1.00
H212   H     0.80253   0.15557   0.24222   0.00000  Uiso   1.00
H213   H     0.90467   0.05329   0.08999   0.00000  Uiso   1.00
H214   H     0.69678   0.34513   0.24348   0.00000  Uiso   1.00
H215   H     0.87466   0.48336   0.19085   0.00000  Uiso   1.00
H216   H     0.58630   0.04411   0.22814   0.00000  Uiso   1.00
H217   H     0.71436   0.17310   0.12285   0.00000  Uiso   1.00
H218   H     0.94718   0.12601   0.26638   0.00000  Uiso   1.00
H219   H     0.79160   0.33343   0.11273   0.00000  Uiso   1.00
H220   H     0.92501   0.17735   0.28734   0.00000  Uiso   1.00
H221   H     0.94947   0.13638   0.32540   0.00000  Uiso   1.00
H222   H     0.54695   0.12391   0.06768   0.00000  Uiso   1.00
H223   H     0.57142   0.17427   0.04684   0.00000  Uiso   1.00
H224   H     0.54559   0.13445   0.00860   0.00000  Uiso   1.00
N225   N     0.50000   0.25000   0.28573   0.00000  Uiso   1.00
N226   N     0.50000   0.25000   0.04760   0.00000  Uiso   1.00
N227   N     0.75000   0.00000   0.28573   0.00000  Uiso   1.00
N228   N     0.75000   0.00000   0.04760   0.00000  Uiso   1.00
O229   O     0.54580   0.20419   0.20487   0.00000  Uiso   1.00
O230   O     0.70419   0.04581   0.12846   0.00000  Uiso   1.00
O231   O     0.70419   0.04581   0.20487   0.00000  Uiso   1.00
O232   O     0.79580   0.45419   0.12846   0.00000  Uiso   1.00
O233   O     0.70419   0.45419   0.12846   0.00000  Uiso   1.00
O234   O     0.79580   0.04581   0.20487   0.00000  Uiso   1.00
O235   O     0.79580   0.04581   0.12846   0.00000  Uiso   1.00
O236   O     0.70419   0.45419   0.20487   0.00000  Uiso   1.00
O237   O     0.99854   0.32882   0.04783   0.00000  Uiso   1.00
O238   O     0.99474   0.17129   0.28555   0.00000  Uiso   1.00
O239   O     0.50150   0.17118   0.04802   0.00000  Uiso   1.00
O240   O     0.95419   0.29581   0.12846   0.00000  Uiso   1.00
O241   O     0.50523   0.32871   0.28537   0.00000  Uiso   1.00
O242   O     0.78624   0.07028   0.04673   0.00000  Uiso   1.00
O243   O     0.70424   0.43513   0.28748   0.00000  Uiso   1.00
O244   O     0.71337   0.42993   0.04680   0.00000  Uiso   1.00
O245   O     0.79546   0.06508   0.28741   0.00000  Uiso   1.00
O246   O     0.95676   0.11063   0.12449   0.00000  Uiso   1.00
O247   O     0.63828   0.29351   0.21068   0.00000  Uiso   1.00
O248   O     0.54408   0.38860   0.12240   0.00000  Uiso   1.00
O249   O     0.86116   0.20712   0.20905   0.00000  Uiso   1.00
O250   O     0.64764   0.21042   0.13399   0.00000  Uiso   1.00
O251   O     0.95419   0.29581   0.20487   0.00000  Uiso   1.00
O252   O     0.85710   0.28863   0.14073   0.00000  Uiso   1.00
O253   O     0.96155   0.39944   0.19642   0.00000  Uiso   1.00
O254   O     0.53942   0.10760   0.19716   0.00000  Uiso   1.00
O255   O     0.61541   0.45215   0.11482   0.00000  Uiso   1.00
O256   O     0.79664   0.13643   0.21580   0.00000  Uiso   1.00
O257   O     0.88522   0.04724   0.11611   0.00000  Uiso   1.00
O258   O     0.70289   0.36405   0.21692   0.00000  Uiso   1.00
O259   O     0.89857   0.46163   0.19721   0.00000  Uiso   1.00
O260   O     0.60897   0.04152   0.20421   0.00000  Uiso   1.00
O261   O     0.71114   0.14219   0.13406   0.00000  Uiso   1.00
O262   O     0.54580   0.20419   0.12846   0.00000  Uiso   1.00
O263   O     0.79053   0.35759   0.13532   0.00000  Uiso   1.00
O264   O     0.95419   0.20419   0.12846   0.00000  Uiso   1.00
O265   O     0.54580   0.29581   0.20487   0.00000  Uiso   1.00
O266   O     0.54580   0.29581   0.12846   0.00000  Uiso   1.00
O267   O     0.95419   0.20419   0.20487   0.00000  Uiso   1.00
O268   O     0.79580   0.45419   0.20487   0.00000  Uiso   1.00
Zn269  Zn    0.50000   0.25000   0.21771   0.00000  Uiso   1.00
Zn270  Zn    0.50000   0.25000   0.11563   0.00000  Uiso   1.00
Zn271  Zn    0.75000   0.00000   0.21771   0.00000  Uiso   1.00
Zn272  Zn    0.75000   0.00000   0.11563   0.00000  Uiso   1.00
C273   C     0.06000   0.69036   0.16672   0.00000  Uiso   1.00
C274   C     0.49758   0.71078   0.30928   0.00000  Uiso   1.00
C275   C     0.00051   0.71072   0.02417   0.00000  Uiso   1.00
C276   C     0.00242   0.78922   0.30919   0.00000  Uiso   1.00
C277   C     0.26836   0.53452   0.02398   0.00000  Uiso   1.00
C278   C     0.22814   0.96754   0.30964   0.00000  Uiso   1.00
C279   C     0.23155   0.96554   0.02401   0.00000  Uiso   1.00
C280   C     0.27179   0.53252   0.30962   0.00000  Uiso   1.00
C281   C     0.41533   0.61743   0.14346   0.00000  Uiso   1.00
C282   C     0.13220   0.83466   0.19051   0.00000  Uiso   1.00
C283   C     0.08510   0.88217   0.14249   0.00000  Uiso   1.00
C284   C     0.44069   0.81029   0.16663   0.00000  Uiso   1.00
C285   C     0.36753   0.66565   0.18977   0.00000  Uiso   1.00
C286   C     0.13628   0.66850   0.14991   0.00000  Uiso   1.00
C287   C     0.36576   0.83254   0.15203   0.00000  Uiso   1.00
C288   C     0.41948   0.88723   0.18192   0.00000  Uiso   1.00
C289   C     0.08274   0.61578   0.18387   0.00000  Uiso   1.00
C290   C     0.11890   0.91387   0.14055   0.00000  Uiso   1.00
C291   C     0.33550   0.63210   0.19140   0.00000  Uiso   1.00
C292   C     0.38148   0.58577   0.14132   0.00000  Uiso   1.00
C293   C     0.16426   0.86816   0.19201   0.00000  Uiso   1.00
C294   C     0.38681   0.91946   0.18238   0.00000  Uiso   1.00
C295   C     0.44022   0.69012   0.16668   0.00000  Uiso   1.00
C296   C     0.11576   0.58312   0.18530   0.00000  Uiso   1.00
C297   C     0.16822   0.63498   0.14925   0.00000  Uiso   1.00
C298   C     0.33311   0.86556   0.15095   0.00000  Uiso   1.00
C299   C     0.09296   0.84294   0.16666   0.00000  Uiso   1.00
C300   C     0.40707   0.65704   0.16671   0.00000  Uiso   1.00
C301   C     0.40844   0.84422   0.16645   0.00000  Uiso   1.00
C302   C     0.09384   0.65795   0.16706   0.00000  Uiso   1.00
C303   C     0.34288   0.59325   0.16648   0.00000  Uiso   1.00
C304   C     0.15715   0.90673   0.16645   0.00000  Uiso   1.00
C305   C     0.15713   0.59312   0.16660   0.00000  Uiso   1.00
C306   C     0.05978   0.80989   0.16667   0.00000  Uiso   1.00
C307   C     0.34397   0.90806   0.16687   0.00000  Uiso   1.00
C308   C     0.45674   0.84943   0.04176   0.00000  Uiso   1.00
C309   C     0.45218   0.65244   0.29193   0.00000  Uiso   1.00
C310   C     0.04328   0.65055   0.04205   0.00000  Uiso   1.00
C311   C     0.04777   0.84759   0.29181   0.00000  Uiso   1.00
C312   C     0.25700   0.60683   0.04270   0.00000  Uiso   1.00
C313   C     0.15848   0.94493   0.29181   0.00000  Uiso   1.00
C314   C     0.24236   0.89318   0.04309   0.00000  Uiso   1.00
C315   C     0.34129   0.55564   0.29193   0.00000  Uiso   1.00
C316   C     0.31000   0.94034   0.16672   0.00000  Uiso   1.00
C317   C     0.19005   0.55973   0.16664   0.00000  Uiso   1.00
C318   C     0.19023   0.94002   0.16663   0.00000  Uiso   1.00
C319   C     0.30976   0.55999   0.16663   0.00000  Uiso   1.00
C320   C     0.49950   0.78928   0.02407   0.00000  Uiso   1.00
H321   H     0.45314   0.87612   0.06727   0.00000  Uiso   1.00
H322   H     0.05278   0.87397   0.26616   0.00000  Uiso   1.00
H323   H     0.07496   0.82268   0.28743   0.00000  Uiso   1.00
H324   H     0.05046   0.86372   0.32522   0.00000  Uiso   1.00
H325   H     0.26971   0.63432   0.06402   0.00000  Uiso   1.00
H326   H     0.22293   0.59831   0.05453   0.00000  Uiso   1.00
H327   H     0.25566   0.61950   0.00765   0.00000  Uiso   1.00
H328   H     0.13926   0.92021   0.27208   0.00000  Uiso   1.00
H329   H     0.15046   0.97860   0.27815   0.00000  Uiso   1.00
H330   H     0.14714   0.94221   0.32721   0.00000  Uiso   1.00
H331   H     0.22939   0.86584   0.06447   0.00000  Uiso   1.00
H332   H     0.42862   0.82572   0.04666   0.00000  Uiso   1.00
H333   H     0.27645   0.90150   0.05506   0.00000  Uiso   1.00
H334   H     0.24369   0.88044   0.00810   0.00000  Uiso   1.00
H335   H     0.36033   0.58049   0.27218   0.00000  Uiso   1.00
H336   H     0.34958   0.52203   0.27841   0.00000  Uiso   1.00
H337   H     0.35259   0.55849   0.32736   0.00000  Uiso   1.00
H338   H     0.46285   0.57820   0.12321   0.00000  Uiso   1.00
H339   H     0.17049   0.78672   0.21182   0.00000  Uiso   1.00
H340   H     0.03786   0.92099   0.12059   0.00000  Uiso   1.00
H341   H     0.32891   0.71368   0.21011   0.00000  Uiso   1.00
H342   H     0.12480   0.73265   0.14217   0.00000  Uiso   1.00
H343   H     0.45434   0.86547   0.00824   0.00000  Uiso   1.00
H344   H     0.32569   0.78177   0.14786   0.00000  Uiso   1.00
H345   H     0.48319   0.87528   0.19089   0.00000  Uiso   1.00
H346   H     0.03273   0.57555   0.19288   0.00000  Uiso   1.00
H347   H     0.09656   0.94572   0.08831   0.00000  Uiso   1.00
H348   H     0.30253   0.65557   0.24222   0.00000  Uiso   1.00
H349   H     0.40467   0.55329   0.08999   0.00000  Uiso   1.00
H350   H     0.19678   0.84513   0.24348   0.00000  Uiso   1.00
H351   H     0.37466   0.98336   0.19085   0.00000  Uiso   1.00
H352   H     0.08630   0.54411   0.22814   0.00000  Uiso   1.00
H353   H     0.21436   0.67310   0.12285   0.00000  Uiso   1.00
H354   H     0.44718   0.62601   0.26638   0.00000  Uiso   1.00
H355   H     0.29160   0.83343   0.11273   0.00000  Uiso   1.00
H356   H     0.42501   0.67735   0.28734   0.00000  Uiso   1.00
H357   H     0.44947   0.63638   0.32540   0.00000  Uiso   1.00
H358   H     0.04695   0.62391   0.06768   0.00000  Uiso   1.00
H359   H     0.07142   0.67427   0.04684   0.00000  Uiso   1.00
H360   H     0.04559   0.63445   0.00860   0.00000  Uiso   1.00
N361   N     0.00000   0.75000   0.28573   0.00000  Uiso   1.00
N362   N    -0.00000   0.75000   0.04760   0.00000  Uiso   1.00
N363   N     0.25000   0.50000   0.28573   0.00000  Uiso   1.00
N364   N     0.25000   0.50000   0.04760   0.00000  Uiso   1.00
O365   O     0.04580   0.70419   0.20487   0.00000  Uiso   1.00
O366   O     0.20419   0.54581   0.12846   0.00000  Uiso   1.00
O367   O     0.20419   0.54581   0.20487   0.00000  Uiso   1.00
O368   O     0.29580   0.95419   0.12846   0.00000  Uiso   1.00
O369   O     0.20419   0.95419   0.12846   0.00000  Uiso   1.00
O370   O     0.29580   0.54581   0.20487   0.00000  Uiso   1.00
O371   O     0.29580   0.54581   0.12846   0.00000  Uiso   1.00
O372   O     0.20419   0.95419   0.20487   0.00000  Uiso   1.00
O373   O     0.49854   0.82882   0.04783   0.00000  Uiso   1.00
O374   O     0.49474   0.67129   0.28555   0.00000  Uiso   1.00
O375   O     0.00150   0.67118   0.04802   0.00000  Uiso   1.00
O376   O     0.45419   0.79581   0.12846   0.00000  Uiso   1.00
O377   O     0.00523   0.82871   0.28537   0.00000  Uiso   1.00
O378   O     0.28624   0.57028   0.04673   0.00000  Uiso   1.00
O379   O     0.20424   0.93513   0.28748   0.00000  Uiso   1.00
O380   O     0.21337   0.92993   0.04680   0.00000  Uiso   1.00
O381   O     0.29546   0.56508   0.28741   0.00000  Uiso   1.00
O382   O     0.45676   0.61063   0.12449   0.00000  Uiso   1.00
O383   O     0.13828   0.79351   0.21068   0.00000  Uiso   1.00
O384   O     0.04408   0.88860   0.12240   0.00000  Uiso   1.00
O385   O     0.36116   0.70712   0.20905   0.00000  Uiso   1.00
O386   O     0.14764   0.71042   0.13399   0.00000  Uiso   1.00
O387   O     0.45419   0.79581   0.20487   0.00000  Uiso   1.00
O388   O     0.35710   0.78863   0.14073   0.00000  Uiso   1.00
O389   O     0.46155   0.89944   0.19642   0.00000  Uiso   1.00
O390   O     0.03942   0.60760   0.19716   0.00000  Uiso   1.00
O391   O     0.11541   0.95215   0.11482   0.00000  Uiso   1.00
O392   O     0.29664   0.63643   0.21580   0.00000  Uiso   1.00
O393   O     0.38522   0.54724   0.11611   0.00000  Uiso   1.00
O394   O     0.20289   0.86405   0.21692   0.00000  Uiso   1.00
O395   O     0.39857   0.96163   0.19721   0.00000  Uiso   1.00
O396   O     0.10897   0.54152   0.20421   0.00000  Uiso   1.00
O397   O     0.21114   0.64219   0.13406   0.00000  Uiso   1.00
O398   O     0.04580   0.70419   0.12846   0.00000  Uiso   1.00
O399   O     0.29053   0.85759   0.13532   0.00000  Uiso   1.00
O400   O     0.45419   0.70419   0.12846   0.00000  Uiso   1.00
O401   O     0.04580   0.79581   0.20487   0.00000  Uiso   1.00
O402   O     0.04580   0.79581   0.12846   0.00000  Uiso   1.00
O403   O     0.45419   0.70419   0.20487   0.00000  Uiso   1.00
O404   O     0.29580   0.95419   0.20487   0.00000  Uiso   1.00
Zn405  Zn   -0.00000   0.75000   0.21771   0.00000  Uiso   1.00
Zn406  Zn    0.00000   0.75000   0.11563   0.00000  Uiso   1.00
Zn407  Zn    0.25000   0.50000   0.21771   0.00000  Uiso   1.00
Zn408  Zn    0.25000   0.50000   0.11563   0.00000  Uiso   1.00
C409   C     0.56000   0.69036   0.16672   0.00000  Uiso   1.00
C410   C     0.99758   0.71078   0.30928   0.00000  Uiso   1.00
C411   C     0.50051   0.71072   0.02417   0.00000  Uiso   1.00
C412   C     0.50242   0.78922   0.30919   0.00000  Uiso   1.00
C413   C     0.76836   0.53452   0.02398   0.00000  Uiso   1.00
C414   C     0.72814   0.96754   0.30964   0.00000  Uiso   1.00
C415   C     0.73155   0.96554   0.02401   0.00000  Uiso   1.00
C416   C     0.77179   0.53252   0.30962   0.00000  Uiso   1.00
C417   C     0.91533   0.61743   0.14346   0.00000  Uiso   1.00
C418   C     0.63220   0.83466   0.19051   0.00000  Uiso   1.00
C419   C     0.58510   0.88217   0.14249   0.00000  Uiso   1.00
C420   C     0.94069   0.81029   0.16663   0.00000  Uiso   1.00
C421   C     0.86753   0.66565   0.18977   0.00000  Uiso   1.00
C422   C     0.63628   0.66850   0.14991   0.00000  Uiso   1.00
C423   C     0.86576   0.83254   0.15203   0.00000  Uiso   1.00
C424   C     0.91948   0.88723   0.18192   0.00000  Uiso   1.00
C425   C     0.58274   0.61578   0.18387   0.00000  Uiso   1.00
C426   C     0.61890   0.91387   0.14055   0.00000  Uiso   1.00
C427   C     0.83550   0.63210   0.19140   0.00000  Uiso   1.00
C428   C     0.88148   0.58577   0.14132   0.00000  Uiso   1.00
C429   C     0.66426   0.86816   0.19201   0.00000  Uiso   1.00
C430   C     0.88681   0.91946   0.18238   0.00000  Uiso   1.00
C431   C     0.94022   0.69012   0.16668   0.00000  Uiso   1.00
C432   C     0.61576   0.58312   0.18530   0.00000  Uiso   1.00
C433   C     0.66822   0.63498   0.14925   0.00000  Uiso   1.00
C434   C     0.83311   0.86556   0.15095   0.00000  Uiso   1.00
C435   C     0.59296   0.84294   0.16666   0.00000  Uiso   1.00
C436   C     0.90707   0.65704   0.16671   0.00000  Uiso   1.00
C437   C     0.90844   0.84422   0.16645   0.00000  Uiso   1.00
C438   C     0.59384   0.65795   0.16706   0.00000  Uiso   1.00
C439   C     0.84288   0.59325   0.16648   0.00000  Uiso   1.00
C440   C     0.65715   0.90673   0.16645   0.00000  Uiso   1.00
C441   C     0.65713   0.59312   0.16660   0.00000  Uiso   1.00
C442   C     0.55978   0.80989   0.16667   0.00000  Uiso   1.00
C443   C     0.84397   0.90806   0.16687   0.00000  Uiso   1.00
C444   C     0.95674   0.84943   0.04176   0.00000  Uiso   1.00
C445   C     0.95218   0.65244   0.29193   0.00000  Uiso   1.00
C446   C     0.54328   0.65055   0.04205   0.00000  Uiso   1.00
C447   C     0.54777   0.84759   0.29181   0.00000  Uiso   1.00
C448   C     0.75700   0.60683   0.04270   0.00000  Uiso   1.00
C449   C     0.65848   0.94493   0.29181   0.00000  Uiso   1.00
C450   C     0.74236   0.89318   0.04309   0.00000  Uiso   1.00
C451   C     0.84129   0.55564   0.29193   0.00000  Uiso   1.00
C452   C     0.81000   0.94034   0.16672   0.00000  Uiso   1.00
C453   C     0.69005   0.55973   0.16664   0.00000  Uiso   1.00
C454   C     0.69023   0.94002   0.16663   0.00000  Uiso   1.00
C455   C     0.80976   0.55999   0.16663   0.00000  Uiso   1.00
C456   C     0.99950   0.78928   0.02407   0.00000  Uiso   1.00
H457   H     0.95314   0.87612   0.06727   0.00000  Uiso   1.00
H458   H     0.55278   0.87397   0.26616   0.00000  Uiso   1.00
H459   H     0.57496   0.82268   0.28743   0.00000  Uiso   1.00
H460   H     0.55046   0.86372   0.32522   0.00000  Uiso   1.00
H461   H     0.76971   0.63432   0.06402   0.00000  Uiso   1.00
H462   H     0.72293   0.59831   0.05453   0.00000  Uiso   1.00
H463   H     0.75566   0.61950   0.00765   0.00000  Uiso   1.00
H464   H     0.63926   0.92021   0.27208   0.00000  Uiso   1.00
H465   H     0.65046   0.97860   0.27815   0.00000  Uiso   1.00
H466   H     0.64714   0.94221   0.32721   0.00000  Uiso   1.00
H467   H     0.72939   0.86584   0.06447   0.00000  Uiso   1.00
H468   H     0.92862   0.82572   0.04666   0.00000  Uiso   1.00
H469   H     0.77645   0.90150   0.05506   0.00000  Uiso   1.00
H470   H     0.74369   0.88044   0.00810   0.00000  Uiso   1.00
H471   H     0.86033   0.58049   0.27218   0.00000  Uiso   1.00
H472   H     0.84958   0.52203   0.27841   0.00000  Uiso   1.00
H473   H     0.85259   0.55849   0.32736   0.00000  Uiso   1.00
H474   H     0.96285   0.57820   0.12321   0.00000  Uiso   1.00
H475   H     0.67049   0.78672   0.21182   0.00000  Uiso   1.00
H476   H     0.53786   0.92099   0.12059   0.00000  Uiso   1.00
H477   H     0.82891   0.71368   0.21011   0.00000  Uiso   1.00
H478   H     0.62480   0.73265   0.14217   0.00000  Uiso   1.00
H479   H     0.95434   0.86547   0.00824   0.00000  Uiso   1.00
H480   H     0.82569   0.78177   0.14786   0.00000  Uiso   1.00
H481   H     0.98319   0.87528   0.19089   0.00000  Uiso   1.00
H482   H     0.53273   0.57555   0.19288   0.00000  Uiso   1.00
H483   H     0.59656   0.94572   0.08831   0.00000  Uiso   1.00
H484   H     0.80253   0.65557   0.24222   0.00000  Uiso   1.00
H485   H     0.90467   0.55329   0.08999   0.00000  Uiso   1.00
H486   H     0.69678   0.84513   0.24348   0.00000  Uiso   1.00
H487   H     0.87466   0.98336   0.19085   0.00000  Uiso   1.00
H488   H     0.58630   0.54411   0.22814   0.00000  Uiso   1.00
H489   H     0.71436   0.67310   0.12285   0.00000  Uiso   1.00
H490   H     0.94718   0.62601   0.26638   0.00000  Uiso   1.00
H491   H     0.79160   0.83343   0.11273   0.00000  Uiso   1.00
H492   H     0.92501   0.67735   0.28734   0.00000  Uiso   1.00
H493   H     0.94947   0.63638   0.32540   0.00000  Uiso   1.00
H494   H     0.54695   0.62391   0.06768   0.00000  Uiso   1.00
H495   H     0.57142   0.67427   0.04684   0.00000  Uiso   1.00
H496   H     0.54559   0.63445   0.00860   0.00000  Uiso   1.00
N497   N     0.50000   0.75000   0.28573   0.00000  Uiso   1.00
N498   N     0.50000   0.75000   0.04760   0.00000  Uiso   1.00
N499   N     0.75000   0.50000   0.28573   0.00000  Uiso   1.00
N500   N     0.75000   0.50000   0.04760   0.00000  Uiso   1.00
O501   O     0.54580   0.70419   0.20487   0.00000  Uiso   1.00
O502   O     0.70419   0.54581   0.12846   0.00000  Uiso   1.00
O503   O     0.70419   0.54581   0.20487   0.00000  Uiso   1.00
O504   O     0.79580   0.95419   0.12846   0.00000  Uiso   1.00
O505   O     0.70419   0.95419   0.12846   0.00000  Uiso   1.00
O506   O     0.79580   0.54581   0.20487   0.00000  Uiso   1.00
O507   O     0.79580   0.54581   0.12846   0.00000  Uiso   1.00
O508   O     0.70419   0.95419   0.20487   0.00000  Uiso   1.00
O509   O     0.99854   0.82882   0.04783   0.00000  Uiso   1.00
O510   O     0.99474   0.67129   0.28555   0.00000  Uiso   1.00
O511   O     0.50150   0.67118   0.04802   0.00000  Uiso   1.00
O512   O     0.95419   0.79581   0.12846   0.00000  Uiso   1.00
O513   O     0.50523   0.82871   0.28537   0.00000  Uiso   1.00
O514   O     0.78624   0.57028   0.04673   0.00000  Uiso   1.00
O515   O     0.70424   0.93513   0.28748   0.00000  Uiso   1.00
O516   O     0.71337   0.92993   0.04680   0.00000  Uiso   1.00
O517   O     0.79546   0.56508   0.28741   0.00000  Uiso   1.00
O518   O     0.95676   0.61063   0.12449   0.00000  Uiso   1.00
O519   O     0.63828   0.79351   0.21068   0.00000  Uiso   1.00
O520   O     0.54408   0.88860   0.12240   0.00000  Uiso   1.00
O521   O     0.86116   0.70712   0.20905   0.00000  Uiso   1.00
O522   O     0.64764   0.71042   0.13399   0.00000  Uiso   1.00
O523   O     0.95419   0.79581   0.20487   0.00000  Uiso   1.00
O524   O     0.85710   0.78863   0.14073   0.00000  Uiso   1.00
O525   O     0.96155   0.89944   0.19642   0.00000  Uiso   1.00
O526   O     0.53942   0.60760   0.19716   0.00000  Uiso   1.00
O527   O     0.61541   0.95215   0.11482   0.00000  Uiso   1.00
O528   O     0.79664   0.63643   0.21580   0.00000  Uiso   1.00
O529   O     0.88522   0.54724   0.11611   0.00000  Uiso   1.00
O530   O     0.70289   0.86405   0.21692   0.00000  Uiso   1.00
O531   O     0.89857   0.96163   0.19721   0.00000  Uiso   1.00
O532   O     0.60897   0.54152   0.20421   0.00000  Uiso   1.00
O533   O     0.71114   0.64219   0.13406   0.00000  Uiso   1.00
O534   O     0.54580   0.70419   0.12846   0.00000  Uiso   1.00
O535   O     0.79053   0.85759   0.13532   0.00000  Uiso   1.00
O536   O     0.95419   0.70419   0.12846   0.00000  Uiso   1.00
O537   O     0.54580   0.79581   0.20487   0.00000  Uiso   1.00
O538   O     0.54580   0.79581   0.12846   0.00000  Uiso   1.00
O539   O     0.95419   0.70419   0.20487   0.00000  Uiso   1.00
O540   O     0.79580   0.95419   0.20487   0.00000  Uiso   1.00
Zn541  Zn    0.50000   0.75000   0.21771   0.00000  Uiso   1.00
Zn542  Zn    0.50000   0.75000   0.11563   0.00000  Uiso   1.00
Zn543  Zn    0.75000   0.50000   0.21771   0.00000  Uiso   1.00
Zn544  Zn    0.75000   0.50000   0.11563   0.00000  Uiso   1.00
C545   C     0.06000   0.19036   0.50006   0.00000  Uiso   1.00
C546   C     0.49758   0.21078   0.64261   0.00000  Uiso   1.00
C547   C     0.00051   0.21072   0.35750   0.00000  Uiso   1.00
C548   C     0.00242   0.28922   0.64252   0.00000  Uiso   1.00
C549   C     0.26836   0.03452   0.35731   0.00000  Uiso   1.00
C550   C     0.22814   0.46754   0.64298   0.00000  Uiso   1.00
C551   C     0.23155   0.46554   0.35735   0.00000  Uiso   1.00
C552   C     0.27179   0.03252   0.64295   0.00000  Uiso   1.00
C553   C     0.41533   0.11743   0.47679   0.00000  Uiso   1.00
C554   C     0.13220   0.33466   0.52384   0.00000  Uiso   1.00
C555   C     0.08510   0.38217   0.47583   0.00000  Uiso   1.00
C556   C     0.44069   0.31029   0.49996   0.00000  Uiso   1.00
C557   C     0.36753   0.16565   0.52310   0.00000  Uiso   1.00
C558   C     0.13628   0.16850   0.48324   0.00000  Uiso   1.00
C559   C     0.36576   0.33254   0.48536   0.00000  Uiso   1.00
C560   C     0.41948   0.38723   0.51526   0.00000  Uiso   1.00
C561   C     0.08274   0.11578   0.51720   0.00000  Uiso   1.00
C562   C     0.11890   0.41387   0.47388   0.00000  Uiso   1.00
C563   C     0.33550   0.13210   0.52474   0.00000  Uiso   1.00
C564   C     0.38148   0.08577   0.47466   0.00000  Uiso   1.00
C565   C     0.16426   0.36816   0.52535   0.00000  Uiso   1.00
C566   C     0.38681   0.41946   0.51571   0.00000  Uiso   1.00
C567   C     0.44022   0.19012   0.50001   0.00000  Uiso   1.00
C568   C     0.11576   0.08312   0.51864   0.00000  Uiso   1.00
C569   C     0.16822   0.13498   0.48258   0.00000  Uiso   1.00
C570   C     0.33311   0.36556   0.48428   0.00000  Uiso   1.00
C571   C     0.09296   0.34294   0.50000   0.00000  Uiso   1.00
C572   C     0.40707   0.15704   0.50004   0.00000  Uiso   1.00
C573   C     0.40844   0.34422   0.49978   0.00000  Uiso   1.00
C574   C     0.09384   0.15795   0.50039   0.00000  Uiso   1.00
C575   C     0.34288   0.09325   0.49981   0.00000  Uiso   1.00
C576   C     0.15715   0.40673   0.49978   0.00000  Uiso   1.00
C577   C     0.15713   0.09312   0.49993   0.00000  Uiso   1.00
C578   C     0.05978   0.30989   0.50001   0.00000  Uiso   1.00
C579   C     0.34397   0.40806   0.50021   0.00000  Uiso   1.00
C580   C     0.45674   0.34943   0.37510   0.00000  Uiso   1.00
C581   C     0.45218   0.15244   0.62526   0.00000  Uiso   1.00
C582   C     0.04328   0.15055   0.37538   0.00000  Uiso   1.00
C583   C     0.04777   0.34759   0.62514   0.00000  Uiso   1.00
C584   C     0.25700   0.10683   0.37604   0.00000  Uiso   1.00
C585   C     0.15848   0.44493   0.62515   0.00000  Uiso   1.00
C586   C     0.24236   0.39318   0.37642   0.00000  Uiso   1.00
C587   C     0.34129   0.05564   0.62527   0.00000  Uiso   1.00
C588   C     0.31000   0.44034   0.50006   0.00000  Uiso   1.00
C589   C     0.19005   0.05973   0.49998   0.00000  Uiso   1.00
C590   C     0.19023   0.44002   0.49996   0.00000  Uiso   1.00
C591   C     0.30976   0.05999   0.49997   0.00000  Uiso   1.00
C592   C     0.49950   0.28928   0.35740   0.00000  Uiso   1.00
H593   H     0.45314   0.37612   0.40061   0.00000  Uiso   1.00
H594   H     0.05278   0.37397   0.59949   0.00000  Uiso   1.00
H595   H     0.07496   0.32268   0.62076   0.00000  Uiso   1.00
H596   H     0.05046   0.36372   0.65855   0.00000  Uiso   1.00
H597   H     0.26971   0.13432   0.39735   0.00000  Uiso   1.00
H598   H     0.22293   0.09831   0.38787   0.00000  Uiso   1.00
H599   H     0.25566   0.11950   0.34098   0.00000  Uiso   1.00
H600   H     0.13926   0.42021   0.60541   0.00000  Uiso   1.00
H601   H     0.15046   0.47860   0.61148   0.00000  Uiso   1.00
H602   H     0.14714   0.44221   0.66054   0.00000  Uiso   1.00
H603   H     0.22939   0.36584   0.39781   0.00000  Uiso   1.00
H604   H     0.42862   0.32572   0.37999   0.00000  Uiso   1.00
H605   H     0.27645   0.40150   0.38839   0.00000  Uiso   1.00
H606   H     0.24369   0.38044   0.34143   0.00000  Uiso   1.00
H607   H     0.36033   0.08049   0.60551   0.00000  Uiso   1.00
H608   H     0.34958   0.02203   0.61174   0.00000  Uiso   1.00
H609   H     0.35259   0.05849   0.66069   0.00000  Uiso   1.00
H610   H     0.46285   0.07820   0.45654   0.00000  Uiso   1.00
H611   H     0.17049   0.28672   0.54516   0.00000  Uiso   1.00
H612   H     0.03786   0.42099   0.45392   0.00000  Uiso   1.00
H613   H     0.32891   0.21368   0.54344   0.00000  Uiso   1.00
H614   H     0.12480   0.23265   0.47550   0.00000  Uiso   1.00
H615   H     0.45434   0.36547   0.34158   0.00000  Uiso   1.00
H616   H     0.32569   0.28177   0.48119   0.00000  Uiso   1.00
H617   H     0.48319   0.37528   0.52422   0.00000  Uiso   1.00
H618   H     0.03273   0.07555   0.52621   0.00000  Uiso   1.00
H619   H     0.09656   0.44572   0.42164   0.00000  Uiso   1.00
H620   H     0.30253   0.15557   0.57555   0.00000  Uiso   1.00
H621   H     0.40467   0.05329   0.42333   0.00000  Uiso   1.00
H622   H     0.19678   0.34513   0.57682   0.00000  Uiso   1.00
H623   H     0.37466   0.48336   0.52419   0.00000  Uiso   1.00
H624   H     0.08630   0.04411   0.56147   0.00000  Uiso   1.00
H625   H     0.21436   0.17310   0.45618   0.00000  Uiso   1.00
H626   H     0.44718   0.12601   0.59971   0.00000  Uiso   1.00
H627   H     0.29160   0.33343   0.44607   0.00000  Uiso   1.00
H628   H     0.42501   0.17735   0.62067   0.00000  Uiso   1.00
H629   H     0.44947   0.13638   0.65873   0.00000  Uiso   1.00
H630   H     0.04695   0.12391   0.40101   0.00000  Uiso   1.00
H631   H     0.07142   0.17427   0.38018   0.00000  Uiso   1.00
H632   H     0.04559   0.13445   0.34194   0.00000  Uiso   1.00
N633   N     0.00000   0.25000   0.61907   0.00000  Uiso   1.00
N634   N    -0.00000   0.25000   0.38093   0.00000  Uiso   1.00
N635   N     0.25000   0.00000   0.61907   0.00000  Uiso   1.00
N636   N     0.25000   0.00000   0.38093   0.00000  Uiso   1.00
O637   O     0.04580   0.20419   0.53821   0.00000  Uiso   1.00
O638   O     0.20419   0.04581   0.46179   0.00000  Uiso   1.00
O639   O     0.20419   0.04581   0.53821   0.00000  Uiso   1.00
O640   O     0.29580   0.45419   0.46179   0.00000  Uiso   1.00
O641   O     0.20419   0.45419   0.46179   0.00000  Uiso   1.00
O642   O     0.29580   0.04581   0.53821   0.00000  Uiso   1.00
O643   O     0.29580   0.04581   0.46179   0.00000  Uiso   1.00
O644   O     0.20419   0.45419   0.53821   0.00000  Uiso   1.00
O645   O     0.49854   0.32882   0.38116   0.00000  Uiso   1.00
O646   O     0.49474   0.17129   0.61888   0.00000  Uiso   1.00
O647   O     0.00150   0.17118   0.38135   0.00000  Uiso   1.00
O648   O     0.45419   0.29581   0.46179   0.00000  Uiso   1.00
O649   O     0.00523   0.32871   0.61871   0.00000  Uiso   1.00
O650   O     0.28624   0.07028   0.38007   0.00000  Uiso   1.00
O651   O     0.20424   0.43513   0.62081   0.00000  Uiso   1.00
O652   O     0.21337   0.42993   0.38014   0.00000  Uiso   1.00
O653   O     0.29546   0.06508   0.62074   0.00000  Uiso   1.00
O654   O     0.45676   0.11063   0.45782   0.00000  Uiso   1.00
O655   O     0.13828   0.29351   0.54401   0.00000  Uiso   1.00
O656   O     0.04408   0.38860   0.45573   0.00000  Uiso   1.00
O657   O     0.36116   0.20712   0.54239   0.00000  Uiso   1.00
O658   O     0.14764   0.21042   0.46732   0.00000  Uiso   1.00
O659   O     0.45419   0.29581   0.53821   0.00000  Uiso   1.00
O660   O     0.35710   0.28863   0.47407   0.00000  Uiso   1.00
O661   O     0.46155   0.39944   0.52975   0.00000  Uiso   1.00
O662   O     0.03942   0.10760   0.53049   0.00000  Uiso   1.00
O663   O     0.11541   0.45215   0.44815   0.00000  Uiso   1.00
O664   O     0.29664   0.13643   0.54913   0.00000  Uiso   1.00
O665   O     0.38522   0.04724   0.44944   0.00000  Uiso   1.00
O666   O     0.20289   0.36405   0.55026   0.00000  Uiso   1.00
O667   O     0.39857   0.46163   0.53054   0.00000  Uiso   1.00
O668   O     0.10897   0.04152   0.53755   0.00000  Uiso   1.00
O669   O     0.21114   0.14219   0.46739   0.00000  Uiso   1.00
O670   O     0.04580   0.20419   0.46179   0.00000  Uiso   1.00
O671   O     0.29053   0.35759   0.46866   0.00000  Uiso   1.00
O672   O     0.45419   0.20419   0.46179   0.00000  Uiso   1.00
O673   O     0.04580   0.29581   0.53821   0.00000  Uiso   1.00
O674   O     0.04580   0.29581   0.46179   0.00000  Uiso   1.00
O675   O     0.45419   0.20419   0.53821   0.00000  Uiso   1.00
O676   O     0.29580   0.45419   0.53821   0.00000  Uiso   1.00
Zn677  Zn   -0.00000   0.25000   0.55104   0.00000  Uiso   1.00
Zn678  Zn    0.00000   0.25000   0.44896   0.00000  Uiso   1.00
Zn679  Zn    0.25000   0.00000   0.55104   0.00000  Uiso   1.00
Zn680  Zn    0.25000   0.00000   0.44896   0.00000  Uiso   1.00
C681   C     0.56000   0.19036   0.50006   0.00000  Uiso   1.00
C682   C     0.99758   0.21078   0.64261   0.00000  Uiso   1.00
C683   C     0.50051   0.21072   0.35750   0.00000  Uiso   1.00
C684   C     0.50242   0.28922   0.64252   0.00000  Uiso   1.00
C685   C     0.76836   0.03452   0.35731   0.00000  Uiso   1.00
C686   C     0.72814   0.46754   0.64298   0.00000  Uiso   1.00
C687   C     0.73155   0.46554   0.35735   0.00000  Uiso   1.00
C688   C     0.77179   0.03252   0.64295   0.00000  Uiso   1.00
C689   C     0.91533   0.11743   0.47679   0.00000  Uiso   1.00
C690   C     0.63220   0.33466   0.52384   0.00000  Uiso   1.00
C691   C     0.58510   0.38217   0.47583   0.00000  Uiso   1.00
C692   C     0.94069   0.31029   0.49996   0.00000  Uiso   1.00
C693   C     0.86753   0.16565   0.52310   0.00000  Uiso   1.00
C694   C     0.63628   0.16850   0.48324   0.00000  Uiso   1.00
C695   C     0.86576   0.33254   0.48536   0.00000  Uiso   1.00
C696   C     0.91948   0.38723   0.51526   0.00000  Uiso   1.00
C697   C     0.58274   0.11578   0.51720   0.00000  Uiso   1.00
C698   C     0.61890   0.41387   0.47388   0.00000  Uiso   1.00
C699   C     0.83550   0.13210   0.52474   0.00000  Uiso   1.00
C700   C     0.88148   0.08577   0.47466   0.00000  Uiso   1.00
C701   C     0.66426   0.36816   0.52535   0.00000  Uiso   1.00
C702   C     0.88681   0.41946   0.51571   0.00000  Uiso   1.00
C703   C     0.94022   0.19012   0.50001   0.00000  Uiso   1.00
C704   C     0.61576   0.08312   0.51864   0.00000  Uiso   1.00
C705   C     0.66822   0.13498   0.48258   0.00000  Uiso   1.00
C706   C     0.83311   0.36556   0.48428   0.00000  Uiso   1.00
C707   C     0.59296   0.34294   0.50000   0.00000  Uiso   1.00
C708   C     0.90707   0.15704   0.50004   0.00000  Uiso   1.00
C709   C     0.90844   0.34422   0.49978   0.00000  Uiso   1.00
C710   C     0.59384   0.15795   0.50039   0.00000  Uiso   1.00
C711   C     0.84288   0.09325   0.49981   0.00000  Uiso   1.00
C712   C     0.65715   0.40673   0.49978   0.00000  Uiso   1.00
C713   C     0.65713   0.09312   0.49993   0.00000  Uiso   1.00
C714   C     0.55978   0.30989   0.50001   0.00000  Uiso   1.00
C715   C     0.84397   0.40806   0.50021   0.00000  Uiso   1.00
C716   C     0.95674   0.34943   0.37510   0.00000  Uiso   1.00
C717   C     0.95218   0.15244   0.62526   0.00000  Uiso   1.00
C718   C     0.54328   0.15055   0.37538   0.00000  Uiso   1.00
C719   C     0.54777   0.34759   0.62514   0.00000  Uiso   1.00
C720   C     0.75700   0.10683   0.37604   0.00000  Uiso   1.00
C721   C     0.65848   0.44493   0.62515   0.00000  Uiso   1.00
C722   C     0.74236   0.39318   0.37642   0.00000  Uiso   1.00
C723   C     0.84129   0.05564   0.62527   0.00000  Uiso   1.00
C724   C     0.81000   0.44034   0.50006   0.00000  Uiso   1.00
C725   C     0.69005   0.05973   0.49998   0.00000  Uiso   1.00
C726   C     0.69023   0.44002   0.49996   0.00000  Uiso   1.00
C727   C     0.80976   0.05999   0.49997   0.00000  Uiso   1.00
C728   C     0.99950   0.28928   0.35740   0.00000  Uiso   1.00
H729   H     0.95314   0.37612   0.40061   0.00000  Uiso   1.00
H730   H     0.55278   0.37397   0.59949   0.00000  Uiso   1.00
H731   H     0.57496   0.32268   0.62076   0.00000  Uiso   1.00
H732   H     0.55046   0.36372   0.65855   0.00000  Uiso   1.00
H733   H     0.76971   0.13432   0.39735   0.00000  Uiso   1.00
H734   H     0.72293   0.09831   0.38787   0.00000  Uiso   1.00
H735   H     0.75566   0.11950   0.34098   0.00000  Uiso   1.00
H736   H     0.63926   0.42021   0.60541   0.00000  Uiso   1.00
H737   H     0.65046   0.47860   0.61148   0.00000  Uiso   1.00
H738   H     0.64714   0.44221   0.66054   0.00000  Uiso   1.00
H739   H     0.72939   0.36584   0.39781   0.00000  Uiso   1.00
H740   H     0.92862   0.32572   0.37999   0.00000  Uiso   1.00
H741   H     0.77645   0.40150   0.38839   0.00000  Uiso   1.00
H742   H     0.74369   0.38044   0.34143   0.00000  Uiso   1.00
H743   H     0.86033   0.08049   0.60551   0.00000  Uiso   1.00
H744   H     0.84958   0.02203   0.61174   0.00000  Uiso   1.00
H745   H     0.85259   0.05849   0.66069   0.00000  Uiso   1.00
H746   H     0.96285   0.07820   0.45654   0.00000  Uiso   1.00
H747   H     0.67049   0.28672   0.54516   0.00000  Uiso   1.00
H748   H     0.53786   0.42099   0.45392   0.00000  Uiso   1.00
H749   H     0.82891   0.21368   0.54344   0.00000  Uiso   1.00
H750   H     0.62480   0.23265   0.47550   0.00000  Uiso   1.00
H751   H     0.95434   0.36547   0.34158   0.00000  Uiso   1.00
H752   H     0.82569   0.28177   0.48119   0.00000  Uiso   1.00
H753   H     0.98319   0.37528   0.52422   0.00000  Uiso   1.00
H754   H     0.53273   0.07555   0.52621   0.00000  Uiso   1.00
H755   H     0.59656   0.44572   0.42164   0.00000  Uiso   1.00
H756   H     0.80253   0.15557   0.57555   0.00000  Uiso   1.00
H757   H     0.90467   0.05329   0.42333   0.00000  Uiso   1.00
H758   H     0.69678   0.34513   0.57682   0.00000  Uiso   1.00
H759   H     0.87466   0.48336   0.52419   0.00000  Uiso   1.00
H760   H     0.58630   0.04411   0.56147   0.00000  Uiso   1.00
H761   H     0.71436   0.17310   0.45618   0.00000  Uiso   1.00
H762   H     0.94718   0.12601   0.59971   0.00000  Uiso   1.00
H763   H     0.79160   0.33343   0.44607   0.00000  Uiso   1.00
H764   H     0.92501   0.17735   0.62067   0.00000  Uiso   1.00
H765   H     0.94947   0.13638   0.65873   0.00000  Uiso   1.00
H766   H     0.54695   0.12391   0.40101   0.00000  Uiso   1.00
H767   H     0.57142   0.17427   0.38018   0.00000  Uiso   1.00
H768   H     0.54559   0.13445   0.34194   0.00000  Uiso   1.00
N769   N     0.50000   0.25000   0.61907   0.00000  Uiso   1.00
N770   N     0.50000   0.25000   0.38093   0.00000  Uiso   1.00
N771   N     0.75000   0.00000   0.61907   0.00000  Uiso   1.00
N772   N     0.75000   0.00000   0.38093   0.00000  Uiso   1.00
O773   O     0.54580   0.20419   0.53821   0.00000  Uiso   1.00
O774   O     0.70419   0.04581   0.46179   0.00000  Uiso   1.00
O775   O     0.70419   0.04581   0.53821   0.00000  Uiso   1.00
O776   O     0.79580   0.45419   0.46179   0.00000  Uiso   1.00
O777   O     0.70419   0.45419   0.46179   0.00000  Uiso   1.00
O778   O     0.79580   0.04581   0.53821   0.00000  Uiso   1.00
O779   O     0.79580   0.04581   0.46179   0.00000  Uiso   1.00
O780   O     0.70419   0.45419   0.53821   0.00000  Uiso   1.00
O781   O     0.99854   0.32882   0.38116   0.00000  Uiso   1.00
O782   O     0.99474   0.17129   0.61888   0.00000  Uiso   1.00
O783   O     0.50150   0.17118   0.38135   0.00000  Uiso   1.00
O784   O     0.95419   0.29581   0.46179   0.00000  Uiso   1.00
O785   O     0.50523   0.32871   0.61871   0.00000  Uiso   1.00
O786   O     0.78624   0.07028   0.38007   0.00000  Uiso   1.00
O787   O     0.70424   0.43513   0.62081   0.00000  Uiso   1.00
O788   O     0.71337   0.42993   0.38014   0.00000  Uiso   1.00
O789   O     0.79546   0.06508   0.62074   0.00000  Uiso   1.00
O790   O     0.95676   0.11063   0.45782   0.00000  Uiso   1.00
O791   O     0.63828   0.29351   0.54401   0.00000  Uiso   1.00
O792   O     0.54408   0.38860   0.45573   0.00000  Uiso   1.00
O793   O     0.86116   0.20712   0.54239   0.00000  Uiso   1.00
O794   O     0.64764   0.21042   0.46732   0.00000  Uiso   1.00
O795   O     0.95419   0.29581   0.53821   0.00000  Uiso   1.00
O796   O     0.85710   0.28863   0.47407   0.00000  Uiso   1.00
O797   O     0.96155   0.39944   0.52975   0.00000  Uiso   1.00
O798   O     0.53942   0.10760   0.53049   0.00000  Uiso   1.00
O799   O     0.61541   0.45215   0.44815   0.00000  Uiso   1.00
O800   O     0.79664   0.13643   0.54913   0.00000  Uiso   1.00
O801   O     0.88522   0.04724   0.44944   0.00000  Uiso   1.00
O802   O     0.70289   0.36405   0.55026   0.00000  Uiso   1.00
O803   O     0.89857   0.46163   0.53054   0.00000  Uiso   1.00
O804   O     0.60897   0.04152   0.53755   0.00000  Uiso   1.00
O805   O     0.71114   0.14219   0.46739   0.00000  Uiso   1.00
O806   O     0.54580   0.20419   0.46179   0.00000  Uiso   1.00
O807   O     0.79053   0.35759   0.46866   0.00000  Uiso   1.00
O808   O     0.95419   0.20419   0.46179   0.00000  Uiso   1.00
O809   O     0.54580   0.29581   0.53821   0.00000  Uiso   1.00
O810   O     0.54580   0.29581   0.46179   0.00000  Uiso   1.00
O811   O     0.95419   0.20419   0.53821   0.00000  Uiso   1.00
O812   O     0.79580   0.45419   0.53821   0.00000  Uiso   1.00
Zn813  Zn    0.50000   0.25000   0.55104   0.00000  Uiso   1.00
Zn814  Zn    0.50000   0.25000   0.44896   0.00000  Uiso   1.00
Zn815  Zn    0.75000   0.00000   0.55104   0.00000  Uiso   1.00
Zn816  Zn    0.75000   0.00000   0.44896   0.00000  Uiso   1.00
C817   C     0.06000   0.69036   0.50006   0.00000  Uiso   1.00
C818   C     0.49758   0.71078   0.64261   0.00000  Uiso   1.00
C819   C     0.00051   0.71072   0.35750   0.00000  Uiso   1.00
C820   C     0.00242   0.78922   0.64252   0.00000  Uiso   1.00
C821   C     0.26836   0.53452   0.35731   0.00000  Uiso   1.00
C822   C     0.22814   0.96754   0.64298   0.00000  Uiso   1.00
C823   C     0.23155   0.96554   0.35735   0.00000  Uiso   1.00
C824   C     0.27179   0.53252   0.64295   0.00000  Uiso   1.00
C825   C     0.41533   0.61743   0.47679   0.00000  Uiso   1.00
C826   C     0.13220   0.83466   0.52384   0.00000  Uiso   1.00
C827   C     0.08510   0.88217   0.47583   0.00000  Uiso   1.00
C828   C     0.44069   0.81029   0.49996   0.00000  Uiso   1.00
C829   C     0.36753   0.66565   0.52310   0.00000  Uiso   1.00
C830   C     0.13628   0.66850   0.48324   0.00000  Uiso   1.00
C831   C     0.36576   0.83254   0.48536   0.00000  Uiso   1.00
C832   C     0.41948   0.88723   0.51526   0.00000  Uiso   1.00
C833   C     0.08274   0.61578   0.51720   0.00000  Uiso   1.00
C834   C     0.11890   0.91387   0.47388   0.00000  Uiso   1.00
C835   C     0.33550   0.63210   0.52474   0.00000  Uiso   1.00
C836   C     0.38148   0.58577   0.47466   0.00000  Uiso   1.00
C837   C     0.16426   0.86816   0.52535   0.00000  Uiso   1.00
C838   C     0.38681   0.91946   0.51571   0.00000  Uiso   1.00
C839   C     0.44022   0.69012   0.50001   0.00000  Uiso   1.00
C840   C     0.11576   0.58312   0.51864   0.00000  Uiso   1.00
C841   C     0.16822   0.63498   0.48258   0.00000  Uiso   1.00
C842   C     0.33311   0.86556   0.48428   0.00000  Uiso   1.00
C843   C     0.09296   0.84294   0.50000   0.00000  Uiso   1.00
C844   C     0.40707   0.65704   0.50004   0.00000  Uiso   1.00
C845   C     0.40844   0.84422   0.49978   0.00000  Uiso   1.00
C846   C     0.09384   0.65795   0.50039   0.00000  Uiso   1.00
C847   C     0.34288   0.59325   0.49981   0.00000  Uiso   1.00
C848   C     0.15715   0.90673   0.49978   0.00000  Uiso   1.00
C849   C     0.15713   0.59312   0.49993   0.00000  Uiso   1.00
C850   C     0.05978   0.80989   0.50001   0.00000  Uiso   1.00
C851   C     0.34397   0.90806   0.50021   0.00000  Uiso   1.00
C852   C     0.45674   0.84943   0.37510   0.00000  Uiso   1.00
C853   C     0.45218   0.65244   0.62526   0.00000  Uiso   1.00
C854   C     0.04328   0.65055   0.37538   0.00000  Uiso   1.00
C855   C     0.04777   0.84759   0.62514   0.00000  Uiso   1.00
C856   C     0.25700   0.60683   0.37604   0.00000  Uiso   1.00
C857   C     0.15848   0.94493   0.62515   0.00000  Uiso   1.00
C858   C     0.24236   0.89318   0.37642   0.00000  Uiso   1.00
C859   C     0.34129   0.55564   0.62527   0.00000  Uiso   1.00
C860   C     0.31000   0.94034   0.50006   0.00000  Uiso   1.00
C861   C     0.19005   0.55973   0.49998   0.00000  Uiso   1.00
C862   C     0.19023   0.94002   0.49996   0.00000  Uiso   1.00
C863   C     0.30976   0.55999   0.49997   0.00000  Uiso   1.00
C864   C     0.49950   0.78928   0.35740   0.00000  Uiso   1.00
H865   H     0.45314   0.87612   0.40061   0.00000  Uiso   1.00
H866   H     0.05278   0.87397   0.59949   0.00000  Uiso   1.00
H867   H     0.07496   0.82268   0.62076   0.00000  Uiso   1.00
H868   H     0.05046   0.86372   0.65855   0.00000  Uiso   1.00
H869   H     0.26971   0.63432   0.39735   0.00000  Uiso   1.00
H870   H     0.22293   0.59831   0.38787   0.00000  Uiso   1.00
H871   H     0.25566   0.61950   0.34098   0.00000  Uiso   1.00
H872   H     0.13926   0.92021   0.60541   0.00000  Uiso   1.00
H873   H     0.15046   0.97860   0.61148   0.00000  Uiso   1.00
H874   H     0.14714   0.94221   0.66054   0.00000  Uiso   1.00
H875   H     0.22939   0.86584   0.39781   0.00000  Uiso   1.00
H876   H     0.42862   0.82572   0.37999   0.00000  Uiso   1.00
H877   H     0.27645   0.90150   0.38839   0.00000  Uiso   1.00
H878   H     0.24369   0.88044   0.34143   0.00000  Uiso   1.00
H879   H     0.36033   0.58049   0.60551   0.00000  Uiso   1.00
H880   H     0.34958   0.52203   0.61174   0.00000  Uiso   1.00
H881   H     0.35259   0.55849   0.66069   0.00000  Uiso   1.00
H882   H     0.46285   0.57820   0.45654   0.00000  Uiso   1.00
H883   H     0.17049   0.78672   0.54516   0.00000  Uiso   1.00
H884   H     0.03786   0.92099   0.45392   0.00000  Uiso   1.00
H885   H     0.32891   0.71368   0.54344   0.00000  Uiso   1.00
H886   H     0.12480   0.73265   0.47550   0.00000  Uiso   1.00
H887   H     0.45434   0.86547   0.34158   0.00000  Uiso   1.00
H888   H     0.32569   0.78177   0.48119   0.00000  Uiso   1.00
H889   H     0.48319   0.87528   0.52422   0.00000  Uiso   1.00
H890   H     0.03273   0.57555   0.52621   0.00000  Uiso   1.00
H891   H     0.09656   0.94572   0.42164   0.00000  Uiso   1.00
H892   H     0.30253   0.65557   0.57555   0.00000  Uiso   1.00
H893   H     0.40467   0.55329   0.42333   0.00000  Uiso   1.00
H894   H     0.19678   0.84513   0.57682   0.00000  Uiso   1.00
H895   H     0.37466   0.98336   0.52419   0.00000  Uiso   1.00
H896   H     0.08630   0.54411   0.56147   0.00000  Uiso   1.00
H897   H     0.21436   0.67310   0.45618   0.00000  Uiso   1.00
H898   H     0.44718   0.62601   0.59971   0.00000  Uiso   1.00
H899   H     0.29160   0.83343   0.44607   0.00000  Uiso   1.00
H900   H     0.42501   0.67735   0.62067   0.00000  Uiso   1.00
H901   H     0.44947   0.63638   0.65873   0.00000  Uiso   1.00
H902   H     0.04695   0.62391   0.40101   0.00000  Uiso   1.00
H903   H     0.07142   0.67427   0.38018   0.00000  Uiso   1.00
H904   H     0.04559   0.63445   0.34194   0.00000  Uiso   1.00
N905   N     0.00000   0.75000   0.61907   0.00000  Uiso   1.00
N906   N    -0.00000   0.75000   0.38093   0.00000  Uiso   1.00
N907   N     0.25000   0.50000   0.61907   0.00000  Uiso   1.00
N908   N     0.25000   0.50000   0.38093   0.00000  Uiso   1.00
O909   O     0.04580   0.70419   0.53821   0.00000  Uiso   1.00
O910   O     0.20419   0.54581   0.46179   0.00000  Uiso   1.00
O911   O     0.20419   0.54581   0.53821   0.00000  Uiso   1.00
O912   O     0.29580   0.95419   0.46179   0.00000  Uiso   1.00
O913   O     0.20419   0.95419   0.46179   0.00000  Uiso   1.00
O914   O     0.29580   0.54581   0.53821   0.00000  Uiso   1.00
O915   O     0.29580   0.54581   0.46179   0.00000  Uiso   1.00
O916   O     0.20419   0.95419   0.53821   0.00000  Uiso   1.00
O917   O     0.49854   0.82882   0.38116   0.00000  Uiso   1.00
O918   O     0.49474   0.67129   0.61888   0.00000  Uiso   1.00
O919   O     0.00150   0.67118   0.38135   0.00000  Uiso   1.00
O920   O     0.45419   0.79581   0.46179   0.00000  Uiso   1.00
O921   O     0.00523   0.82871   0.61871   0.00000  Uiso   1.00
O922   O     0.28624   0.57028   0.38007   0.00000  Uiso   1.00
O923   O     0.20424   0.93513   0.62081   0.00000  Uiso   1.00
O924   O     0.21337   0.92993   0.38014   0.00000  Uiso   1.00
O925   O     0.29546   0.56508   0.62074   0.00000  Uiso   1.00
O926   O     0.45676   0.61063   0.45782   0.00000  Uiso   1.00
O927   O     0.13828   0.79351   0.54401   0.00000  Uiso   1.00
O928   O     0.04408   0.88860   0.45573   0.00000  Uiso   1.00
O929   O     0.36116   0.70712   0.54239   0.00000  Uiso   1.00
O930   O     0.14764   0.71042   0.46732   0.00000  Uiso   1.00
O931   O     0.45419   0.79581   0.53821   0.00000  Uiso   1.00
O932   O     0.35710   0.78863   0.47407   0.00000  Uiso   1.00
O933   O     0.46155   0.89944   0.52975   0.00000  Uiso   1.00
O934   O     0.03942   0.60760   0.53049   0.00000  Uiso   1.00
O935   O     0.11541   0.95215   0.44815   0.00000  Uiso   1.00
O936   O     0.29664   0.63643   0.54913   0.00000  Uiso   1.00
O937   O     0.38522   0.54724   0.44944   0.00000  Uiso   1.00
O938   O     0.20289   0.86405   0.55026   0.00000  Uiso   1.00
O939   O     0.39857   0.96163   0.53054   0.00000  Uiso   1.00
O940   O     0.10897   0.54152   0.53755   0.00000  Uiso   1.00
O941   O     0.21114   0.64219   0.46739   0.00000  Uiso   1.00
O942   O     0.04580   0.70419   0.46179   0.00000  Uiso   1.00
O943   O     0.29053   0.85759   0.46866   0.00000  Uiso   1.00
O944   O     0.45419   0.70419   0.46179   0.00000  Uiso   1.00
O945   O     0.04580   0.79581   0.53821   0.00000  Uiso   1.00
O946   O     0.04580   0.79581   0.46179   0.00000  Uiso   1.00
O947   O     0.45419   0.70419   0.53821   0.00000  Uiso   1.00
O948   O     0.29580   0.95419   0.53821   0.00000  Uiso   1.00
Zn949  Zn   -0.00000   0.75000   0.55104   0.00000  Uiso   1.00
Zn950  Zn    0.00000   0.75000   0.44896   0.00000  Uiso   1.00
Zn951  Zn    0.25000   0.50000   0.55104   0.00000  Uiso   1.00
Zn952  Zn    0.25000   0.50000   0.44896   0.00000  Uiso   1.00
C953   C     0.56000   0.69036   0.50006   0.00000  Uiso   1.00
C954   C     0.99758   0.71078   0.64261   0.00000  Uiso   1.00
C955   C     0.50051   0.71072   0.35750   0.00000  Uiso   1.00
C956   C     0.50242   0.78922   0.64252   0.00000  Uiso   1.00
C957   C     0.76836   0.53452   0.35731   0.00000  Uiso   1.00
C958   C     0.72814   0.96754   0.64298   0.00000  Uiso   1.00
C959   C     0.73155   0.96554   0.35735   0.00000  Uiso   1.00
C960   C     0.77179   0.53252   0.64295   0.00000  Uiso   1.00
C961   C     0.91533   0.61743   0.47679   0.00000  Uiso   1.00
C962   C     0.63220   0.83466   0.52384   0.00000  Uiso   1.00
C963   C     0.58510   0.88217   0.47583   0.00000  Uiso   1.00
C964   C     0.94069   0.81029   0.49996   0.00000  Uiso   1.00
C965   C     0.86753   0.66565   0.52310   0.00000  Uiso   1.00
C966   C     0.63628   0.66850   0.48324   0.00000  Uiso   1.00
C967   C     0.86576   0.83254   0.48536   0.00000  Uiso   1.00
C968   C     0.91948   0.88723   0.51526   0.00000  Uiso   1.00
C969   C     0.58274   0.61578   0.51720   0.00000  Uiso   1.00
C970   C     0.61890   0.91387   0.47388   0.00000  Uiso   1.00
C971   C     0.83550   0.63210   0.52474   0.00000  Uiso   1.00
C972   C     0.88148   0.58577   0.47466   0.00000  Uiso   1.00
C973   C     0.66426   0.86816   0.52535   0.00000  Uiso   1.00
C974   C     0.88681   0.91946   0.51571   0.00000  Uiso   1.00
C975   C     0.94022   0.69012   0.50001   0.00000  Uiso   1.00
C976   C     0.61576   0.58312   0.51864   0.00000  Uiso   1.00
C977   C     0.66822   0.63498   0.48258   0.00000  Uiso   1.00
C978   C     0.83311   0.86556   0.48428   0.00000  Uiso   1.00
C979   C     0.59296   0.84294   0.50000   0.00000  Uiso   1.00
C980   C     0.90707   0.65704   0.50004   0.00000  Uiso   1.00
C981   C     0.90844   0.84422   0.49978   0.00000  Uiso   1.00
C982   C     0.59384   0.65795   0.50039   0.00000  Uiso   1.00
C983   C     0.84288   0.59325   0.49981   0.00000  Uiso   1.00
C984   C     0.65715   0.90673   0.49978   0.00000  Uiso   1.00
C985   C     0.65713   0.59312   0.49993   0.00000  Uiso   1.00
C986   C     0.55978   0.80989   0.50001   0.00000  Uiso   1.00
C987   C     0.84397   0.90806   0.50021   0.00000  Uiso   1.00
C988   C     0.95674   0.84943   0.37510   0.00000  Uiso   1.00
C989   C     0.95218   0.65244   0.62526   0.00000  Uiso   1.00
C990   C     0.54328   0.65055   0.37538   0.00000  Uiso   1.00
C991   C     0.54777   0.84759   0.62514   0.00000  Uiso   1.00
C992   C     0.75700   0.60683   0.37604   0.00000  Uiso   1.00
C993   C     0.65848   0.94493   0.62515   0.00000  Uiso   1.00
C994   C     0.74236   0.89318   0.37642   0.00000  Uiso   1.00
C995   C     0.84129   0.55564   0.62527   0.00000  Uiso   1.00
C996   C     0.81000   0.94034   0.50006   0.00000  Uiso   1.00
C997   C     0.69005   0.55973   0.49998   0.00000  Uiso   1.00
C998   C     0.69023   0.94002   0.49996   0.00000  Uiso   1.00
C999   C     0.80976   0.55999   0.49997   0.00000  Uiso   1.00
C1000  C     0.99950   0.78928   0.35740   0.00000  Uiso   1.00
H1001  H     0.95314   0.87612   0.40061   0.00000  Uiso   1.00
H1002  H     0.55278   0.87397   0.59949   0.00000  Uiso   1.00
H1003  H     0.57496   0.82268   0.62076   0.00000  Uiso   1.00
H1004  H     0.55046   0.86372   0.65855   0.00000  Uiso   1.00
H1005  H     0.76971   0.63432   0.39735   0.00000  Uiso   1.00
H1006  H     0.72293   0.59831   0.38787   0.00000  Uiso   1.00
H1007  H     0.75566   0.61950   0.34098   0.00000  Uiso   1.00
H1008  H     0.63926   0.92021   0.60541   0.00000  Uiso   1.00
H1009  H     0.65046   0.97860   0.61148   0.00000  Uiso   1.00
H1010  H     0.64714   0.94221   0.66054   0.00000  Uiso   1.00
H1011  H     0.72939   0.86584   0.39781   0.00000  Uiso   1.00
H1012  H     0.92862   0.82572   0.37999   0.00000  Uiso   1.00
H1013  H     0.77645   0.90150   0.38839   0.00000  Uiso   1.00
H1014  H     0.74369   0.88044   0.34143   0.00000  Uiso   1.00
H1015  H     0.86033   0.58049   0.60551   0.00000  Uiso   1.00
H1016  H     0.84958   0.52203   0.61174   0.00000  Uiso   1.00
H1017  H     0.85259   0.55849   0.66069   0.00000  Uiso   1.00
H1018  H     0.96285   0.57820   0.45654   0.00000  Uiso   1.00
H1019  H     0.67049   0.78672   0.54516   0.00000  Uiso   1.00
H1020  H     0.53786   0.92099   0.45392   0.00000  Uiso   1.00
H1021  H     0.82891   0.71368   0.54344   0.00000  Uiso   1.00
H1022  H     0.62480   0.73265   0.47550   0.00000  Uiso   1.00
H1023  H     0.95434   0.86547   0.34158   0.00000  Uiso   1.00
H1024  H     0.82569   0.78177   0.48119   0.00000  Uiso   1.00
H1025  H     0.98319   0.87528   0.52422   0.00000  Uiso   1.00
H1026  H     0.53273   0.57555   0.52621   0.00000  Uiso   1.00
H1027  H     0.59656   0.94572   0.42164   0.00000  Uiso   1.00
H1028  H     0.80253   0.65557   0.57555   0.00000  Uiso   1.00
H1029  H     0.90467   0.55329   0.42333   0.00000  Uiso   1.00
H1030  H     0.69678   0.84513   0.57682   0.00000  Uiso   1.00
H1031  H     0.87466   0.98336   0.52419   0.00000  Uiso   1.00
H1032  H     0.58630   0.54411   0.56147   0.00000  Uiso   1.00
H1033  H     0.71436   0.67310   0.45618   0.00000  Uiso   1.00
H1034  H     0.94718   0.62601   0.59971   0.00000  Uiso   1.00
H1035  H     0.79160   0.83343   0.44607   0.00000  Uiso   1.00
H1036  H     0.92501   0.67735   0.62067   0.00000  Uiso   1.00
H1037  H     0.94947   0.63638   0.65873   0.00000  Uiso   1.00
H1038  H     0.54695   0.62391   0.40101   0.00000  Uiso   1.00
H1039  H     0.57142   0.67427   0.38018   0.00000  Uiso   1.00
H1040  H     0.54559   0.63445   0.34194   0.00000  Uiso   1.00
N1041  N     0.50000   0.75000   0.61907   0.00000  Uiso   1.00
N1042  N     0.50000   0.75000   0.38093   0.00000  Uiso   1.00
N1043  N     0.75000   0.50000   0.61907   0.00000  Uiso   1.00
N1044  N     0.75000   0.50000   0.38093   0.00000  Uiso   1.00
O1045  O     0.54580   0.70419   0.53821   0.00000  Uiso   1.00
O1046  O     0.70419   0.54581   0.46179   0.00000  Uiso   1.00
O1047  O     0.70419   0.54581   0.53821   0.00000  Uiso   1.00
O1048  O     0.79580   0.95419   0.46179   0.00000  Uiso   1.00
O1049  O     0.70419   0.95419   0.46179   0.00000  Uiso   1.00
O1050  O     0.79580   0.54581   0.53821   0.00000  Uiso   1.00
O1051  O     0.79580   0.54581   0.46179   0.00000  Uiso   1.00
O1052  O     0.70419   0.95419   0.53821   0.00000  Uiso   1.00
O1053  O     0.99854   0.82882   0.38116   0.00000  Uiso   1.00
O1054  O     0.99474   0.67129   0.61888   0.00000  Uiso   1.00
O1055  O     0.50150   0.67118   0.38135   0.00000  Uiso   1.00
O1056  O     0.95419   0.79581   0.46179   0.00000  Uiso   1.00
O1057  O     0.50523   0.82871   0.61871   0.00000  Uiso   1.00
O1058  O     0.78624   0.57028   0.38007   0.00000  Uiso   1.00
O1059  O     0.70424   0.93513   0.62081   0.00000  Uiso   1.00
O1060  O     0.71337   0.92993   0.38014   0.00000  Uiso   1.00
O1061  O     0.79546   0.56508   0.62074   0.00000  Uiso   1.00
O1062  O     0.95676   0.61063   0.45782   0.00000  Uiso   1.00
O1063  O     0.63828   0.79351   0.54401   0.00000  Uiso   1.00
O1064  O     0.54408   0.88860   0.45573   0.00000  Uiso   1.00
O1065  O     0.86116   0.70712   0.54239   0.00000  Uiso   1.00
O1066  O     0.64764   0.71042   0.46732   0.00000  Uiso   1.00
O1067  O     0.95419   0.79581   0.53821   0.00000  Uiso   1.00
O1068  O     0.85710   0.78863   0.47407   0.00000  Uiso   1.00
O1069  O     0.96155   0.89944   0.52975   0.00000  Uiso   1.00
O1070  O     0.53942   0.60760   0.53049   0.00000  Uiso   1.00
O1071  O     0.61541   0.95215   0.44815   0.00000  Uiso   1.00
O1072  O     0.79664   0.63643   0.54913   0.00000  Uiso   1.00
O1073  O     0.88522   0.54724   0.44944   0.00000  Uiso   1.00
O1074  O     0.70289   0.86405   0.55026   0.00000  Uiso   1.00
O1075  O     0.89857   0.96163   0.53054   0.00000  Uiso   1.00
O1076  O     0.60897   0.54152   0.53755   0.00000  Uiso   1.00
O1077  O     0.71114   0.64219   0.46739   0.00000  Uiso   1.00
O1078  O     0.54580   0.70419   0.46179   0.00000  Uiso   1.00
O1079  O     0.79053   0.85759   0.46866   0.00000  Uiso   1.00
O1080  O     0.95419   0.70419   0.46179   0.00000  Uiso   1.00
O1081  O     0.54580   0.79581   0.53821   0.00000  Uiso   1.00
O1082  O     0.54580   0.79581   0.46179   0.00000  Uiso   1.00
O1083  O     0.95419   0.70419   0.53821   0.00000  Uiso   1.00
O1084  O     0.79580   0.95419   0.53821   0.00000  Uiso   1.00
Zn1085 Zn    0.50000   0.75000   0.55104   0.00000  Uiso   1.00
Zn1086 Zn    0.50000   0.75000   0.44896   0.00000  Uiso   1.00
Zn1087 Zn    0.75000   0.50000   0.55104   0.00000  Uiso   1.00
Zn1088 Zn    0.75000   0.50000   0.44896   0.00000  Uiso   1.00
C1089  C     0.06000   0.19036   0.83339   0.00000  Uiso   1.00
C1090  C     0.49758   0.21078   0.97594   0.00000  Uiso   1.00
C1091  C     0.00051   0.21072   0.69083   0.00000  Uiso   1.00
C1092  C     0.00242   0.28922   0.97586   0.00000  Uiso   1.00
C1093  C     0.26836   0.03452   0.69065   0.00000  Uiso   1.00
C1094  C     0.22814   0.46754   0.97631   0.00000  Uiso   1.00
C1095  C     0.23155   0.46554   0.69068   0.00000  Uiso   1.00
C1096  C     0.27179   0.03252   0.97628   0.00000  Uiso   1.00
C1097  C     0.41533   0.11743   0.81012   0.00000  Uiso   1.00
C1098  C     0.13220   0.33466   0.85718   0.00000  Uiso   1.00
C1099  C     0.08510   0.38217   0.80916   0.00000  Uiso   1.00
C1100  C     0.44069   0.31029   0.83329   0.00000  Uiso   1.00
C1101  C     0.36753   0.16565   0.85644   0.00000  Uiso   1.00
C1102  C     0.13628   0.16850   0.81657   0.00000  Uiso   1.00
C1103  C     0.36576   0.33254   0.81869   0.00000  Uiso   1.00
C1104  C     0.41948   0.38723   0.84859   0.00000  Uiso   1.00
C1105  C     0.08274   0.11578   0.85053   0.00000  Uiso   1.00
C1106  C     0.11890   0.41387   0.80722   0.00000  Uiso   1.00
C1107  C     0.33550   0.13210   0.85807   0.00000  Uiso   1.00
C1108  C     0.38148   0.08577   0.80799   0.00000  Uiso   1.00
C1109  C     0.16426   0.36816   0.85868   0.00000  Uiso   1.00
C1110  C     0.38681   0.41946   0.84904   0.00000  Uiso   1.00
C1111  C     0.44022   0.19012   0.83334   0.00000  Uiso   1.00
C1112  C     0.11576   0.08312   0.85197   0.00000  Uiso   1.00
C1113  C     0.16822   0.13498   0.81592   0.00000  Uiso   1.00
C1114  C     0.33311   0.36556   0.81762   0.00000  Uiso   1.00
C1115  C     0.09296   0.34294   0.83333   0.00000  Uiso   1.00
C1116  C     0.40707   0.15704   0.83337   0.00000  Uiso   1.00
C1117  C     0.40844   0.34422   0.83311   0.00000  Uiso   1.00
C1118  C     0.09384   0.15795   0.83372   0.00000  Uiso   1.00
C1119  C     0.34288   0.09325   0.83314   0.00000  Uiso   1.00
C1120  C     0.15715   0.40673   0.83311   0.00000  Uiso   1.00
C1121  C     0.15713   0.09312   0.83327   0.00000  Uiso   1.00
C1122  C     0.05978   0.30989   0.83334   0.00000  Uiso   1.00
C1123  C     0.34397   0.40806   0.83354   0.00000  Uiso   1.00
C1124  C     0.45674   0.34943   0.70843   0.00000  Uiso   1.00
C1125  C     0.45218   0.15244   0.95860   0.00000  Uiso   1.00
C1126  C     0.04328   0.15055   0.70872   0.00000  Uiso   1.00
C1127  C     0.04777   0.34759   0.95848   0.00000  Uiso   1.00
C1128  C     0.25700   0.10683   0.70937   0.00000  Uiso   1.00
C1129  C     0.15848   0.44493   0.95848   0.00000  Uiso   1.00
C1130  C     0.24236   0.39318   0.70976   0.00000  Uiso   1.00
C1131  C     0.34129   0.05564   0.95860   0.00000  Uiso   1.00
C1132  C     0.31000   0.44034   0.83339   0.00000  Uiso   1.00
C1133  C     0.19005   0.05973   0.83331   0.00000  Uiso   1.00
C1134  C     0.19023   0.44002   0.83330   0.00000  Uiso   1.00
C1135  C     0.30976   0.05999   0.83330   0.00000  Uiso   1.00
C1136  C     0.49950   0.28928   0.69074   0.00000  Uiso   1.00
H1137  H     0.45314   0.37612   0.73394   0.00000  Uiso   1.00
H1138  H     0.05278   0.37397   0.93283   0.00000  Uiso   1.00
H1139  H     0.07496   0.32268   0.95409   0.00000  Uiso   1.00
H1140  H     0.05046   0.36372   0.99189   0.00000  Uiso   1.00
H1141  H     0.26971   0.13432   0.73068   0.00000  Uiso   1.00
H1142  H     0.22293   0.09831   0.72120   0.00000  Uiso   1.00
H1143  H     0.25566   0.11950   0.67431   0.00000  Uiso   1.00
H1144  H     0.13926   0.42021   0.93875   0.00000  Uiso   1.00
H1145  H     0.15046   0.47860   0.94481   0.00000  Uiso   1.00
H1146  H     0.14714   0.44221   0.99388   0.00000  Uiso   1.00
H1147  H     0.22939   0.36584   0.73114   0.00000  Uiso   1.00
H1148  H     0.42862   0.32572   0.71332   0.00000  Uiso   1.00
H1149  H     0.27645   0.40150   0.72173   0.00000  Uiso   1.00
H1150  H     0.24369   0.38044   0.67476   0.00000  Uiso   1.00
H1151  H     0.36033   0.08049   0.93884   0.00000  Uiso   1.00
H1152  H     0.34958   0.02203   0.94507   0.00000  Uiso   1.00
H1153  H     0.35259   0.05849   0.99402   0.00000  Uiso   1.00
H1154  H     0.46285   0.07820   0.78987   0.00000  Uiso   1.00
H1155  H     0.17049   0.28672   0.87849   0.00000  Uiso   1.00
H1156  H     0.03786   0.42099   0.78726   0.00000  Uiso   1.00
H1157  H     0.32891   0.21368   0.87677   0.00000  Uiso   1.00
H1158  H     0.12480   0.23265   0.80884   0.00000  Uiso   1.00
H1159  H     0.45434   0.36547   0.67491   0.00000  Uiso   1.00
H1160  H     0.32569   0.28177   0.81452   0.00000  Uiso   1.00
H1161  H     0.48319   0.37528   0.85756   0.00000  Uiso   1.00
H1162  H     0.03273   0.07555   0.85954   0.00000  Uiso   1.00
H1163  H     0.09656   0.44572   0.75498   0.00000  Uiso   1.00
H1164  H     0.30253   0.15557   0.90889   0.00000  Uiso   1.00
H1165  H     0.40467   0.05329   0.75666   0.00000  Uiso   1.00
H1166  H     0.19678   0.34513   0.91015   0.00000  Uiso   1.00
H1167  H     0.37466   0.48336   0.85752   0.00000  Uiso   1.00
H1168  H     0.08630   0.04411   0.89481   0.00000  Uiso   1.00
H1169  H     0.21436   0.17310   0.78951   0.00000  Uiso   1.00
H1170  H     0.44718   0.12601   0.93305   0.00000  Uiso   1.00
H1171  H     0.29160   0.33343   0.77940   0.00000  Uiso   1.00
H1172  H     0.42501   0.17735   0.95400   0.00000  Uiso   1.00
H1173  H     0.44947   0.13638   0.99206   0.00000  Uiso   1.00
H1174  H     0.04695   0.12391   0.73435   0.00000  Uiso   1.00
H1175  H     0.07142   0.17427   0.71351   0.00000  Uiso   1.00
H1176  H     0.04559   0.13445   0.67527   0.00000  Uiso   1.00
N1177  N     0.00000   0.25000   0.95240   0.00000  Uiso   1.00
N1178  N    -0.00000   0.25000   0.71427   0.00000  Uiso   1.00
N1179  N     0.25000   0.00000   0.95240   0.00000  Uiso   1.00
N1180  N     0.25000   0.00000   0.71427   0.00000  Uiso   1.00
O1181  O     0.04580   0.20419   0.87154   0.00000  Uiso   1.00
O1182  O     0.20419   0.04581   0.79513   0.00000  Uiso   1.00
O1183  O     0.20419   0.04581   0.87154   0.00000  Uiso   1.00
O1184  O     0.29580   0.45419   0.79513   0.00000  Uiso   1.00
O1185  O     0.20419   0.45419   0.79513   0.00000  Uiso   1.00
O1186  O     0.29580   0.04581   0.87154   0.00000  Uiso   1.00
O1187  O     0.29580   0.04581   0.79513   0.00000  Uiso   1.00
O1188  O     0.20419   0.45419   0.87154   0.00000  Uiso   1.00
O1189  O     0.49854   0.32882   0.71450   0.00000  Uiso   1.00
O1190  O     0.49474   0.17129   0.95221   0.00000  Uiso   1.00
O1191  O     0.00150   0.17118   0.71469   0.00000  Uiso   1.00
O1192  O     0.45419   0.29581   0.79513   0.00000  Uiso   1.00
O1193  O     0.00523   0.32871   0.95204   0.00000  Uiso   1.00
O1194  O     0.28624   0.07028   0.71340   0.00000  Uiso   1.00
O1195  O     0.20424   0.43513   0.95414   0.00000  Uiso   1.00
O1196  O     0.21337   0.42993   0.71347   0.00000  Uiso   1.00
O1197  O     0.29546   0.06508   0.95407   0.00000  Uiso   1.00
O1198  O     0.45676   0.11063   0.79116   0.00000  Uiso   1.00
O1199  O     0.13828   0.29351   0.87734   0.00000  Uiso   1.00
O1200  O     0.04408   0.38860   0.78906   0.00000  Uiso   1.00
O1201  O     0.36116   0.20712   0.87572   0.00000  Uiso   1.00
O1202  O     0.14764   0.21042   0.80065   0.00000  Uiso   1.00
O1203  O     0.45419   0.29581   0.87154   0.00000  Uiso   1.00
O1204  O     0.35710   0.28863   0.80740   0.00000  Uiso   1.00
O1205  O     0.46155   0.39944   0.86309   0.00000  Uiso   1.00
O1206  O     0.03942   0.10760   0.86382   0.00000  Uiso   1.00
O1207  O     0.11541   0.45215   0.78148   0.00000  Uiso   1.00
O1208  O     0.29664   0.13643   0.88247   0.00000  Uiso   1.00
O1209  O     0.38522   0.04724   0.78277   0.00000  Uiso   1.00
O1210  O     0.20289   0.36405   0.88359   0.00000  Uiso   1.00
O1211  O     0.39857   0.46163   0.86387   0.00000  Uiso   1.00
O1212  O     0.10897   0.04152   0.87088   0.00000  Uiso   1.00
O1213  O     0.21114   0.14219   0.80072   0.00000  Uiso   1.00
O1214  O     0.04580   0.20419   0.79513   0.00000  Uiso   1.00
O1215  O     0.29053   0.35759   0.80199   0.00000  Uiso   1.00
O1216  O     0.45419   0.20419   0.79513   0.00000  Uiso   1.00
O1217  O     0.04580   0.29581   0.87154   0.00000  Uiso   1.00
O1218  O     0.04580   0.29581   0.79513   0.00000  Uiso   1.00
O1219  O     0.45419   0.20419   0.87154   0.00000  Uiso   1.00
O1220  O     0.29580   0.45419   0.87154   0.00000  Uiso   1.00
Zn1221 Zn   -0.00000   0.25000   0.88437   0.00000  Uiso   1.00
Zn1222 Zn    0.00000   0.25000   0.78229   0.00000  Uiso   1.00
Zn1223 Zn    0.25000   0.00000   0.88437   0.00000  Uiso   1.00
Zn1224 Zn    0.25000   0.00000   0.78229   0.00000  Uiso   1.00
C1225  C     0.56000   0.19036   0.83339   0.00000  Uiso   1.00
C1226  C     0.99758   0.21078   0.97594   0.00000  Uiso   1.00
C1227  C     0.50051   0.21072   0.69083   0.00000  Uiso   1.00
C1228  C     0.50242   0.28922   0.97586   0.00000  Uiso   1.00
C1229  C     0.76836   0.03452   0.69065   0.00000  Uiso   1.00
C1230  C     0.72814   0.46754   0.97631   0.00000  Uiso   1.00
C1231  C     0.73155   0.46554   0.69068   0.00000  Uiso   1.00
C1232  C     0.77179   0.03252   0.97628   0.00000  Uiso   1.00
C1233  C     0.91533   0.11743   0.81012   0.00000  Uiso   1.00
C1234  C     0.63220   0.33466   0.85718   0.00000  Uiso   1.00
C1235  C     0.58510   0.38217   0.80916   0.00000  Uiso   1.00
C1236  C     0.94069   0.31029   0.83329   0.00000  Uiso   1.00
C1237  C     0.86753   0.16565   0.85644   0.00000  Uiso   1.00
C1238  C     0.63628   0.16850   0.81657   0.00000  Uiso   1.00
C1239  C     0.86576   0.33254   0.81869   0.00000  Uiso   1.00
C1240  C     0.91948   0.38723   0.84859   0.00000  Uiso   1.00
C1241  C     0.58274   0.11578   0.85053   0.00000  Uiso   1.00
C1242  C     0.61890   0.41387   0.80722   0.00000  Uiso   1.00
C1243  C     0.83550   0.13210   0.85807   0.00000  Uiso   1.00
C1244  C     0.88148   0.08577   0.80799   0.00000  Uiso   1.00
C1245  C     0.66426   0.36816   0.85868   0.00000  Uiso   1.00
C1246  C     0.88681   0.41946   0.84904   0.00000  Uiso   1.00
C1247  C     0.94022   0.19012   0.83334   0.00000  Uiso   1.00
C1248  C     0.61576   0.08312   0.85197   0.00000  Uiso   1.00
C1249  C     0.66822   0.13498   0.81592   0.00000  Uiso   1.00
C1250  C     0.83311   0.36556   0.81762   0.00000  Uiso   1.00
C1251  C     0.59296   0.34294   0.83333   0.00000  Uiso   1.00
C1252  C     0.90707   0.15704   0.83337   0.00000  Uiso   1.00
C1253  C     0.90844   0.34422   0.83311   0.00000  Uiso   1.00
C1254  C     0.59384   0.15795   0.83372   0.00000  Uiso   1.00
C1255  C     0.84288   0.09325   0.83314   0.00000  Uiso   1.00
C1256  C     0.65715   0.40673   0.83311   0.00000  Uiso   1.00
C1257  C     0.65713   0.09312   0.83327   0.00000  Uiso   1.00
C1258  C     0.55978   0.30989   0.83334   0.00000  Uiso   1.00
C1259  C     0.84397   0.40806   0.83354   0.00000  Uiso   1.00
C1260  C     0.95674   0.34943   0.70843   0.00000  Uiso   1.00
C1261  C     0.95218   0.15244   0.95860   0.00000  Uiso   1.00
C1262  C     0.54328   0.15055   0.70872   0.00000  Uiso   1.00
C1263  C     0.54777   0.34759   0.95848   0.00000  Uiso   1.00
C1264  C     0.75700   0.10683   0.70937   0.00000  Uiso   1.00
C1265  C     0.65848   0.44493   0.95848   0.00000  Uiso   1.00
C1266  C     0.74236   0.39318   0.70976   0.00000  Uiso   1.00
C1267  C     0.84129   0.05564   0.95860   0.00000  Uiso   1.00
C1268  C     0.81000   0.44034   0.83339   0.00000  Uiso   1.00
C1269  C     0.69005   0.05973   0.83331   0.00000  Uiso   1.00
C1270  C     0.69023   0.44002   0.83330   0.00000  Uiso   1.00
C1271  C     0.80976   0.05999   0.83330   0.00000  Uiso   1.00
C1272  C     0.99950   0.28928   0.69074   0.00000  Uiso   1.00
H1273  H     0.95314   0.37612   0.73394   0.00000  Uiso   1.00
H1274  H     0.55278   0.37397   0.93283   0.00000  Uiso   1.00
H1275  H     0.57496   0.32268   0.95409   0.00000  Uiso   1.00
H1276  H     0.55046   0.36372   0.99189   0.00000  Uiso   1.00
H1277  H     0.76971   0.13432   0.73068   0.00000  Uiso   1.00
H1278  H     0.72293   0.09831   0.72120   0.00000  Uiso   1.00
H1279  H     0.75566   0.11950   0.67431   0.00000  Uiso   1.00
H1280  H     0.63926   0.42021   0.93875   0.00000  Uiso   1.00
H1281  H     0.65046   0.47860   0.94481   0.00000  Uiso   1.00
H1282  H     0.64714   0.44221   0.99388   0.00000  Uiso   1.00
H1283  H     0.72939   0.36584   0.73114   0.00000  Uiso   1.00
H1284  H     0.92862   0.32572   0.71332   0.00000  Uiso   1.00
H1285  H     0.77645   0.40150   0.72173   0.00000  Uiso   1.00
H1286  H     0.74369   0.38044   0.67476   0.00000  Uiso   1.00
H1287  H     0.86033   0.08049   0.93884   0.00000  Uiso   1.00
H1288  H     0.84958   0.02203   0.94507   0.00000  Uiso   1.00
H1289  H     0.85259   0.05849   0.99402   0.00000  Uiso   1.00
H1290  H     0.96285   0.07820   0.78987   0.00000  Uiso   1.00
H1291  H     0.67049   0.28672   0.87849   0.00000  Uiso   1.00
H1292  H     0.53786   0.42099   0.78726   0.00000  Uiso   1.00
H1293  H     0.82891   0.21368   0.87677   0.00000  Uiso   1.00
H1294  H     0.62480   0.23265   0.80884   0.00000  Uiso   1.00
H1295  H     0.95434   0.36547   0.67491   0.00000  Uiso   1.00
H1296  H     0.82569   0.28177   0.81452   0.00000  Uiso   1.00
H1297  H     0.98319   0.37528   0.85756   0.00000  Uiso   1.00
H1298  H     0.53273   0.07555   0.85954   0.00000  Uiso   1.00
H1299  H     0.59656   0.44572   0.75498   0.00000  Uiso   1.00
H1300  H     0.80253   0.15557   0.90889   0.00000  Uiso   1.00
H1301  H     0.90467   0.05329   0.75666   0.00000  Uiso   1.00
H1302  H     0.69678   0.34513   0.91015   0.00000  Uiso   1.00
H1303  H     0.87466   0.48336   0.85752   0.00000  Uiso   1.00
H1304  H     0.58630   0.04411   0.89481   0.00000  Uiso   1.00
H1305  H     0.71436   0.17310   0.78951   0.00000  Uiso   1.00
H1306  H     0.94718   0.12601   0.93305   0.00000  Uiso   1.00
H1307  H     0.79160   0.33343   0.77940   0.00000  Uiso   1.00
H1308  H     0.92501   0.17735   0.95400   0.00000  Uiso   1.00
H1309  H     0.94947   0.13638   0.99206   0.00000  Uiso   1.00
H1310  H     0.54695   0.12391   0.73435   0.00000  Uiso   1.00
H1311  H     0.57142   0.17427   0.71351   0.00000  Uiso   1.00
H1312  H     0.54559   0.13445   0.67527   0.00000  Uiso   1.00
N1313  N     0.50000   0.25000   0.95240   0.00000  Uiso   1.00
N1314  N     0.50000   0.25000   0.71427   0.00000  Uiso   1.00
N1315  N     0.75000   0.00000   0.95240   0.00000  Uiso   1.00
N1316  N     0.75000   0.00000   0.71427   0.00000  Uiso   1.00
O1317  O     0.54580   0.20419   0.87154   0.00000  Uiso   1.00
O1318  O     0.70419   0.04581   0.79513   0.00000  Uiso   1.00
O1319  O     0.70419   0.04581   0.87154   0.00000  Uiso   1.00
O1320  O     0.79580   0.45419   0.79513   0.00000  Uiso   1.00
O1321  O     0.70419   0.45419   0.79513   0.00000  Uiso   1.00
O1322  O     0.79580   0.04581   0.87154   0.00000  Uiso   1.00
O1323  O     0.79580   0.04581   0.79513   0.00000  Uiso   1.00
O1324  O     0.70419   0.45419   0.87154   0.00000  Uiso   1.00
O1325  O     0.99854   0.32882   0.71450   0.00000  Uiso   1.00
O1326  O     0.99474   0.17129   0.95221   0.00000  Uiso   1.00
O1327  O     0.50150   0.17118   0.71469   0.00000  Uiso   1.00
O1328  O     0.95419   0.29581   0.79513   0.00000  Uiso   1.00
O1329  O     0.50523   0.32871   0.95204   0.00000  Uiso   1.00
O1330  O     0.78624   0.07028   0.71340   0.00000  Uiso   1.00
O1331  O     0.70424   0.43513   0.95414   0.00000  Uiso   1.00
O1332  O     0.71337   0.42993   0.71347   0.00000  Uiso   1.00
O1333  O     0.79546   0.06508   0.95407   0.00000  Uiso   1.00
O1334  O     0.95676   0.11063   0.79116   0.00000  Uiso   1.00
O1335  O     0.63828   0.29351   0.87734   0.00000  Uiso   1.00
O1336  O     0.54408   0.38860   0.78906   0.00000  Uiso   1.00
O1337  O     0.86116   0.20712   0.87572   0.00000  Uiso   1.00
O1338  O     0.64764   0.21042   0.80065   0.00000  Uiso   1.00
O1339  O     0.95419   0.29581   0.87154   0.00000  Uiso   1.00
O1340  O     0.85710   0.28863   0.80740   0.00000  Uiso   1.00
O1341  O     0.96155   0.39944   0.86309   0.00000  Uiso   1.00
O1342  O     0.53942   0.10760   0.86382   0.00000  Uiso   1.00
O1343  O     0.61541   0.45215   0.78148   0.00000  Uiso   1.00
O1344  O     0.79664   0.13643   0.88247   0.00000  Uiso   1.00
O1345  O     0.88522   0.04724   0.78277   0.00000  Uiso   1.00
O1346  O     0.70289   0.36405   0.88359   0.00000  Uiso   1.00
O1347  O     0.89857   0.46163   0.86387   0.00000  Uiso   1.00
O1348  O     0.60897   0.04152   0.87088   0.00000  Uiso   1.00
O1349  O     0.71114   0.14219   0.80072   0.00000  Uiso   1.00
O1350  O     0.54580   0.20419   0.79513   0.00000  Uiso   1.00
O1351  O     0.79053   0.35759   0.80199   0.00000  Uiso   1.00
O1352  O     0.95419   0.20419   0.79513   0.00000  Uiso   1.00
O1353  O     0.54580   0.29581   0.87154   0.00000  Uiso   1.00
O1354  O     0.54580   0.29581   0.79513   0.00000  Uiso   1.00
O1355  O     0.95419   0.20419   0.87154   0.00000  Uiso   1.00
O1356  O     0.79580   0.45419   0.87154   0.00000  Uiso   1.00
Zn1357 Zn    0.50000   0.25000   0.88437   0.00000  Uiso   1.00
Zn1358 Zn    0.50000   0.25000   0.78229   0.00000  Uiso   1.00
Zn1359 Zn    0.75000   0.00000   0.88437   0.00000  Uiso   1.00
Zn1360 Zn    0.75000   0.00000   0.78229   0.00000  Uiso   1.00
C1361  C     0.06000   0.69036   0.83339   0.00000  Uiso   1.00
C1362  C     0.49758   0.71078   0.97594   0.00000  Uiso   1.00
C1363  C     0.00051   0.71072   0.69083   0.00000  Uiso   1.00
C1364  C     0.00242   0.78922   0.97586   0.00000  Uiso   1.00
C1365  C     0.26836   0.53452   0.69065   0.00000  Uiso   1.00
C1366  C     0.22814   0.96754   0.97631   0.00000  Uiso   1.00
C1367  C     0.23155   0.96554   0.69068   0.00000  Uiso   1.00
C1368  C     0.27179   0.53252   0.97628   0.00000  Uiso   1.00
C1369  C     0.41533   0.61743   0.81012   0.00000  Uiso   1.00
C1370  C     0.13220   0.83466   0.85718   0.00000  Uiso   1.00
C1371  C     0.08510   0.88217   0.80916   0.00000  Uiso   1.00
C1372  C     0.44069   0.81029   0.83329   0.00000  Uiso   1.00
C1373  C     0.36753   0.66565   0.85644   0.00000  Uiso   1.00
C1374  C     0.13628   0.66850   0.81657   0.00000  Uiso   1.00
C1375  C     0.36576   0.83254   0.81869   0.00000  Uiso   1.00
C1376  C     0.41948   0.88723   0.84859   0.00000  Uiso   1.00
C1377  C     0.08274   0.61578   0.85053   0.00000  Uiso   1.00
C1378  C     0.11890   0.91387   0.80722   0.00000  Uiso   1.00
C1379  C     0.33550   0.63210   0.85807   0.00000  Uiso   1.00
C1380  C     0.38148   0.58577   0.80799   0.00000  Uiso   1.00
C1381  C     0.16426   0.86816   0.85868   0.00000  Uiso   1.00
C1382  C     0.38681   0.91946   0.84904   0.00000  Uiso   1.00
C1383  C     0.44022   0.69012   0.83334   0.00000  Uiso   1.00
C1384  C     0.11576   0.58312   0.85197   0.00000  Uiso   1.00
C1385  C     0.16822   0.63498   0.81592   0.00000  Uiso   1.00
C1386  C     0.33311   0.86556   0.81762   0.00000  Uiso   1.00
C1387  C     0.09296   0.84294   0.83333   0.00000  Uiso   1.00
C1388  C     0.40707   0.65704   0.83337   0.00000  Uiso   1.00
C1389  C     0.40844   0.84422   0.83311   0.00000  Uiso   1.00
C1390  C     0.09384   0.65795   0.83372   0.00000  Uiso   1.00
C1391  C     0.34288   0.59325   0.83314   0.00000  Uiso   1.00
C1392  C     0.15715   0.90673   0.83311   0.00000  Uiso   1.00
C1393  C     0.15713   0.59312   0.83327   0.00000  Uiso   1.00
C1394  C     0.05978   0.80989   0.83334   0.00000  Uiso   1.00
C1395  C     0.34397   0.90806   0.83354   0.00000  Uiso   1.00
C1396  C     0.45674   0.84943   0.70843   0.00000  Uiso   1.00
C1397  C     0.45218   0.65244   0.95860   0.00000  Uiso   1.00
C1398  C     0.04328   0.65055   0.70872   0.00000  Uiso   1.00
C1399  C     0.04777   0.84759   0.95848   0.00000  Uiso   1.00
C1400  C     0.25700   0.60683   0.70937   0.00000  Uiso   1.00
C1401  C     0.15848   0.94493   0.95848   0.00000  Uiso   1.00
C1402  C     0.24236   0.89318   0.70976   0.00000  Uiso   1.00
C1403  C     0.34129   0.55564   0.95860   0.00000  Uiso   1.00
C1404  C     0.31000   0.94034   0.83339   0.00000  Uiso   1.00
C1405  C     0.19005   0.55973   0.83331   0.00000  Uiso   1.00
C1406  C     0.19023   0.94002   0.83330   0.00000  Uiso   1.00
C1407  C     0.30976   0.55999   0.83330   0.00000  Uiso   1.00
C1408  C     0.49950   0.78928   0.69074   0.00000  Uiso   1.00
H1409  H     0.45314   0.87612   0.73394   0.00000  Uiso   1.00
H1410  H     0.05278   0.87397   0.93283   0.00000  Uiso   1.00
H1411  H     0.07496   0.82268   0.95409   0.00000  Uiso   1.00
H1412  H     0.05046   0.86372   0.99189   0.00000  Uiso   1.00
H1413  H     0.26971   0.63432   0.73068   0.00000  Uiso   1.00
H1414  H     0.22293   0.59831   0.72120   0.00000  Uiso   1.00
H1415  H     0.25566   0.61950   0.67431   0.00000  Uiso   1.00
H1416  H     0.13926   0.92021   0.93875   0.00000  Uiso   1.00
H1417  H     0.15046   0.97860   0.94481   0.00000  Uiso   1.00
H1418  H     0.14714   0.94221   0.99388   0.00000  Uiso   1.00
H1419  H     0.22939   0.86584   0.73114   0.00000  Uiso   1.00
H1420  H     0.42862   0.82572   0.71332   0.00000  Uiso   1.00
H1421  H     0.27645   0.90150   0.72173   0.00000  Uiso   1.00
H1422  H     0.24369   0.88044   0.67476   0.00000  Uiso   1.00
H1423  H     0.36033   0.58049   0.93884   0.00000  Uiso   1.00
H1424  H     0.34958   0.52203   0.94507   0.00000  Uiso   1.00
H1425  H     0.35259   0.55849   0.99402   0.00000  Uiso   1.00
H1426  H     0.46285   0.57820   0.78987   0.00000  Uiso   1.00
H1427  H     0.17049   0.78672   0.87849   0.00000  Uiso   1.00
H1428  H     0.03786   0.92099   0.78726   0.00000  Uiso   1.00
H1429  H     0.32891   0.71368   0.87677   0.00000  Uiso   1.00
H1430  H     0.12480   0.73265   0.80884   0.00000  Uiso   1.00
H1431  H     0.45434   0.86547   0.67491   0.00000  Uiso   1.00
H1432  H     0.32569   0.78177   0.81452   0.00000  Uiso   1.00
H1433  H     0.48319   0.87528   0.85756   0.00000  Uiso   1.00
H1434  H     0.03273   0.57555   0.85954   0.00000  Uiso   1.00
H1435  H     0.09656   0.94572   0.75498   0.00000  Uiso   1.00
H1436  H     0.30253   0.65557   0.90889   0.00000  Uiso   1.00
H1437  H     0.40467   0.55329   0.75666   0.00000  Uiso   1.00
H1438  H     0.19678   0.84513   0.91015   0.00000  Uiso   1.00
H1439  H     0.37466   0.98336   0.85752   0.00000  Uiso   1.00
H1440  H     0.08630   0.54411   0.89481   0.00000  Uiso   1.00
H1441  H     0.21436   0.67310   0.78951   0.00000  Uiso   1.00
H1442  H     0.44718   0.62601   0.93305   0.00000  Uiso   1.00
H1443  H     0.29160   0.83343   0.77940   0.00000  Uiso   1.00
H1444  H     0.42501   0.67735   0.95400   0.00000  Uiso   1.00
H1445  H     0.44947   0.63638   0.99206   0.00000  Uiso   1.00
H1446  H     0.04695   0.62391   0.73435   0.00000  Uiso   1.00
H1447  H     0.07142   0.67427   0.71351   0.00000  Uiso   1.00
H1448  H     0.04559   0.63445   0.67527   0.00000  Uiso   1.00
N1449  N     0.00000   0.75000   0.95240   0.00000  Uiso   1.00
N1450  N    -0.00000   0.75000   0.71427   0.00000  Uiso   1.00
N1451  N     0.25000   0.50000   0.95240   0.00000  Uiso   1.00
N1452  N     0.25000   0.50000   0.71427   0.00000  Uiso   1.00
O1453  O     0.04580   0.70419   0.87154   0.00000  Uiso   1.00
O1454  O     0.20419   0.54581   0.79513   0.00000  Uiso   1.00
O1455  O     0.20419   0.54581   0.87154   0.00000  Uiso   1.00
O1456  O     0.29580   0.95419   0.79513   0.00000  Uiso   1.00
O1457  O     0.20419   0.95419   0.79513   0.00000  Uiso   1.00
O1458  O     0.29580   0.54581   0.87154   0.00000  Uiso   1.00
O1459  O     0.29580   0.54581   0.79513   0.00000  Uiso   1.00
O1460  O     0.20419   0.95419   0.87154   0.00000  Uiso   1.00
O1461  O     0.49854   0.82882   0.71450   0.00000  Uiso   1.00
O1462  O     0.49474   0.67129   0.95221   0.00000  Uiso   1.00
O1463  O     0.00150   0.67118   0.71469   0.00000  Uiso   1.00
O1464  O     0.45419   0.79581   0.79513   0.00000  Uiso   1.00
O1465  O     0.00523   0.82871   0.95204   0.00000  Uiso   1.00
O1466  O     0.28624   0.57028   0.71340   0.00000  Uiso   1.00
O1467  O     0.20424   0.93513   0.95414   0.00000  Uiso   1.00
O1468  O     0.21337   0.92993   0.71347   0.00000  Uiso   1.00
O1469  O     0.29546   0.56508   0.95407   0.00000  Uiso   1.00
O1470  O     0.45676   0.61063   0.79116   0.00000  Uiso   1.00
O1471  O     0.13828   0.79351   0.87734   0.00000  Uiso   1.00
O1472  O     0.04408   0.88860   0.78906   0.00000  Uiso   1.00
O1473  O     0.36116   0.70712   0.87572   0.00000  Uiso   1.00
O1474  O     0.14764   0.71042   0.80065   0.00000  Uiso   1.00
O1475  O     0.45419   0.79581   0.87154   0.00000  Uiso   1.00
O1476  O     0.35710   0.78863   0.80740   0.00000  Uiso   1.00
O1477  O     0.46155   0.89944   0.86309   0.00000  Uiso   1.00
O1478  O     0.03942   0.60760   0.86382   0.00000  Uiso   1.00
O1479  O     0.11541   0.95215   0.78148   0.00000  Uiso   1.00
O1480  O     0.29664   0.63643   0.88247   0.00000  Uiso   1.00
O1481  O     0.38522   0.54724   0.78277   0.00000  Uiso   1.00
O1482  O     0.20289   0.86405   0.88359   0.00000  Uiso   1.00
O1483  O     0.39857   0.96163   0.86387   0.00000  Uiso   1.00
O1484  O     0.10897   0.54152   0.87088   0.00000  Uiso   1.00
O1485  O     0.21114   0.64219   0.80072   0.00000  Uiso   1.00
O1486  O     0.04580   0.70419   0.79513   0.00000  Uiso   1.00
O1487  O     0.29053   0.85759   0.80199   0.00000  Uiso   1.00
O1488  O     0.45419   0.70419   0.79513   0.00000  Uiso   1.00
O1489  O     0.04580   0.79581   0.87154   0.00000  Uiso   1.00
O1490  O     0.04580   0.79581   0.79513   0.00000  Uiso   1.00
O1491  O     0.45419   0.70419   0.87154   0.00000  Uiso   1.00
O1492  O     0.29580   0.95419   0.87154   0.00000  Uiso   1.00
Zn1493 Zn   -0.00000   0.75000   0.88437   0.00000  Uiso   1.00
Zn1494 Zn    0.00000   0.75000   0.78229   0.00000  Uiso   1.00
Zn1495 Zn    0.25000   0.50000   0.88437   0.00000  Uiso   1.00
Zn1496 Zn    0.25000   0.50000   0.78229   0.00000  Uiso   1.00
C1497  C     0.56000   0.69036   0.83339   0.00000  Uiso   1.00
C1498  C     0.99758   0.71078   0.97594   0.00000  Uiso   1.00
C1499  C     0.50051   0.71072   0.69083   0.00000  Uiso   1.00
C1500  C     0.50242   0.78922   0.97586   0.00000  Uiso   1.00
C1501  C     0.76836   0.53452   0.69065   0.00000  Uiso   1.00
C1502  C     0.72814   0.96754   0.97631   0.00000  Uiso   1.00
C1503  C     0.73155   0.96554   0.69068   0.00000  Uiso   1.00
C1504  C     0.77179   0.53252   0.97628   0.00000  Uiso   1.00
C1505  C     0.91533   0.61743   0.81012   0.00000  Uiso   1.00
C1506  C     0.63220   0.83466   0.85718   0.00000  Uiso   1.00
C1507  C     0.58510   0.88217   0.80916   0.00000  Uiso   1.00
C1508  C     0.94069   0.81029   0.83329   0.00000  Uiso   1.00
C1509  C     0.86753   0.66565   0.85644   0.00000  Uiso   1.00
C1510  C     0.63628   0.66850   0.81657   0.00000  Uiso   1.00
C1511  C     0.86576   0.83254   0.81869   0.00000  Uiso   1.00
C1512  C     0.91948   0.88723   0.84859   0.00000  Uiso   1.00
C1513  C     0.58274   0.61578   0.85053   0.00000  Uiso   1.00
C1514  C     0.61890   0.91387   0.80722   0.00000  Uiso   1.00
C1515  C     0.83550   0.63210   0.85807   0.00000  Uiso   1.00
C1516  C     0.88148   0.58577   0.80799   0.00000  Uiso   1.00
C1517  C     0.66426   0.86816   0.85868   0.00000  Uiso   1.00
C1518  C     0.88681   0.91946   0.84904   0.00000  Uiso   1.00
C1519  C     0.94022   0.69012   0.83334   0.00000  Uiso   1.00
C1520  C     0.61576   0.58312   0.85197   0.00000  Uiso   1.00
C1521  C     0.66822   0.63498   0.81592   0.00000  Uiso   1.00
C1522  C     0.83311   0.86556   0.81762   0.00000  Uiso   1.00
C1523  C     0.59296   0.84294   0.83333   0.00000  Uiso   1.00
C1524  C     0.90707   0.65704   0.83337   0.00000  Uiso   1.00
C1525  C     0.90844   0.84422   0.83311   0.00000  Uiso   1.00
C1526  C     0.59384   0.65795   0.83372   0.00000  Uiso   1.00
C1527  C     0.84288   0.59325   0.83314   0.00000  Uiso   1.00
C1528  C     0.65715   0.90673   0.83311   0.00000  Uiso   1.00
C1529  C     0.65713   0.59312   0.83327   0.00000  Uiso   1.00
C1530  C     0.55978   0.80989   0.83334   0.00000  Uiso   1.00
C1531  C     0.84397   0.90806   0.83354   0.00000  Uiso   1.00
C1532  C     0.95674   0.84943   0.70843   0.00000  Uiso   1.00
C1533  C     0.95218   0.65244   0.95860   0.00000  Uiso   1.00
C1534  C     0.54328   0.65055   0.70872   0.00000  Uiso   1.00
C1535  C     0.54777   0.84759   0.95848   0.00000  Uiso   1.00
C1536  C     0.75700   0.60683   0.70937   0.00000  Uiso   1.00
C1537  C     0.65848   0.94493   0.95848   0.00000  Uiso   1.00
C1538  C     0.74236   0.89318   0.70976   0.00000  Uiso   1.00
C1539  C     0.84129   0.55564   0.95860   0.00000  Uiso   1.00
C1540  C     0.81000   0.94034   0.83339   0.00000  Uiso   1.00
C1541  C     0.69005   0.55973   0.83331   0.00000  Uiso   1.00
C1542  C     0.69023   0.94002   0.83330   0.00000  Uiso   1.00
C1543  C     0.80976   0.55999   0.83330   0.00000  Uiso   1.00
C1544  C     0.99950   0.78928   0.69074   0.00000  Uiso   1.00
H1545  H     0.95314   0.87612   0.73394   0.00000  Uiso   1.00
H1546  H     0.55278   0.87397   0.93283   0.00000  Uiso   1.00
H1547  H     0.57496   0.82268   0.95409   0.00000  Uiso   1.00
H1548  H     0.55046   0.86372   0.99189   0.00000  Uiso   1.00
H1549  H     0.76971   0.63432   0.73068   0.00000  Uiso   1.00
H1550  H     0.72293   0.59831   0.72120   0.00000  Uiso   1.00
H1551  H     0.75566   0.61950   0.67431   0.00000  Uiso   1.00
H1552  H     0.63926   0.92021   0.93875   0.00000  Uiso   1.00
H1553  H     0.65046   0.97860   0.94481   0.00000  Uiso   1.00
H1554  H     0.64714   0.94221   0.99388   0.00000  Uiso   1.00
H1555  H     0.72939   0.86584   0.73114   0.00000  Uiso   1.00
H1556  H     0.92862   0.82572   0.71332   0.00000  Uiso   1.00
H1557  H     0.77645   0.90150   0.72173   0.00000  Uiso   1.00
H1558  H     0.74369   0.88044   0.67476   0.00000  Uiso   1.00
H1559  H     0.86033   0.58049   0.93884   0.00000  Uiso   1.00
H1560  H     0.84958   0.52203   0.94507   0.00000  Uiso   1.00
H1561  H     0.85259   0.55849   0.99402   0.00000  Uiso   1.00
H1562  H     0.96285   0.57820   0.78987   0.00000  Uiso   1.00
H1563  H     0.67049   0.78672   0.87849   0.00000  Uiso   1.00
H1564  H     0.53786   0.92099   0.78726   0.00000  Uiso   1.00
H1565  H     0.82891   0.71368   0.87677   0.00000  Uiso   1.00
H1566  H     0.62480   0.73265   0.80884   0.00000  Uiso   1.00
H1567  H     0.95434   0.86547   0.67491   0.00000  Uiso   1.00
H1568  H     0.82569   0.78177   0.81452   0.00000  Uiso   1.00
H1569  H     0.98319   0.87528   0.85756   0.00000  Uiso   1.00
H1570  H     0.53273   0.57555   0.85954   0.00000  Uiso   1.00
H1571  H     0.59656   0.94572   0.75498   0.00000  Uiso   1.00
H1572  H     0.80253   0.65557   0.90889   0.00000  Uiso   1.00
H1573  H     0.90467   0.55329   0.75666   0.00000  Uiso   1.00
H1574  H     0.69678   0.84513   0.91015   0.00000  Uiso   1.00
H1575  H     0.87466   0.98336   0.85752   0.00000  Uiso   1.00
H1576  H     0.58630   0.54411   0.89481   0.00000  Uiso   1.00
H1577  H     0.71436   0.67310   0.78951   0.00000  Uiso   1.00
H1578  H     0.94718   0.62601   0.93305   0.00000  Uiso   1.00
H1579  H     0.79160   0.83343   0.77940   0.00000  Uiso   1.00
H1580  H     0.92501   0.67735   0.95400   0.00000  Uiso   1.00
H1581  H     0.94947   0.63638   0.99206   0.00000  Uiso   1.00
H1582  H     0.54695   0.62391   0.73435   0.00000  Uiso   1.00
H1583  H     0.57142   0.67427   0.71351   0.00000  Uiso   1.00
H1584  H     0.54559   0.63445   0.67527   0.00000  Uiso   1.00
N1585  N     0.50000   0.75000   0.95240   0.00000  Uiso   1.00
N1586  N     0.50000   0.75000   0.71427   0.00000  Uiso   1.00
N1587  N     0.75000   0.50000   0.95240   0.00000  Uiso   1.00
N1588  N     0.75000   0.50000   0.71427   0.00000  Uiso   1.00
O1589  O     0.54580   0.70419   0.87154   0.00000  Uiso   1.00
O1590  O     0.70419   0.54581   0.79513   0.00000  Uiso   1.00
O1591  O     0.70419   0.54581   0.87154   0.00000  Uiso   1.00
O1592  O     0.79580   0.95419   0.79513   0.00000  Uiso   1.00
O1593  O     0.70419   0.95419   0.79513   0.00000  Uiso   1.00
O1594  O     0.79580   0.54581   0.87154   0.00000  Uiso   1.00
O1595  O     0.79580   0.54581   0.79513   0.00000  Uiso   1.00
O1596  O     0.70419   0.95419   0.87154   0.00000  Uiso   1.00
O1597  O     0.99854   0.82882   0.71450   0.00000  Uiso   1.00
O1598  O     0.99474   0.67129   0.95221   0.00000  Uiso   1.00
O1599  O     0.50150   0.67118   0.71469   0.00000  Uiso   1.00
O1600  O     0.95419   0.79581   0.79513   0.00000  Uiso   1.00
O1601  O     0.50523   0.82871   0.95204   0.00000  Uiso   1.00
O1602  O     0.78624   0.57028   0.71340   0.00000  Uiso   1.00
O1603  O     0.70424   0.93513   0.95414   0.00000  Uiso   1.00
O1604  O     0.71337   0.92993   0.71347   0.00000  Uiso   1.00
O1605  O     0.79546   0.56508   0.95407   0.00000  Uiso   1.00
O1606  O     0.95676   0.61063   0.79116   0.00000  Uiso   1.00
O1607  O     0.63828   0.79351   0.87734   0.00000  Uiso   1.00
O1608  O     0.54408   0.88860   0.78906   0.00000  Uiso   1.00
O1609  O     0.86116   0.70712   0.87572   0.00000  Uiso   1.00
O1610  O     0.64764   0.71042   0.80065   0.00000  Uiso   1.00
O1611  O     0.95419   0.79581   0.87154   0.00000  Uiso   1.00
O1612  O     0.85710   0.78863   0.80740   0.00000  Uiso   1.00
O1613  O     0.96155   0.89944   0.86309   0.00000  Uiso   1.00
O1614  O     0.53942   0.60760   0.86382   0.00000  Uiso   1.00
O1615  O     0.61541   0.95215   0.78148   0.00000  Uiso   1.00
O1616  O     0.79664   0.63643   0.88247   0.00000  Uiso   1.00
O1617  O     0.88522   0.54724   0.78277   0.00000  Uiso   1.00
O1618  O     0.70289   0.86405   0.88359   0.00000  Uiso   1.00
O1619  O     0.89857   0.96163   0.86387   0.00000  Uiso   1.00
O1620  O     0.60897   0.54152   0.87088   0.00000  Uiso   1.00
O1621  O     0.71114   0.64219   0.80072   0.00000  Uiso   1.00
O1622  O     0.54580   0.70419   0.79513   0.00000  Uiso   1.00
O1623  O     0.79053   0.85759   0.80199   0.00000  Uiso   1.00
O1624  O     0.95419   0.70419   0.79513   0.00000  Uiso   1.00
O1625  O     0.54580   0.79581   0.87154   0.00000  Uiso   1.00
O1626  O     0.54580   0.79581   0.79513   0.00000  Uiso   1.00
O1627  O     0.95419   0.70419   0.87154   0.00000  Uiso   1.00
O1628  O     0.79580   0.95419   0.87154   0.00000  Uiso   1.00
Zn1629 Zn    0.50000   0.75000   0.88437   0.00000  Uiso   1.00
Zn1630 Zn    0.50000   0.75000   0.78229   0.00000  Uiso   1.00
Zn1631 Zn    0.75000   0.50000   0.88437   0.00000  Uiso   1.00
Zn1632 Zn    0.75000   0.50000   0.78229   0.00000  Uiso   1.00
loop_
_geom_bond_atom_site_label_1
_geom_bond_atom_site_label_2
_geom_bond_distance
_geom_bond_site_symmetry_2
_ccdc_geom_bond_type
C1     O126    1.285   .     A
C1     C30     1.407   .     S
C1     O93     1.284   .     A
C2     O102    1.382   .     S
C2     C683    1.439   .     S
C2     N225    1.371   .     S
C3     O103    1.382   .     S
C3     C1226   1.439   1_454 S
C3     N90     1.370   .     S
C4     N89     1.371   .     A
C4     O105    1.382   .     S
C4     C728    1.439   1_455 S
C5     O106    1.378   .     S
C5     N92     1.368   .     A
C5     C1096   1.426   1_554 S
C6     O107    1.378   .     S
C6     C551    1.426   .     S
C6     N363    1.374   .     S
C7     O108    1.378   .     S
C7     C1094   1.426   1_554 S
C7     N364    1.368   .     S
C8     N91     1.374   .     A
C8     O109    1.378   .     S
C8     C549    1.426   .     S
C9     C20     1.394   .     A
C9     O110    1.384   .     S
C9     C28     1.398   .     A
C10    C27     1.398   .     A
C10    C21     1.393   .     A
C10    O111    1.384   .     S
C11    C18     1.393   .     A
C11    C27     1.398   .     A
C11    O112    1.384   .     S
C12    C29     1.405   .     S
C12    O104    1.284   .     A
C12    O115    1.284   .     A
C13    C19     1.394   .     A
C13    C28     1.398   .     A
C13    O113    1.384   .     S
C14    C30     1.411   .     A
C14    O114    1.386   .     S
C14    C25     1.390   .     A
C15    C29     1.398   .     A
C15    C26     1.394   .     A
C15    O116    1.384   .     S
C16    C29     1.410   .     A
C16    C22     1.378   .     A
C16    O117    1.386   .     S
C17    C30     1.400   .     A
C17    C24     1.395   .     A
C17    O118    1.384   .     S
C18    C32     1.401   .     A
C18    O119    1.383   .     S
C19    C31     1.400   .     A
C19    O120    1.383   .     S
C20    O121    1.383   .     S
C20    C31     1.401   .     A
C21    O122    1.383   .     S
C21    C32     1.400   .     A
C22    O123    1.386   .     S
C22    C35     1.410   .     A
C23    O131    1.284   .     A
C23    C28     1.407   .     S
C23    O128    1.285   .     A
C24    O124    1.384   .     S
C24    C33     1.397   .     A
C25    O125    1.385   .     S
C25    C33     1.397   .     A
C26    O127    1.383   .     S
C26    C35     1.399   .     A
C27    C34     1.407   .     S
C31    C47     1.410   .     S
C32    C46     1.410   .     S
C33    C45     1.407   .     S
C34    O129    1.285   .     A
C34    O130    1.285   .     A
C35    C44     1.407   .     S
C36    H60     1.115   .     S
C36    O101    1.412   .     S
C36    H71     1.110   .     S
C36    H49     1.110   .     S
C37    H85     1.110   .     S
C37    O102    1.412   .     S
C37    H84     1.115   .     S
C37    H82     1.110   .     S
C38    H86     1.110   .     S
C38    H88     1.110   .     S
C38    O103    1.412   .     S
C38    H87     1.115   .     S
C39    H51     1.115   .     S
C39    H52     1.110   .     S
C39    O105    1.412   .     S
C39    H50     1.110   .     S
C40    H55     1.112   .     S
C40    H54     1.114   .     S
C40    O106    1.409   .     S
C40    H53     1.109   .     S
C41    H58     1.112   .     S
C41    H56     1.109   .     S
C41    O107    1.413   .     S
C41    H57     1.114   .     S
C42    H62     1.112   .     S
C42    H61     1.114   .     S
C42    H59     1.109   .     S
C42    O108    1.409   .     S
C43    H63     1.109   .     S
C43    H64     1.114   .     S
C43    H65     1.112   .     S
C43    O109    1.413   .     S
C44    O96     1.285   .     A
C44    O132    1.284   .     A
C45    O94     1.285   .     A
C45    O95     1.284   .     A
C46    O97     1.285   .     A
C46    O100    1.286   .     A
C47    O98     1.287   .     A
C47    O99     1.285   .     A
C48    O101    1.382   .     S
C48    N226    1.370   .     A
C48    C1228   1.439   1_554 S
H66    O110    0.990   .     S
H67    O111    0.990   .     S
H68    O112    0.990   .     S
H69    O113    0.990   .     S
H70    O114    0.988   .     S
H72    O116    0.990   .     S
H73    O117    0.988   .     S
H74    O118    0.990   .     S
H75    O119    0.991   .     S
H76    O120    0.990   .     S
H77    O121    0.991   .     S
H78    O122    0.990   .     S
H79    O123    0.988   .     S
H80    O124    0.990   .     S
H81    O125    0.989   .     S
H83    O127    0.990   .     S
N89    C138    1.371   1_455 S
N89    Zn133   2.027   .     S
N90    C184    1.370   1_455 A
N90    Zn134   2.027   .     S
N91    Zn135   2.027   .     S
N91    C278    1.374   1_545 S
N92    Zn136   2.027   .     S
N92    C279    1.368   1_545 S
O93    Zn133   1.983   .     S
O94    Zn136   1.983   .     S
O95    Zn135   1.981   .     S
O96    Zn408   1.981   .     S
O97    Zn408   1.983   .     S
O98    Zn135   1.983   .     S
O99    Zn136   1.983   .     S
O100   Zn407   1.983   .     S
O104   Zn270   1.983   .     S
O115   Zn269   1.981   .     S
O126   Zn134   1.981   .     S
O128   Zn270   1.983   .     S
O129   Zn133   1.983   .     S
O130   Zn134   1.983   .     S
O131   Zn269   1.983   .     S
O132   Zn407   1.983   .     S
Zn133  O251    1.981   1_455 S
Zn133  O267    1.983   1_455 S
Zn134  O264    1.983   1_455 S
Zn134  O240    1.983   1_455 S
Zn135  O372    1.983   1_545 S
Zn135  O404    1.983   1_545 S
Zn136  O369    1.983   1_545 S
Zn136  O368    1.981   1_545 S
C137   O262    1.285   .     A
C137   C166    1.407   .     S
C137   O229    1.284   .     A
C138   O238    1.382   .     S
C138   C547    1.439   1_655 S
C138   N89     1.371   1_655 S
C139   O239    1.382   .     S
C139   C1090   1.439   1_554 S
C139   N226    1.370   .     S
C140   N225    1.371   .     A
C140   O241    1.382   .     S
C140   C592    1.439   .     S
C141   O242    1.378   .     S
C141   N228    1.368   .     A
C141   C1232   1.426   1_554 S
C142   O243    1.378   .     S
C142   C687    1.426   .     S
C142   N499    1.374   .     S
C143   O244    1.378   .     S
C143   C1230   1.426   1_554 S
C143   N500    1.368   .     S
C144   N227    1.374   .     A
C144   O245    1.378   .     S
C144   C685    1.426   .     S
C145   C156    1.394   .     A
C145   O246    1.384   .     S
C145   C164    1.398   .     A
C146   C163    1.398   .     A
C146   C157    1.393   .     A
C146   O247    1.384   .     S
C147   C154    1.393   .     A
C147   C163    1.398   .     A
C147   O248    1.384   .     S
C148   C165    1.405   .     S
C148   O240    1.284   .     A
C148   O251    1.284   .     A
C149   C155    1.394   .     A
C149   C164    1.398   .     A
C149   O249    1.384   .     S
C150   C166    1.411   .     A
C150   O250    1.386   .     S
C150   C161    1.390   .     A
C151   C165    1.398   .     A
C151   C162    1.394   .     A
C151   O252    1.384   .     S
C152   C165    1.410   .     A
C152   C158    1.378   .     A
C152   O253    1.386   .     S
C153   C166    1.400   .     A
C153   C160    1.395   .     A
C153   O254    1.384   .     S
C154   C168    1.401   .     A
C154   O255    1.383   .     S
C155   C167    1.400   .     A
C155   O256    1.383   .     S
C156   O257    1.383   .     S
C156   C167    1.401   .     A
C157   O258    1.383   .     S
C157   C168    1.400   .     A
C158   O259    1.386   .     S
C158   C171    1.410   .     A
C159   O267    1.284   .     A
C159   C164    1.407   .     S
C159   O264    1.285   .     A
C160   O260    1.384   .     S
C160   C169    1.397   .     A
C161   O261    1.385   .     S
C161   C169    1.397   .     A
C162   O263    1.383   .     S
C162   C171    1.399   .     A
C163   C170    1.407   .     S
C167   C183    1.410   .     S
C168   C182    1.410   .     S
C169   C181    1.407   .     S
C170   O265    1.285   .     A
C170   O266    1.285   .     A
C171   C180    1.407   .     S
C172   H196    1.115   .     S
C172   O237    1.412   .     S
C172   H207    1.110   .     S
C172   H185    1.110   .     S
C173   H221    1.110   .     S
C173   O238    1.412   .     S
C173   H220    1.115   .     S
C173   H218    1.110   .     S
C174   H222    1.110   .     S
C174   H224    1.110   .     S
C174   O239    1.412   .     S
C174   H223    1.115   .     S
C175   H187    1.115   .     S
C175   H188    1.110   .     S
C175   O241    1.412   .     S
C175   H186    1.110   .     S
C176   H191    1.112   .     S
C176   H190    1.114   .     S
C176   O242    1.409   .     S
C176   H189    1.109   .     S
C177   H194    1.112   .     S
C177   H192    1.109   .     S
C177   O243    1.413   .     S
C177   H193    1.114   .     S
C178   H198    1.112   .     S
C178   H197    1.114   .     S
C178   H195    1.109   .     S
C178   O244    1.409   .     S
C179   H199    1.109   .     S
C179   H200    1.114   .     S
C179   H201    1.112   .     S
C179   O245    1.413   .     S
C180   O232    1.285   .     A
C180   O268    1.284   .     A
C181   O230    1.285   .     A
C181   O231    1.284   .     A
C182   O233    1.285   .     A
C182   O236    1.286   .     A
C183   O234    1.287   .     A
C183   O235    1.285   .     A
C184   O237    1.382   .     S
C184   N90     1.370   1_655 A
C184   C1092   1.439   1_654 S
H202   O246    0.990   .     S
H203   O247    0.990   .     S
H204   O248    0.990   .     S
H205   O249    0.990   .     S
H206   O250    0.988   .     S
H208   O252    0.990   .     S
H209   O253    0.988   .     S
H210   O254    0.990   .     S
H211   O255    0.991   .     S
H212   O256    0.990   .     S
H213   O257    0.991   .     S
H214   O258    0.990   .     S
H215   O259    0.988   .     S
H216   O260    0.990   .     S
H217   O261    0.989   .     S
H219   O263    0.990   .     S
N225   Zn269   2.027   .     S
N226   Zn270   2.027   .     S
N227   Zn271   2.027   .     S
N227   C414    1.374   1_545 S
N228   Zn272   2.027   .     S
N228   C415    1.368   1_545 S
O229   Zn269   1.983   .     S
O230   Zn272   1.983   .     S
O231   Zn271   1.981   .     S
O232   Zn544   1.981   .     S
O233   Zn544   1.983   .     S
O234   Zn271   1.983   .     S
O235   Zn272   1.983   .     S
O236   Zn543   1.983   .     S
O240   Zn134   1.983   1_655 S
O251   Zn133   1.981   1_655 S
O262   Zn270   1.981   .     S
O264   Zn134   1.983   1_655 S
O265   Zn269   1.983   .     S
O266   Zn270   1.983   .     S
O267   Zn133   1.983   1_655 S
O268   Zn543   1.983   .     S
Zn271  O508    1.983   1_545 S
Zn271  O540    1.983   1_545 S
Zn272  O505    1.983   1_545 S
Zn272  O504    1.981   1_545 S
C273   O398    1.285   .     A
C273   C302    1.407   .     S
C273   O365    1.284   .     A
C274   O374    1.382   .     S
C274   C955    1.439   .     S
C274   N497    1.371   .     S
C275   O375    1.382   .     S
C275   C1498   1.439   1_454 S
C275   N362    1.370   .     S
C276   N361    1.371   .     A
C276   O377    1.382   .     S
C276   C1000   1.439   1_455 S
C277   O378    1.378   .     S
C277   N364    1.368   .     A
C277   C1368   1.426   1_554 S
C278   O379    1.378   .     S
C278   C823    1.426   .     S
C278   N91     1.374   1_565 S
C279   O380    1.378   .     S
C279   C1366   1.426   1_554 S
C279   N92     1.368   1_565 S
C280   N363    1.374   .     A
C280   O381    1.378   .     S
C280   C821    1.426   .     S
C281   C292    1.394   .     A
C281   O382    1.384   .     S
C281   C300    1.398   .     A
C282   C299    1.398   .     A
C282   C293    1.393   .     A
C282   O383    1.384   .     S
C283   C290    1.393   .     A
C283   C299    1.398   .     A
C283   O384    1.384   .     S
C284   C301    1.405   .     S
C284   O376    1.284   .     A
C284   O387    1.284   .     A
C285   C291    1.394   .     A
C285   C300    1.398   .     A
C285   O385    1.384   .     S
C286   C302    1.411   .     A
C286   O386    1.386   .     S
C286   C297    1.390   .     A
C287   C301    1.398   .     A
C287   C298    1.394   .     A
C287   O388    1.384   .     S
C288   C301    1.410   .     A
C288   C294    1.378   .     A
C288   O389    1.386   .     S
C289   C302    1.400   .     A
C289   C296    1.395   .     A
C289   O390    1.384   .     S
C290   C304    1.401   .     A
C290   O391    1.383   .     S
C291   C303    1.400   .     A
C291   O392    1.383   .     S
C292   O393    1.383   .     S
C292   C303    1.401   .     A
C293   O394    1.383   .     S
C293   C304    1.400   .     A
C294   O395    1.386   .     S
C294   C307    1.410   .     A
C295   O403    1.284   .     A
C295   C300    1.407   .     S
C295   O400    1.285   .     A
C296   O396    1.384   .     S
C296   C305    1.397   .     A
C297   O397    1.385   .     S
C297   C305    1.397   .     A
C298   O399    1.383   .     S
C298   C307    1.399   .     A
C299   C306    1.407   .     S
C303   C319    1.410   .     S
C304   C318    1.410   .     S
C305   C317    1.407   .     S
C306   O401    1.285   .     A
C306   O402    1.285   .     A
C307   C316    1.407   .     S
C308   H332    1.115   .     S
C308   O373    1.412   .     S
C308   H343    1.110   .     S
C308   H321    1.110   .     S
C309   H357    1.110   .     S
C309   O374    1.412   .     S
C309   H356    1.115   .     S
C309   H354    1.110   .     S
C310   H358    1.110   .     S
C310   H360    1.110   .     S
C310   O375    1.412   .     S
C310   H359    1.115   .     S
C311   H323    1.115   .     S
C311   H324    1.110   .     S
C311   O377    1.412   .     S
C311   H322    1.110   .     S
C312   H327    1.112   .     S
C312   H326    1.114   .     S
C312   O378    1.409   .     S
C312   H325    1.109   .     S
C313   H330    1.112   .     S
C313   H328    1.109   .     S
C313   O379    1.413   .     S
C313   H329    1.114   .     S
C314   H334    1.112   .     S
C314   H333    1.114   .     S
C314   H331    1.109   .     S
C314   O380    1.409   .     S
C315   H335    1.109   .     S
C315   H336    1.114   .     S
C315   H337    1.112   .     S
C315   O381    1.413   .     S
C316   O368    1.285   .     A
C316   O404    1.284   .     A
C317   O366    1.285   .     A
C317   O367    1.284   .     A
C318   O369    1.285   .     A
C318   O372    1.286   .     A
C319   O370    1.287   .     A
C319   O371    1.285   .     A
C320   O373    1.382   .     S
C320   N498    1.370   .     A
C320   C1500   1.439   1_554 S
H338   O382    0.990   .     S
H339   O383    0.990   .     S
H340   O384    0.990   .     S
H341   O385    0.990   .     S
H342   O386    0.988   .     S
H344   O388    0.990   .     S
H345   O389    0.988   .     S
H346   O390    0.990   .     S
H347   O391    0.991   .     S
H348   O392    0.990   .     S
H349   O393    0.991   .     S
H350   O394    0.990   .     S
H351   O395    0.988   .     S
H352   O396    0.990   .     S
H353   O397    0.989   .     S
H355   O399    0.990   .     S
N361   C410    1.371   1_455 S
N361   Zn405   2.027   .     S
N362   C456    1.370   1_455 A
N362   Zn406   2.027   .     S
N363   Zn407   2.027   .     S
N364   Zn408   2.027   .     S
O365   Zn405   1.983   .     S
O366   Zn408   1.983   .     S
O367   Zn407   1.981   .     S
O368   Zn136   1.981   1_565 S
O369   Zn136   1.983   1_565 S
O370   Zn407   1.983   .     S
O371   Zn408   1.983   .     S
O372   Zn135   1.983   1_565 S
O376   Zn542   1.983   .     S
O387   Zn541   1.981   .     S
O398   Zn406   1.981   .     S
O400   Zn542   1.983   .     S
O401   Zn405   1.983   .     S
O402   Zn406   1.983   .     S
O403   Zn541   1.983   .     S
O404   Zn135   1.983   1_565 S
Zn405  O523    1.981   1_455 S
Zn405  O539    1.983   1_455 S
Zn406  O536    1.983   1_455 S
Zn406  O512    1.983   1_455 S
C409   O534    1.285   .     A
C409   C438    1.407   .     S
C409   O501    1.284   .     A
C410   O510    1.382   .     S
C410   C819    1.439   1_655 S
C410   N361    1.371   1_655 S
C411   O511    1.382   .     S
C411   C1362   1.439   1_554 S
C411   N498    1.370   .     S
C412   N497    1.371   .     A
C412   O513    1.382   .     S
C412   C864    1.439   .     S
C413   O514    1.378   .     S
C413   N500    1.368   .     A
C413   C1504   1.426   1_554 S
C414   O515    1.378   .     S
C414   C959    1.426   .     S
C414   N227    1.374   1_565 S
C415   O516    1.378   .     S
C415   C1502   1.426   1_554 S
C415   N228    1.368   1_565 S
C416   N499    1.374   .     A
C416   O517    1.378   .     S
C416   C957    1.426   .     S
C417   C428    1.394   .     A
C417   O518    1.384   .     S
C417   C436    1.398   .     A
C418   C435    1.398   .     A
C418   C429    1.393   .     A
C418   O519    1.384   .     S
C419   C426    1.393   .     A
C419   C435    1.398   .     A
C419   O520    1.384   .     S
C420   C437    1.405   .     S
C420   O512    1.284   .     A
C420   O523    1.284   .     A
C421   C427    1.394   .     A
C421   C436    1.398   .     A
C421   O521    1.384   .     S
C422   C438    1.411   .     A
C422   O522    1.386   .     S
C422   C433    1.390   .     A
C423   C437    1.398   .     A
C423   C434    1.394   .     A
C423   O524    1.384   .     S
C424   C437    1.410   .     A
C424   C430    1.378   .     A
C424   O525    1.386   .     S
C425   C438    1.400   .     A
C425   C432    1.395   .     A
C425   O526    1.384   .     S
C426   C440    1.401   .     A
C426   O527    1.383   .     S
C427   C439    1.400   .     A
C427   O528    1.383   .     S
C428   O529    1.383   .     S
C428   C439    1.401   .     A
C429   O530    1.383   .     S
C429   C440    1.400   .     A
C430   O531    1.386   .     S
C430   C443    1.410   .     A
C431   O539    1.284   .     A
C431   C436    1.407   .     S
C431   O536    1.285   .     A
C432   O532    1.384   .     S
C432   C441    1.397   .     A
C433   O533    1.385   .     S
C433   C441    1.397   .     A
C434   O535    1.383   .     S
C434   C443    1.399   .     A
C435   C442    1.407   .     S
C439   C455    1.410   .     S
C440   C454    1.410   .     S
C441   C453    1.407   .     S
C442   O537    1.285   .     A
C442   O538    1.285   .     A
C443   C452    1.407   .     S
C444   H468    1.115   .     S
C444   O509    1.412   .     S
C444   H479    1.110   .     S
C444   H457    1.110   .     S
C445   H493    1.110   .     S
C445   O510    1.412   .     S
C445   H492    1.115   .     S
C445   H490    1.110   .     S
C446   H494    1.110   .     S
C446   H496    1.110   .     S
C446   O511    1.412   .     S
C446   H495    1.115   .     S
C447   H459    1.115   .     S
C447   H460    1.110   .     S
C447   O513    1.412   .     S
C447   H458    1.110   .     S
C448   H463    1.112   .     S
C448   H462    1.114   .     S
C448   O514    1.409   .     S
C448   H461    1.109   .     S
C449   H466    1.112   .     S
C449   H464    1.109   .     S
C449   O515    1.413   .     S
C449   H465    1.114   .     S
C450   H470    1.112   .     S
C450   H469    1.114   .     S
C450   H467    1.109   .     S
C450   O516    1.409   .     S
C451   H471    1.109   .     S
C451   H472    1.114   .     S
C451   H473    1.112   .     S
C451   O517    1.413   .     S
C452   O504    1.285   .     A
C452   O540    1.284   .     A
C453   O502    1.285   .     A
C453   O503    1.284   .     A
C454   O505    1.285   .     A
C454   O508    1.286   .     A
C455   O506    1.287   .     A
C455   O507    1.285   .     A
C456   O509    1.382   .     S
C456   N362    1.370   1_655 A
C456   C1364   1.439   1_654 S
H474   O518    0.990   .     S
H475   O519    0.990   .     S
H476   O520    0.990   .     S
H477   O521    0.990   .     S
H478   O522    0.988   .     S
H480   O524    0.990   .     S
H481   O525    0.988   .     S
H482   O526    0.990   .     S
H483   O527    0.991   .     S
H484   O528    0.990   .     S
H485   O529    0.991   .     S
H486   O530    0.990   .     S
H487   O531    0.988   .     S
H488   O532    0.990   .     S
H489   O533    0.989   .     S
H491   O535    0.990   .     S
N497   Zn541   2.027   .     S
N498   Zn542   2.027   .     S
N499   Zn543   2.027   .     S
N500   Zn544   2.027   .     S
O501   Zn541   1.983   .     S
O502   Zn544   1.983   .     S
O503   Zn543   1.981   .     S
O504   Zn272   1.981   1_565 S
O505   Zn272   1.983   1_565 S
O506   Zn543   1.983   .     S
O507   Zn544   1.983   .     S
O508   Zn271   1.983   1_565 S
O512   Zn406   1.983   1_655 S
O523   Zn405   1.981   1_655 S
O534   Zn542   1.981   .     S
O536   Zn406   1.983   1_655 S
O537   Zn541   1.983   .     S
O538   Zn542   1.983   .     S
O539   Zn405   1.983   1_655 S
O540   Zn271   1.983   1_565 S
C545   O670    1.285   .     A
C545   C574    1.407   .     S
C545   O637    1.284   .     A
C546   O646    1.382   .     S
C546   C1227   1.439   .     S
C546   N769    1.371   .     S
C547   O647    1.382   .     S
C547   C138    1.439   1_455 S
C547   N634    1.370   .     S
C548   N633    1.371   .     A
C548   O649    1.382   .     S
C548   C1272   1.439   1_455 S
C549   O650    1.378   .     S
C549   N636    1.368   .     A
C550   O651    1.378   .     S
C550   C1095   1.426   .     S
C550   N907    1.374   .     S
C551   O652    1.378   .     S
C551   N908    1.368   .     S
C552   N635    1.374   .     A
C552   O653    1.378   .     S
C552   C1093   1.426   .     S
C553   C564    1.394   .     A
C553   O654    1.384   .     S
C553   C572    1.398   .     A
C554   C571    1.398   .     A
C554   C565    1.393   .     A
C554   O655    1.384   .     S
C555   C562    1.393   .     A
C555   C571    1.398   .     A
C555   O656    1.384   .     S
C556   C573    1.405   .     S
C556   O648    1.284   .     A
C556   O659    1.284   .     A
C557   C563    1.394   .     A
C557   C572    1.398   .     A
C557   O657    1.384   .     S
C558   C574    1.411   .     A
C558   O658    1.386   .     S
C558   C569    1.390   .     A
C559   C573    1.398   .     A
C559   C570    1.394   .     A
C559   O660    1.384   .     S
C560   C573    1.410   .     A
C560   C566    1.378   .     A
C560   O661    1.386   .     S
C561   C574    1.400   .     A
C561   C568    1.395   .     A
C561   O662    1.384   .     S
C562   C576    1.401   .     A
C562   O663    1.383   .     S
C563   C575    1.400   .     A
C563   O664    1.383   .     S
C564   O665    1.383   .     S
C564   C575    1.401   .     A
C565   O666    1.383   .     S
C565   C576    1.400   .     A
C566   O667    1.386   .     S
C566   C579    1.410   .     A
C567   O675    1.284   .     A
C567   C572    1.407   .     S
C567   O672    1.285   .     A
C568   O668    1.384   .     S
C568   C577    1.397   .     A
C569   O669    1.385   .     S
C569   C577    1.397   .     A
C570   O671    1.383   .     S
C570   C579    1.399   .     A
C571   C578    1.407   .     S
C575   C591    1.410   .     S
C576   C590    1.410   .     S
C577   C589    1.407   .     S
C578   O673    1.285   .     A
C578   O674    1.285   .     A
C579   C588    1.407   .     S
C580   H604    1.115   .     S
C580   O645    1.412   .     S
C580   H615    1.110   .     S
C580   H593    1.110   .     S
C581   H629    1.110   .     S
C581   O646    1.412   .     S
C581   H628    1.115   .     S
C581   H626    1.110   .     S
C582   H630    1.110   .     S
C582   H632    1.110   .     S
C582   O647    1.412   .     S
C582   H631    1.115   .     S
C583   H595    1.115   .     S
C583   H596    1.110   .     S
C583   O649    1.412   .     S
C583   H594    1.110   .     S
C584   H599    1.112   .     S
C584   H598    1.114   .     S
C584   O650    1.409   .     S
C584   H597    1.109   .     S
C585   H602    1.112   .     S
C585   H600    1.109   .     S
C585   O651    1.413   .     S
C585   H601    1.114   .     S
C586   H606    1.112   .     S
C586   H605    1.114   .     S
C586   H603    1.109   .     S
C586   O652    1.409   .     S
C587   H607    1.109   .     S
C587   H608    1.114   .     S
C587   H609    1.112   .     S
C587   O653    1.413   .     S
C588   O640    1.285   .     A
C588   O676    1.284   .     A
C589   O638    1.285   .     A
C589   O639    1.284   .     A
C590   O641    1.285   .     A
C590   O644    1.286   .     A
C591   O642    1.287   .     A
C591   O643    1.285   .     A
C592   O645    1.382   .     S
C592   N770    1.370   .     A
H610   O654    0.990   .     S
H611   O655    0.990   .     S
H612   O656    0.990   .     S
H613   O657    0.990   .     S
H614   O658    0.988   .     S
H616   O660    0.990   .     S
H617   O661    0.988   .     S
H618   O662    0.990   .     S
H619   O663    0.991   .     S
H620   O664    0.990   .     S
H621   O665    0.991   .     S
H622   O666    0.990   .     S
H623   O667    0.988   .     S
H624   O668    0.990   .     S
H625   O669    0.989   .     S
H627   O671    0.990   .     S
N633   C682    1.371   1_455 S
N633   Zn677   2.027   .     S
N634   C728    1.370   1_455 A
N634   Zn678   2.027   .     S
N635   Zn679   2.027   .     S
N635   C822    1.374   1_545 S
N636   Zn680   2.027   .     S
N636   C823    1.368   1_545 S
O637   Zn677   1.983   .     S
O638   Zn680   1.983   .     S
O639   Zn679   1.981   .     S
O640   Zn952   1.981   .     S
O641   Zn952   1.983   .     S
O642   Zn679   1.983   .     S
O643   Zn680   1.983   .     S
O644   Zn951   1.983   .     S
O648   Zn814   1.983   .     S
O659   Zn813   1.981   .     S
O670   Zn678   1.981   .     S
O672   Zn814   1.983   .     S
O673   Zn677   1.983   .     S
O674   Zn678   1.983   .     S
O675   Zn813   1.983   .     S
O676   Zn951   1.983   .     S
Zn677  O795    1.981   1_455 S
Zn677  O811    1.983   1_455 S
Zn678  O808    1.983   1_455 S
Zn678  O784    1.983   1_455 S
Zn679  O916    1.983   1_545 S
Zn679  O948    1.983   1_545 S
Zn680  O913    1.983   1_545 S
Zn680  O912    1.981   1_545 S
C681   O806    1.285   .     A
C681   C710    1.407   .     S
C681   O773    1.284   .     A
C682   O782    1.382   .     S
C682   C1091   1.439   1_655 S
C682   N633    1.371   1_655 S
C683   O783    1.382   .     S
C683   N770    1.370   .     S
C684   N769    1.371   .     A
C684   O785    1.382   .     S
C684   C1136   1.439   .     S
C685   O786    1.378   .     S
C685   N772    1.368   .     A
C686   O787    1.378   .     S
C686   C1231   1.426   .     S
C686   N1043   1.374   .     S
C687   O788    1.378   .     S
C687   N1044   1.368   .     S
C688   N771    1.374   .     A
C688   O789    1.378   .     S
C688   C1229   1.426   .     S
C689   C700    1.394   .     A
C689   O790    1.384   .     S
C689   C708    1.398   .     A
C690   C707    1.398   .     A
C690   C701    1.393   .     A
C690   O791    1.384   .     S
C691   C698    1.393   .     A
C691   C707    1.398   .     A
C691   O792    1.384   .     S
C692   C709    1.405   .     S
C692   O784    1.284   .     A
C692   O795    1.284   .     A
C693   C699    1.394   .     A
C693   C708    1.398   .     A
C693   O793    1.384   .     S
C694   C710    1.411   .     A
C694   O794    1.386   .     S
C694   C705    1.390   .     A
C695   C709    1.398   .     A
C695   C706    1.394   .     A
C695   O796    1.384   .     S
C696   C709    1.410   .     A
C696   C702    1.378   .     A
C696   O797    1.386   .     S
C697   C710    1.400   .     A
C697   C704    1.395   .     A
C697   O798    1.384   .     S
C698   C712    1.401   .     A
C698   O799    1.383   .     S
C699   C711    1.400   .     A
C699   O800    1.383   .     S
C700   O801    1.383   .     S
C700   C711    1.401   .     A
C701   O802    1.383   .     S
C701   C712    1.400   .     A
C702   O803    1.386   .     S
C702   C715    1.410   .     A
C703   O811    1.284   .     A
C703   C708    1.407   .     S
C703   O808    1.285   .     A
C704   O804    1.384   .     S
C704   C713    1.397   .     A
C705   O805    1.385   .     S
C705   C713    1.397   .     A
C706   O807    1.383   .     S
C706   C715    1.399   .     A
C707   C714    1.407   .     S
C711   C727    1.410   .     S
C712   C726    1.410   .     S
C713   C725    1.407   .     S
C714   O809    1.285   .     A
C714   O810    1.285   .     A
C715   C724    1.407   .     S
C716   H740    1.115   .     S
C716   O781    1.412   .     S
C716   H751    1.110   .     S
C716   H729    1.110   .     S
C717   H765    1.110   .     S
C717   O782    1.412   .     S
C717   H764    1.115   .     S
C717   H762    1.110   .     S
C718   H766    1.110   .     S
C718   H768    1.110   .     S
C718   O783    1.412   .     S
C718   H767    1.115   .     S
C719   H731    1.115   .     S
C719   H732    1.110   .     S
C719   O785    1.412   .     S
C719   H730    1.110   .     S
C720   H735    1.112   .     S
C720   H734    1.114   .     S
C720   O786    1.409   .     S
C720   H733    1.109   .     S
C721   H738    1.112   .     S
C721   H736    1.109   .     S
C721   O787    1.413   .     S
C721   H737    1.114   .     S
C722   H742    1.112   .     S
C722   H741    1.114   .     S
C722   H739    1.109   .     S
C722   O788    1.409   .     S
C723   H743    1.109   .     S
C723   H744    1.114   .     S
C723   H745    1.112   .     S
C723   O789    1.413   .     S
C724   O776    1.285   .     A
C724   O812    1.284   .     A
C725   O774    1.285   .     A
C725   O775    1.284   .     A
C726   O777    1.285   .     A
C726   O780    1.286   .     A
C727   O778    1.287   .     A
C727   O779    1.285   .     A
C728   O781    1.382   .     S
C728   N634    1.370   1_655 A
C728   C4      1.439   1_655 S
H746   O790    0.990   .     S
H747   O791    0.990   .     S
H748   O792    0.990   .     S
H749   O793    0.990   .     S
H750   O794    0.988   .     S
H752   O796    0.990   .     S
H753   O797    0.988   .     S
H754   O798    0.990   .     S
H755   O799    0.991   .     S
H756   O800    0.990   .     S
H757   O801    0.991   .     S
H758   O802    0.990   .     S
H759   O803    0.988   .     S
H760   O804    0.990   .     S
H761   O805    0.989   .     S
H763   O807    0.990   .     S
N769   Zn813   2.027   .     S
N770   Zn814   2.027   .     S
N771   Zn815   2.027   .     S
N771   C958    1.374   1_545 S
N772   Zn816   2.027   .     S
N772   C959    1.368   1_545 S
O773   Zn813   1.983   .     S
O774   Zn816   1.983   .     S
O775   Zn815   1.981   .     S
O776   Zn1088  1.981   .     S
O777   Zn1088  1.983   .     S
O778   Zn815   1.983   .     S
O779   Zn816   1.983   .     S
O780   Zn1087  1.983   .     S
O784   Zn678   1.983   1_655 S
O795   Zn677   1.981   1_655 S
O806   Zn814   1.981   .     S
O808   Zn678   1.983   1_655 S
O809   Zn813   1.983   .     S
O810   Zn814   1.983   .     S
O811   Zn677   1.983   1_655 S
O812   Zn1087  1.983   .     S
Zn815  O1052   1.983   1_545 S
Zn815  O1084   1.983   1_545 S
Zn816  O1049   1.983   1_545 S
Zn816  O1048   1.981   1_545 S
C817   O942    1.285   .     A
C817   C846    1.407   .     S
C817   O909    1.284   .     A
C818   O918    1.382   .     S
C818   C1499   1.439   .     S
C818   N1041   1.371   .     S
C819   O919    1.382   .     S
C819   C410    1.439   1_455 S
C819   N906    1.370   .     S
C820   N905    1.371   .     A
C820   O921    1.382   .     S
C820   C1544   1.439   1_455 S
C821   O922    1.378   .     S
C821   N908    1.368   .     A
C822   O923    1.378   .     S
C822   C1367   1.426   .     S
C822   N635    1.374   1_565 S
C823   O924    1.378   .     S
C823   N636    1.368   1_565 S
C824   N907    1.374   .     A
C824   O925    1.378   .     S
C824   C1365   1.426   .     S
C825   C836    1.394   .     A
C825   O926    1.384   .     S
C825   C844    1.398   .     A
C826   C843    1.398   .     A
C826   C837    1.393   .     A
C826   O927    1.384   .     S
C827   C834    1.393   .     A
C827   C843    1.398   .     A
C827   O928    1.384   .     S
C828   C845    1.405   .     S
C828   O920    1.284   .     A
C828   O931    1.284   .     A
C829   C835    1.394   .     A
C829   C844    1.398   .     A
C829   O929    1.384   .     S
C830   C846    1.411   .     A
C830   O930    1.386   .     S
C830   C841    1.390   .     A
C831   C845    1.398   .     A
C831   C842    1.394   .     A
C831   O932    1.384   .     S
C832   C845    1.410   .     A
C832   C838    1.378   .     A
C832   O933    1.386   .     S
C833   C846    1.400   .     A
C833   C840    1.395   .     A
C833   O934    1.384   .     S
C834   C848    1.401   .     A
C834   O935    1.383   .     S
C835   C847    1.400   .     A
C835   O936    1.383   .     S
C836   O937    1.383   .     S
C836   C847    1.401   .     A
C837   O938    1.383   .     S
C837   C848    1.400   .     A
C838   O939    1.386   .     S
C838   C851    1.410   .     A
C839   O947    1.284   .     A
C839   C844    1.407   .     S
C839   O944    1.285   .     A
C840   O940    1.384   .     S
C840   C849    1.397   .     A
C841   O941    1.385   .     S
C841   C849    1.397   .     A
C842   O943    1.383   .     S
C842   C851    1.399   .     A
C843   C850    1.407   .     S
C847   C863    1.410   .     S
C848   C862    1.410   .     S
C849   C861    1.407   .     S
C850   O945    1.285   .     A
C850   O946    1.285   .     A
C851   C860    1.407   .     S
C852   H876    1.115   .     S
C852   O917    1.412   .     S
C852   H887    1.110   .     S
C852   H865    1.110   .     S
C853   H901    1.110   .     S
C853   O918    1.412   .     S
C853   H900    1.115   .     S
C853   H898    1.110   .     S
C854   H902    1.110   .     S
C854   H904    1.110   .     S
C854   O919    1.412   .     S
C854   H903    1.115   .     S
C855   H867    1.115   .     S
C855   H868    1.110   .     S
C855   O921    1.412   .     S
C855   H866    1.110   .     S
C856   H871    1.112   .     S
C856   H870    1.114   .     S
C856   O922    1.409   .     S
C856   H869    1.109   .     S
C857   H874    1.112   .     S
C857   H872    1.109   .     S
C857   O923    1.413   .     S
C857   H873    1.114   .     S
C858   H878    1.112   .     S
C858   H877    1.114   .     S
C858   H875    1.109   .     S
C858   O924    1.409   .     S
C859   H879    1.109   .     S
C859   H880    1.114   .     S
C859   H881    1.112   .     S
C859   O925    1.413   .     S
C860   O912    1.285   .     A
C860   O948    1.284   .     A
C861   O910    1.285   .     A
C861   O911    1.284   .     A
C862   O913    1.285   .     A
C862   O916    1.286   .     A
C863   O914    1.287   .     A
C863   O915    1.285   .     A
C864   O917    1.382   .     S
C864   N1042   1.370   .     A
H882   O926    0.990   .     S
H883   O927    0.990   .     S
H884   O928    0.990   .     S
H885   O929    0.990   .     S
H886   O930    0.988   .     S
H888   O932    0.990   .     S
H889   O933    0.988   .     S
H890   O934    0.990   .     S
H891   O935    0.991   .     S
H892   O936    0.990   .     S
H893   O937    0.991   .     S
H894   O938    0.990   .     S
H895   O939    0.988   .     S
H896   O940    0.990   .     S
H897   O941    0.989   .     S
H899   O943    0.990   .     S
N905   C954    1.371   1_455 S
N905   Zn949   2.027   .     S
N906   C1000   1.370   1_455 A
N906   Zn950   2.027   .     S
N907   Zn951   2.027   .     S
N908   Zn952   2.027   .     S
O909   Zn949   1.983   .     S
O910   Zn952   1.983   .     S
O911   Zn951   1.981   .     S
O912   Zn680   1.981   1_565 S
O913   Zn680   1.983   1_565 S
O914   Zn951   1.983   .     S
O915   Zn952   1.983   .     S
O916   Zn679   1.983   1_565 S
O920   Zn1086  1.983   .     S
O931   Zn1085  1.981   .     S
O942   Zn950   1.981   .     S
O944   Zn1086  1.983   .     S
O945   Zn949   1.983   .     S
O946   Zn950   1.983   .     S
O947   Zn1085  1.983   .     S
O948   Zn679   1.983   1_565 S
Zn949  O1067   1.981   1_455 S
Zn949  O1083   1.983   1_455 S
Zn950  O1080   1.983   1_455 S
Zn950  O1056   1.983   1_455 S
C953   O1078   1.285   .     A
C953   C982    1.407   .     S
C953   O1045   1.284   .     A
C954   O1054   1.382   .     S
C954   C1363   1.439   1_655 S
C954   N905    1.371   1_655 S
C955   O1055   1.382   .     S
C955   N1042   1.370   .     S
C956   N1041   1.371   .     A
C956   O1057   1.382   .     S
C956   C1408   1.439   .     S
C957   O1058   1.378   .     S
C957   N1044   1.368   .     A
C958   O1059   1.378   .     S
C958   C1503   1.426   .     S
C958   N771    1.374   1_565 S
C959   O1060   1.378   .     S
C959   N772    1.368   1_565 S
C960   N1043   1.374   .     A
C960   O1061   1.378   .     S
C960   C1501   1.426   .     S
C961   C972    1.394   .     A
C961   O1062   1.384   .     S
C961   C980    1.398   .     A
C962   C979    1.398   .     A
C962   C973    1.393   .     A
C962   O1063   1.384   .     S
C963   C970    1.393   .     A
C963   C979    1.398   .     A
C963   O1064   1.384   .     S
C964   C981    1.405   .     S
C964   O1056   1.284   .     A
C964   O1067   1.284   .     A
C965   C971    1.394   .     A
C965   C980    1.398   .     A
C965   O1065   1.384   .     S
C966   C982    1.411   .     A
C966   O1066   1.386   .     S
C966   C977    1.390   .     A
C967   C981    1.398   .     A
C967   C978    1.394   .     A
C967   O1068   1.384   .     S
C968   C981    1.410   .     A
C968   C974    1.378   .     A
C968   O1069   1.386   .     S
C969   C982    1.400   .     A
C969   C976    1.395   .     A
C969   O1070   1.384   .     S
C970   C984    1.401   .     A
C970   O1071   1.383   .     S
C971   C983    1.400   .     A
C971   O1072   1.383   .     S
C972   O1073   1.383   .     S
C972   C983    1.401   .     A
C973   O1074   1.383   .     S
C973   C984    1.400   .     A
C974   O1075   1.386   .     S
C974   C987    1.410   .     A
C975   O1083   1.284   .     A
C975   C980    1.407   .     S
C975   O1080   1.285   .     A
C976   O1076   1.384   .     S
C976   C985    1.397   .     A
C977   O1077   1.385   .     S
C977   C985    1.397   .     A
C978   O1079   1.383   .     S
C978   C987    1.399   .     A
C979   C986    1.407   .     S
C983   C999    1.410   .     S
C984   C998    1.410   .     S
C985   C997    1.407   .     S
C986   O1081   1.285   .     A
C986   O1082   1.285   .     A
C987   C996    1.407   .     S
C988   H1012   1.115   .     S
C988   O1053   1.412   .     S
C988   H1023   1.110   .     S
C988   H1001   1.110   .     S
C989   H1037   1.110   .     S
C989   O1054   1.412   .     S
C989   H1036   1.115   .     S
C989   H1034   1.110   .     S
C990   H1038   1.110   .     S
C990   H1040   1.110   .     S
C990   O1055   1.412   .     S
C990   H1039   1.115   .     S
C991   H1003   1.115   .     S
C991   H1004   1.110   .     S
C991   O1057   1.412   .     S
C991   H1002   1.110   .     S
C992   H1007   1.112   .     S
C992   H1006   1.114   .     S
C992   O1058   1.409   .     S
C992   H1005   1.109   .     S
C993   H1010   1.112   .     S
C993   H1008   1.109   .     S
C993   O1059   1.413   .     S
C993   H1009   1.114   .     S
C994   H1014   1.112   .     S
C994   H1013   1.114   .     S
C994   H1011   1.109   .     S
C994   O1060   1.409   .     S
C995   H1015   1.109   .     S
C995   H1016   1.114   .     S
C995   H1017   1.112   .     S
C995   O1061   1.413   .     S
C996   O1048   1.285   .     A
C996   O1084   1.284   .     A
C997   O1046   1.285   .     A
C997   O1047   1.284   .     A
C998   O1049   1.285   .     A
C998   O1052   1.286   .     A
C999   O1050   1.287   .     A
C999   O1051   1.285   .     A
C1000  O1053   1.382   .     S
C1000  N906    1.370   1_655 A
C1000  C276    1.439   1_655 S
H1018  O1062   0.990   .     S
H1019  O1063   0.990   .     S
H1020  O1064   0.990   .     S
H1021  O1065   0.990   .     S
H1022  O1066   0.988   .     S
H1024  O1068   0.990   .     S
H1025  O1069   0.988   .     S
H1026  O1070   0.990   .     S
H1027  O1071   0.991   .     S
H1028  O1072   0.990   .     S
H1029  O1073   0.991   .     S
H1030  O1074   0.990   .     S
H1031  O1075   0.988   .     S
H1032  O1076   0.990   .     S
H1033  O1077   0.989   .     S
H1035  O1079   0.990   .     S
N1041  Zn1085  2.027   .     S
N1042  Zn1086  2.027   .     S
N1043  Zn1087  2.027   .     S
N1044  Zn1088  2.027   .     S
O1045  Zn1085  1.983   .     S
O1046  Zn1088  1.983   .     S
O1047  Zn1087  1.981   .     S
O1048  Zn816   1.981   1_565 S
O1049  Zn816   1.983   1_565 S
O1050  Zn1087  1.983   .     S
O1051  Zn1088  1.983   .     S
O1052  Zn815   1.983   1_565 S
O1056  Zn950   1.983   1_655 S
O1067  Zn949   1.981   1_655 S
O1078  Zn1086  1.981   .     S
O1080  Zn950   1.983   1_655 S
O1081  Zn1085  1.983   .     S
O1082  Zn1086  1.983   .     S
O1083  Zn949   1.983   1_655 S
O1084  Zn815   1.983   1_565 S
C1089  O1214   1.285   .     A
C1089  C1118   1.407   .     S
C1089  O1181   1.284   .     A
C1090  O1190   1.382   .     S
C1090  C139    1.439   1_556 S
C1090  N1313   1.371   .     S
C1091  O1191   1.382   .     S
C1091  C682    1.439   1_455 S
C1091  N1178   1.370   .     S
C1092  N1177   1.371   .     A
C1092  O1193   1.382   .     S
C1092  C184    1.439   1_456 S
C1093  O1194   1.378   .     S
C1093  N1180   1.368   .     A
C1094  O1195   1.378   .     S
C1094  C7      1.426   1_556 S
C1094  N1451   1.374   .     S
C1095  O1196   1.378   .     S
C1095  N1452   1.368   .     S
C1096  N1179   1.374   .     A
C1096  O1197   1.378   .     S
C1096  C5      1.426   1_556 S
C1097  C1108   1.394   .     A
C1097  O1198   1.384   .     S
C1097  C1116   1.398   .     A
C1098  C1115   1.398   .     A
C1098  C1109   1.393   .     A
C1098  O1199   1.384   .     S
C1099  C1106   1.393   .     A
C1099  C1115   1.398   .     A
C1099  O1200   1.384   .     S
C1100  C1117   1.405   .     S
C1100  O1192   1.284   .     A
C1100  O1203   1.284   .     A
C1101  C1107   1.394   .     A
C1101  C1116   1.398   .     A
C1101  O1201   1.384   .     S
C1102  C1118   1.411   .     A
C1102  O1202   1.386   .     S
C1102  C1113   1.390   .     A
C1103  C1117   1.398   .     A
C1103  C1114   1.394   .     A
C1103  O1204   1.384   .     S
C1104  C1117   1.410   .     A
C1104  C1110   1.378   .     A
C1104  O1205   1.386   .     S
C1105  C1118   1.400   .     A
C1105  C1112   1.395   .     A
C1105  O1206   1.384   .     S
C1106  C1120   1.401   .     A
C1106  O1207   1.383   .     S
C1107  C1119   1.400   .     A
C1107  O1208   1.383   .     S
C1108  O1209   1.383   .     S
C1108  C1119   1.401   .     A
C1109  O1210   1.383   .     S
C1109  C1120   1.400   .     A
C1110  O1211   1.386   .     S
C1110  C1123   1.410   .     A
C1111  O1219   1.284   .     A
C1111  C1116   1.407   .     S
C1111  O1216   1.285   .     A
C1112  O1212   1.384   .     S
C1112  C1121   1.397   .     A
C1113  O1213   1.385   .     S
C1113  C1121   1.397   .     A
C1114  O1215   1.383   .     S
C1114  C1123   1.399   .     A
C1115  C1122   1.407   .     S
C1119  C1135   1.410   .     S
C1120  C1134   1.410   .     S
C1121  C1133   1.407   .     S
C1122  O1217   1.285   .     A
C1122  O1218   1.285   .     A
C1123  C1132   1.407   .     S
C1124  H1148   1.115   .     S
C1124  O1189   1.412   .     S
C1124  H1159   1.110   .     S
C1124  H1137   1.110   .     S
C1125  H1173   1.110   .     S
C1125  O1190   1.412   .     S
C1125  H1172   1.115   .     S
C1125  H1170   1.110   .     S
C1126  H1174   1.110   .     S
C1126  H1176   1.110   .     S
C1126  O1191   1.412   .     S
C1126  H1175   1.115   .     S
C1127  H1139   1.115   .     S
C1127  H1140   1.110   .     S
C1127  O1193   1.412   .     S
C1127  H1138   1.110   .     S
C1128  H1143   1.112   .     S
C1128  H1142   1.114   .     S
C1128  O1194   1.409   .     S
C1128  H1141   1.109   .     S
C1129  H1146   1.112   .     S
C1129  H1144   1.109   .     S
C1129  O1195   1.413   .     S
C1129  H1145   1.114   .     S
C1130  H1150   1.112   .     S
C1130  H1149   1.114   .     S
C1130  H1147   1.109   .     S
C1130  O1196   1.409   .     S
C1131  H1151   1.109   .     S
C1131  H1152   1.114   .     S
C1131  H1153   1.112   .     S
C1131  O1197   1.413   .     S
C1132  O1184   1.285   .     A
C1132  O1220   1.284   .     A
C1133  O1182   1.285   .     A
C1133  O1183   1.284   .     A
C1134  O1185   1.285   .     A
C1134  O1188   1.286   .     A
C1135  O1186   1.287   .     A
C1135  O1187   1.285   .     A
C1136  O1189   1.382   .     S
C1136  N1314   1.370   .     A
H1154  O1198   0.990   .     S
H1155  O1199   0.990   .     S
H1156  O1200   0.990   .     S
H1157  O1201   0.990   .     S
H1158  O1202   0.988   .     S
H1160  O1204   0.990   .     S
H1161  O1205   0.988   .     S
H1162  O1206   0.990   .     S
H1163  O1207   0.991   .     S
H1164  O1208   0.990   .     S
H1165  O1209   0.991   .     S
H1166  O1210   0.990   .     S
H1167  O1211   0.988   .     S
H1168  O1212   0.990   .     S
H1169  O1213   0.989   .     S
H1171  O1215   0.990   .     S
N1177  C1226   1.371   1_455 S
N1177  Zn1221  2.027   .     S
N1178  C1272   1.370   1_455 A
N1178  Zn1222  2.027   .     S
N1179  Zn1223  2.027   .     S
N1179  C1366   1.374   1_545 S
N1180  Zn1224  2.027   .     S
N1180  C1367   1.368   1_545 S
O1181  Zn1221  1.983   .     S
O1182  Zn1224  1.983   .     S
O1183  Zn1223  1.981   .     S
O1184  Zn1496  1.981   .     S
O1185  Zn1496  1.983   .     S
O1186  Zn1223  1.983   .     S
O1187  Zn1224  1.983   .     S
O1188  Zn1495  1.983   .     S
O1192  Zn1358  1.983   .     S
O1203  Zn1357  1.981   .     S
O1214  Zn1222  1.981   .     S
O1216  Zn1358  1.983   .     S
O1217  Zn1221  1.983   .     S
O1218  Zn1222  1.983   .     S
O1219  Zn1357  1.983   .     S
O1220  Zn1495  1.983   .     S
Zn1221 O1339   1.981   1_455 S
Zn1221 O1355   1.983   1_455 S
Zn1222 O1352   1.983   1_455 S
Zn1222 O1328   1.983   1_455 S
Zn1223 O1460   1.983   1_545 S
Zn1223 O1492   1.983   1_545 S
Zn1224 O1457   1.983   1_545 S
Zn1224 O1456   1.981   1_545 S
C1225  O1350   1.285   .     A
C1225  C1254   1.407   .     S
C1225  O1317   1.284   .     A
C1226  O1326   1.382   .     S
C1226  C3      1.439   1_656 S
C1226  N1177   1.371   1_655 S
C1227  O1327   1.382   .     S
C1227  N1314   1.370   .     S
C1228  N1313   1.371   .     A
C1228  O1329   1.382   .     S
C1228  C48     1.439   1_556 S
C1229  O1330   1.378   .     S
C1229  N1316   1.368   .     A
C1230  O1331   1.378   .     S
C1230  C143    1.426   1_556 S
C1230  N1587   1.374   .     S
C1231  O1332   1.378   .     S
C1231  N1588   1.368   .     S
C1232  N1315   1.374   .     A
C1232  O1333   1.378   .     S
C1232  C141    1.426   1_556 S
C1233  C1244   1.394   .     A
C1233  O1334   1.384   .     S
C1233  C1252   1.398   .     A
C1234  C1251   1.398   .     A
C1234  C1245   1.393   .     A
C1234  O1335   1.384   .     S
C1235  C1242   1.393   .     A
C1235  C1251   1.398   .     A
C1235  O1336   1.384   .     S
C1236  C1253   1.405   .     S
C1236  O1328   1.284   .     A
C1236  O1339   1.284   .     A
C1237  C1243   1.394   .     A
C1237  C1252   1.398   .     A
C1237  O1337   1.384   .     S
C1238  C1254   1.411   .     A
C1238  O1338   1.386   .     S
C1238  C1249   1.390   .     A
C1239  C1253   1.398   .     A
C1239  C1250   1.394   .     A
C1239  O1340   1.384   .     S
C1240  C1253   1.410   .     A
C1240  C1246   1.378   .     A
C1240  O1341   1.386   .     S
C1241  C1254   1.400   .     A
C1241  C1248   1.395   .     A
C1241  O1342   1.384   .     S
C1242  C1256   1.401   .     A
C1242  O1343   1.383   .     S
C1243  C1255   1.400   .     A
C1243  O1344   1.383   .     S
C1244  O1345   1.383   .     S
C1244  C1255   1.401   .     A
C1245  O1346   1.383   .     S
C1245  C1256   1.400   .     A
C1246  O1347   1.386   .     S
C1246  C1259   1.410   .     A
C1247  O1355   1.284   .     A
C1247  C1252   1.407   .     S
C1247  O1352   1.285   .     A
C1248  O1348   1.384   .     S
C1248  C1257   1.397   .     A
C1249  O1349   1.385   .     S
C1249  C1257   1.397   .     A
C1250  O1351   1.383   .     S
C1250  C1259   1.399   .     A
C1251  C1258   1.407   .     S
C1255  C1271   1.410   .     S
C1256  C1270   1.410   .     S
C1257  C1269   1.407   .     S
C1258  O1353   1.285   .     A
C1258  O1354   1.285   .     A
C1259  C1268   1.407   .     S
C1260  H1284   1.115   .     S
C1260  O1325   1.412   .     S
C1260  H1295   1.110   .     S
C1260  H1273   1.110   .     S
C1261  H1309   1.110   .     S
C1261  O1326   1.412   .     S
C1261  H1308   1.115   .     S
C1261  H1306   1.110   .     S
C1262  H1310   1.110   .     S
C1262  H1312   1.110   .     S
C1262  O1327   1.412   .     S
C1262  H1311   1.115   .     S
C1263  H1275   1.115   .     S
C1263  H1276   1.110   .     S
C1263  O1329   1.412   .     S
C1263  H1274   1.110   .     S
C1264  H1279   1.112   .     S
C1264  H1278   1.114   .     S
C1264  O1330   1.409   .     S
C1264  H1277   1.109   .     S
C1265  H1282   1.112   .     S
C1265  H1280   1.109   .     S
C1265  O1331   1.413   .     S
C1265  H1281   1.114   .     S
C1266  H1286   1.112   .     S
C1266  H1285   1.114   .     S
C1266  H1283   1.109   .     S
C1266  O1332   1.409   .     S
C1267  H1287   1.109   .     S
C1267  H1288   1.114   .     S
C1267  H1289   1.112   .     S
C1267  O1333   1.413   .     S
C1268  O1320   1.285   .     A
C1268  O1356   1.284   .     A
C1269  O1318   1.285   .     A
C1269  O1319   1.284   .     A
C1270  O1321   1.285   .     A
C1270  O1324   1.286   .     A
C1271  O1322   1.287   .     A
C1271  O1323   1.285   .     A
C1272  O1325   1.382   .     S
C1272  N1178   1.370   1_655 A
C1272  C548    1.439   1_655 S
H1290  O1334   0.990   .     S
H1291  O1335   0.990   .     S
H1292  O1336   0.990   .     S
H1293  O1337   0.990   .     S
H1294  O1338   0.988   .     S
H1296  O1340   0.990   .     S
H1297  O1341   0.988   .     S
H1298  O1342   0.990   .     S
H1299  O1343   0.991   .     S
H1300  O1344   0.990   .     S
H1301  O1345   0.991   .     S
H1302  O1346   0.990   .     S
H1303  O1347   0.988   .     S
H1304  O1348   0.990   .     S
H1305  O1349   0.989   .     S
H1307  O1351   0.990   .     S
N1313  Zn1357  2.027   .     S
N1314  Zn1358  2.027   .     S
N1315  Zn1359  2.027   .     S
N1315  C1502   1.374   1_545 S
N1316  Zn1360  2.027   .     S
N1316  C1503   1.368   1_545 S
O1317  Zn1357  1.983   .     S
O1318  Zn1360  1.983   .     S
O1319  Zn1359  1.981   .     S
O1320  Zn1632  1.981   .     S
O1321  Zn1632  1.983   .     S
O1322  Zn1359  1.983   .     S
O1323  Zn1360  1.983   .     S
O1324  Zn1631  1.983   .     S
O1328  Zn1222  1.983   1_655 S
O1339  Zn1221  1.981   1_655 S
O1350  Zn1358  1.981   .     S
O1352  Zn1222  1.983   1_655 S
O1353  Zn1357  1.983   .     S
O1354  Zn1358  1.983   .     S
O1355  Zn1221  1.983   1_655 S
O1356  Zn1631  1.983   .     S
Zn1359 O1596   1.983   1_545 S
Zn1359 O1628   1.983   1_545 S
Zn1360 O1593   1.983   1_545 S
Zn1360 O1592   1.981   1_545 S
C1361  O1486   1.285   .     A
C1361  C1390   1.407   .     S
C1361  O1453   1.284   .     A
C1362  O1462   1.382   .     S
C1362  C411    1.439   1_556 S
C1362  N1585   1.371   .     S
C1363  O1463   1.382   .     S
C1363  C954    1.439   1_455 S
C1363  N1450   1.370   .     S
C1364  N1449   1.371   .     A
C1364  O1465   1.382   .     S
C1364  C456    1.439   1_456 S
C1365  O1466   1.378   .     S
C1365  N1452   1.368   .     A
C1366  O1467   1.378   .     S
C1366  C279    1.426   1_556 S
C1366  N1179   1.374   1_565 S
C1367  O1468   1.378   .     S
C1367  N1180   1.368   1_565 S
C1368  N1451   1.374   .     A
C1368  O1469   1.378   .     S
C1368  C277    1.426   1_556 S
C1369  C1380   1.394   .     A
C1369  O1470   1.384   .     S
C1369  C1388   1.398   .     A
C1370  C1387   1.398   .     A
C1370  C1381   1.393   .     A
C1370  O1471   1.384   .     S
C1371  C1378   1.393   .     A
C1371  C1387   1.398   .     A
C1371  O1472   1.384   .     S
C1372  C1389   1.405   .     S
C1372  O1464   1.284   .     A
C1372  O1475   1.284   .     A
C1373  C1379   1.394   .     A
C1373  C1388   1.398   .     A
C1373  O1473   1.384   .     S
C1374  C1390   1.411   .     A
C1374  O1474   1.386   .     S
C1374  C1385   1.390   .     A
C1375  C1389   1.398   .     A
C1375  C1386   1.394   .     A
C1375  O1476   1.384   .     S
C1376  C1389   1.410   .     A
C1376  C1382   1.378   .     A
C1376  O1477   1.386   .     S
C1377  C1390   1.400   .     A
C1377  C1384   1.395   .     A
C1377  O1478   1.384   .     S
C1378  C1392   1.401   .     A
C1378  O1479   1.383   .     S
C1379  C1391   1.400   .     A
C1379  O1480   1.383   .     S
C1380  O1481   1.383   .     S
C1380  C1391   1.401   .     A
C1381  O1482   1.383   .     S
C1381  C1392   1.400   .     A
C1382  O1483   1.386   .     S
C1382  C1395   1.410   .     A
C1383  O1491   1.284   .     A
C1383  C1388   1.407   .     S
C1383  O1488   1.285   .     A
C1384  O1484   1.384   .     S
C1384  C1393   1.397   .     A
C1385  O1485   1.385   .     S
C1385  C1393   1.397   .     A
C1386  O1487   1.383   .     S
C1386  C1395   1.399   .     A
C1387  C1394   1.407   .     S
C1391  C1407   1.410   .     S
C1392  C1406   1.410   .     S
C1393  C1405   1.407   .     S
C1394  O1489   1.285   .     A
C1394  O1490   1.285   .     A
C1395  C1404   1.407   .     S
C1396  H1420   1.115   .     S
C1396  O1461   1.412   .     S
C1396  H1431   1.110   .     S
C1396  H1409   1.110   .     S
C1397  H1445   1.110   .     S
C1397  O1462   1.412   .     S
C1397  H1444   1.115   .     S
C1397  H1442   1.110   .     S
C1398  H1446   1.110   .     S
C1398  H1448   1.110   .     S
C1398  O1463   1.412   .     S
C1398  H1447   1.115   .     S
C1399  H1411   1.115   .     S
C1399  H1412   1.110   .     S
C1399  O1465   1.412   .     S
C1399  H1410   1.110   .     S
C1400  H1415   1.112   .     S
C1400  H1414   1.114   .     S
C1400  O1466   1.409   .     S
C1400  H1413   1.109   .     S
C1401  H1418   1.112   .     S
C1401  H1416   1.109   .     S
C1401  O1467   1.413   .     S
C1401  H1417   1.114   .     S
C1402  H1422   1.112   .     S
C1402  H1421   1.114   .     S
C1402  H1419   1.109   .     S
C1402  O1468   1.409   .     S
C1403  H1423   1.109   .     S
C1403  H1424   1.114   .     S
C1403  H1425   1.112   .     S
C1403  O1469   1.413   .     S
C1404  O1456   1.285   .     A
C1404  O1492   1.284   .     A
C1405  O1454   1.285   .     A
C1405  O1455   1.284   .     A
C1406  O1457   1.285   .     A
C1406  O1460   1.286   .     A
C1407  O1458   1.287   .     A
C1407  O1459   1.285   .     A
C1408  O1461   1.382   .     S
C1408  N1586   1.370   .     A
H1426  O1470   0.990   .     S
H1427  O1471   0.990   .     S
H1428  O1472   0.990   .     S
H1429  O1473   0.990   .     S
H1430  O1474   0.988   .     S
H1432  O1476   0.990   .     S
H1433  O1477   0.988   .     S
H1434  O1478   0.990   .     S
H1435  O1479   0.991   .     S
H1436  O1480   0.990   .     S
H1437  O1481   0.991   .     S
H1438  O1482   0.990   .     S
H1439  O1483   0.988   .     S
H1440  O1484   0.990   .     S
H1441  O1485   0.989   .     S
H1443  O1487   0.990   .     S
N1449  C1498   1.371   1_455 S
N1449  Zn1493  2.027   .     S
N1450  C1544   1.370   1_455 A
N1450  Zn1494  2.027   .     S
N1451  Zn1495  2.027   .     S
N1452  Zn1496  2.027   .     S
O1453  Zn1493  1.983   .     S
O1454  Zn1496  1.983   .     S
O1455  Zn1495  1.981   .     S
O1456  Zn1224  1.981   1_565 S
O1457  Zn1224  1.983   1_565 S
O1458  Zn1495  1.983   .     S
O1459  Zn1496  1.983   .     S
O1460  Zn1223  1.983   1_565 S
O1464  Zn1630  1.983   .     S
O1475  Zn1629  1.981   .     S
O1486  Zn1494  1.981   .     S
O1488  Zn1630  1.983   .     S
O1489  Zn1493  1.983   .     S
O1490  Zn1494  1.983   .     S
O1491  Zn1629  1.983   .     S
O1492  Zn1223  1.983   1_565 S
Zn1493 O1611   1.981   1_455 S
Zn1493 O1627   1.983   1_455 S
Zn1494 O1624   1.983   1_455 S
Zn1494 O1600   1.983   1_455 S
C1497  O1622   1.285   .     A
C1497  C1526   1.407   .     S
C1497  O1589   1.284   .     A
C1498  O1598   1.382   .     S
C1498  C275    1.439   1_656 S
C1498  N1449   1.371   1_655 S
C1499  O1599   1.382   .     S
C1499  N1586   1.370   .     S
C1500  N1585   1.371   .     A
C1500  O1601   1.382   .     S
C1500  C320    1.439   1_556 S
C1501  O1602   1.378   .     S
C1501  N1588   1.368   .     A
C1502  O1603   1.378   .     S
C1502  C415    1.426   1_556 S
C1502  N1315   1.374   1_565 S
C1503  O1604   1.378   .     S
C1503  N1316   1.368   1_565 S
C1504  N1587   1.374   .     A
C1504  O1605   1.378   .     S
C1504  C413    1.426   1_556 S
C1505  C1516   1.394   .     A
C1505  O1606   1.384   .     S
C1505  C1524   1.398   .     A
C1506  C1523   1.398   .     A
C1506  C1517   1.393   .     A
C1506  O1607   1.384   .     S
C1507  C1514   1.393   .     A
C1507  C1523   1.398   .     A
C1507  O1608   1.384   .     S
C1508  C1525   1.405   .     S
C1508  O1600   1.284   .     A
C1508  O1611   1.284   .     A
C1509  C1515   1.394   .     A
C1509  C1524   1.398   .     A
C1509  O1609   1.384   .     S
C1510  C1526   1.411   .     A
C1510  O1610   1.386   .     S
C1510  C1521   1.390   .     A
C1511  C1525   1.398   .     A
C1511  C1522   1.394   .     A
C1511  O1612   1.384   .     S
C1512  C1525   1.410   .     A
C1512  C1518   1.378   .     A
C1512  O1613   1.386   .     S
C1513  C1526   1.400   .     A
C1513  C1520   1.395   .     A
C1513  O1614   1.384   .     S
C1514  C1528   1.401   .     A
C1514  O1615   1.383   .     S
C1515  C1527   1.400   .     A
C1515  O1616   1.383   .     S
C1516  O1617   1.383   .     S
C1516  C1527   1.401   .     A
C1517  O1618   1.383   .     S
C1517  C1528   1.400   .     A
C1518  O1619   1.386   .     S
C1518  C1531   1.410   .     A
C1519  O1627   1.284   .     A
C1519  C1524   1.407   .     S
C1519  O1624   1.285   .     A
C1520  O1620   1.384   .     S
C1520  C1529   1.397   .     A
C1521  O1621   1.385   .     S
C1521  C1529   1.397   .     A
C1522  O1623   1.383   .     S
C1522  C1531   1.399   .     A
C1523  C1530   1.407   .     S
C1527  C1543   1.410   .     S
C1528  C1542   1.410   .     S
C1529  C1541   1.407   .     S
C1530  O1625   1.285   .     A
C1530  O1626   1.285   .     A
C1531  C1540   1.407   .     S
C1532  H1556   1.115   .     S
C1532  O1597   1.412   .     S
C1532  H1567   1.110   .     S
C1532  H1545   1.110   .     S
C1533  H1581   1.110   .     S
C1533  O1598   1.412   .     S
C1533  H1580   1.115   .     S
C1533  H1578   1.110   .     S
C1534  H1582   1.110   .     S
C1534  H1584   1.110   .     S
C1534  O1599   1.412   .     S
C1534  H1583   1.115   .     S
C1535  H1547   1.115   .     S
C1535  H1548   1.110   .     S
C1535  O1601   1.412   .     S
C1535  H1546   1.110   .     S
C1536  H1551   1.112   .     S
C1536  H1550   1.114   .     S
C1536  O1602   1.409   .     S
C1536  H1549   1.109   .     S
C1537  H1554   1.112   .     S
C1537  H1552   1.109   .     S
C1537  O1603   1.413   .     S
C1537  H1553   1.114   .     S
C1538  H1558   1.112   .     S
C1538  H1557   1.114   .     S
C1538  H1555   1.109   .     S
C1538  O1604   1.409   .     S
C1539  H1559   1.109   .     S
C1539  H1560   1.114   .     S
C1539  H1561   1.112   .     S
C1539  O1605   1.413   .     S
C1540  O1592   1.285   .     A
C1540  O1628   1.284   .     A
C1541  O1590   1.285   .     A
C1541  O1591   1.284   .     A
C1542  O1593   1.285   .     A
C1542  O1596   1.286   .     A
C1543  O1594   1.287   .     A
C1543  O1595   1.285   .     A
C1544  O1597   1.382   .     S
C1544  N1450   1.370   1_655 A
C1544  C820    1.439   1_655 S
H1562  O1606   0.990   .     S
H1563  O1607   0.990   .     S
H1564  O1608   0.990   .     S
H1565  O1609   0.990   .     S
H1566  O1610   0.988   .     S
H1568  O1612   0.990   .     S
H1569  O1613   0.988   .     S
H1570  O1614   0.990   .     S
H1571  O1615   0.991   .     S
H1572  O1616   0.990   .     S
H1573  O1617   0.991   .     S
H1574  O1618   0.990   .     S
H1575  O1619   0.988   .     S
H1576  O1620   0.990   .     S
H1577  O1621   0.989   .     S
H1579  O1623   0.990   .     S
N1585  Zn1629  2.027   .     S
N1586  Zn1630  2.027   .     S
N1587  Zn1631  2.027   .     S
N1588  Zn1632  2.027   .     S
O1589  Zn1629  1.983   .     S
O1590  Zn1632  1.983   .     S
O1591  Zn1631  1.981   .     S
O1592  Zn1360  1.981   1_565 S
O1593  Zn1360  1.983   1_565 S
O1594  Zn1631  1.983   .     S
O1595  Zn1632  1.983   .     S
O1596  Zn1359  1.983   1_565 S
O1600  Zn1494  1.983   1_655 S
O1611  Zn1493  1.981   1_655 S
O1622  Zn1630  1.981   .     S
O1624  Zn1494  1.983   1_655 S
O1625  Zn1629  1.983   .     S
O1626  Zn1630  1.983   .     S
O1627  Zn1493  1.983   1_655 S
O1628  Zn1359  1.983   1_565 S
