data_str_m3_o1_o2_pcu_sym.132
_audit_creation_date              2020-01-03
_audit_creation_method            'Materials Studio'
_symmetry_space_group_name_H-M    'P1'
_symmetry_Int_Tables_number       1
_symmetry_cell_setting            triclinic
loop_
_symmetry_equiv_pos_as_xyz
  x,y,z
_cell_length_a                    32.1604
_cell_length_b                    29.8253
_cell_length_c                    29.7583
_cell_angle_alpha                 89.9999
_cell_angle_beta                  90.4756
_cell_angle_gamma                 90.0000
loop_
_atom_site_label
_atom_site_type_symbol
_atom_site_fract_x
_atom_site_fract_y
_atom_site_fract_z
_atom_site_U_iso_or_equiv
_atom_site_adp_type
_atom_site_occupancy
C1     C     0.08673   0.16668   0.25020   0.00000  Uiso   1.00
C2     C     0.24661   0.16668   0.24980   0.00000  Uiso   1.00
C3     C     0.16668   0.16652   0.16416   0.00000  Uiso   1.00
C4     C     0.16665   0.16652   0.33584   0.00000  Uiso   1.00
C5     C     0.18322   0.02421   0.28519   0.00000  Uiso   1.00
C6     C     0.15490   0.31007   0.21250   0.00000  Uiso   1.00
C7     C     0.15011   0.02421   0.21481   0.00000  Uiso   1.00
C8     C     0.17843   0.31007   0.28750   0.00000  Uiso   1.00
C9     C     0.02127   0.12588   0.25057   0.00000  Uiso   1.00
C10    C     0.31203   0.20763   0.24990   0.00000  Uiso   1.00
C11    C     0.31206   0.12588   0.24943   0.00000  Uiso   1.00
C12    C     0.02130   0.20763   0.25010   0.00000  Uiso   1.00
C13    C     0.20130   0.17856   0.04686   0.00000  Uiso   1.00
C14    C     0.20042   0.14336   0.45225   0.00000  Uiso   1.00
C15    C     0.13204   0.17856   0.45314   0.00000  Uiso   1.00
C16    C     0.13290   0.14337   0.04775   0.00000  Uiso   1.00
C17    C     0.20107   0.18107   0.09321   0.00000  Uiso   1.00
C18    C     0.20058   0.14590   0.40591   0.00000  Uiso   1.00
C19    C     0.13227   0.18107   0.40679   0.00000  Uiso   1.00
C20    C     0.13275   0.14590   0.09410   0.00000  Uiso   1.00
C21    C     0.16649   0.16544   0.11639   0.00000  Uiso   1.00
C22    C     0.16684   0.16544   0.38361   0.00000  Uiso   1.00
C23    C     0.16706   0.16003   0.02420   0.00000  Uiso   1.00
C24    C     0.16627   0.16003   0.47580   0.00000  Uiso   1.00
C25    C     0.29082   0.16673   0.24959   0.00000  Uiso   1.00
C26    C     0.04252   0.16673   0.25041   0.00000  Uiso   1.00
H27    H     0.22766   0.19171   0.02865   0.00000  Uiso   1.00
H28    H     0.22676   0.12863   0.46974   0.00000  Uiso   1.00
H29    H     0.10567   0.19172   0.47135   0.00000  Uiso   1.00
H30    H     0.10656   0.12864   0.03026   0.00000  Uiso   1.00
H31    H     0.22754   0.19522   0.11097   0.00000  Uiso   1.00
H32    H     0.22695   0.13311   0.38744   0.00000  Uiso   1.00
H33    H     0.10579   0.19523   0.38903   0.00000  Uiso   1.00
H34    H     0.10637   0.13312   0.11257   0.00000  Uiso   1.00
H35    H     0.03729   0.09397   0.25149   0.00000  Uiso   1.00
H36    H     0.29591   0.23953   0.24992   0.00000  Uiso   1.00
H37    H     0.29604   0.09397   0.24850   0.00000  Uiso   1.00
H38    H     0.03742   0.23953   0.25008   0.00000  Uiso   1.00
N39    N     0.16667   0.28573   0.25000   0.00000  Uiso   1.00
N40    N     0.16667   0.04760   0.25000   0.00000  Uiso   1.00
O41    O     0.10559   0.20487   0.25000   0.00000  Uiso   1.00
O42    O     0.22774   0.12846   0.25001   0.00000  Uiso   1.00
O43    O     0.22774   0.20487   0.25001   0.00000  Uiso   1.00
O44    O     0.10559   0.12846   0.25000   0.00000  Uiso   1.00
O45    O     0.16666   0.20489   0.18453   0.00000  Uiso   1.00
O46    O     0.16667   0.12845   0.31547   0.00000  Uiso   1.00
O47    O     0.16667   0.20489   0.31547   0.00000  Uiso   1.00
O48    O     0.16666   0.12845   0.18453   0.00000  Uiso   1.00
Zn49   Zn    0.16667   0.21771   0.25000   0.00000  Uiso   1.00
Zn50   Zn    0.16667   0.11563   0.25000   0.00000  Uiso   1.00
O51    O     0.20084   0.04735   0.32076   0.00000  Uiso   1.00
C52    C     0.24461   0.04218   0.32084   0.00000  Uiso   1.00
H53    H     0.25867   0.07543   0.31420   0.00000  Uiso   1.00
H54    H     0.25683   0.01830   0.29518   0.00000  Uiso   1.00
C55    C     0.25945   0.02703   0.36712   0.00000  Uiso   1.00
H56    H     0.24790   0.32610   0.37440   0.00000  Uiso   1.00
H57    H     0.29397   0.02659   0.36824   0.00000  Uiso   1.00
H58    H     0.24802   0.05041   0.39330   0.00000  Uiso   1.00
O59    O     0.14646   0.28906   0.17216   0.00000  Uiso   1.00
C60    C     0.18298   0.28858   0.14558   0.00000  Uiso   1.00
H61    H     0.17859   0.26230   0.11979   0.00000  Uiso   1.00
H62    H     0.21137   0.27940   0.16533   0.00000  Uiso   1.00
C63    C     0.19012   0.33219   0.11976   0.00000  Uiso   1.00
H64    H     0.20194   0.02552   0.14250   0.00000  Uiso   1.00
H65    H     0.21402   0.32656   0.09363   0.00000  Uiso   1.00
H66    H     0.16100   0.00992   0.10287   0.00000  Uiso   1.00
O67    O     0.13249   0.04735   0.17924   0.00000  Uiso   1.00
C68    C     0.08873   0.04217   0.17915   0.00000  Uiso   1.00
H69    H     0.07466   0.07541   0.18580   0.00000  Uiso   1.00
H70    H     0.07650   0.01828   0.20480   0.00000  Uiso   1.00
C71    C     0.07390   0.02704   0.13287   0.00000  Uiso   1.00
H72    H     0.08545   0.32612   0.12557   0.00000  Uiso   1.00
H73    H     0.03938   0.02659   0.13174   0.00000  Uiso   1.00
H74    H     0.08532   0.05043   0.10670   0.00000  Uiso   1.00
O75    O     0.18688   0.28905   0.32784   0.00000  Uiso   1.00
C76    C     0.15037   0.28858   0.35442   0.00000  Uiso   1.00
H77    H     0.15475   0.26230   0.38022   0.00000  Uiso   1.00
H78    H     0.12196   0.27940   0.33467   0.00000  Uiso   1.00
C79    C     0.14322   0.33219   0.38025   0.00000  Uiso   1.00
H80    H     0.13141   0.02552   0.35751   0.00000  Uiso   1.00
H81    H     0.11933   0.32656   0.40638   0.00000  Uiso   1.00
H82    H     0.17235   0.00992   0.39713   0.00000  Uiso   1.00
C83    C     0.42006   0.16668   0.25020   0.00000  Uiso   1.00
C84    C     0.57994   0.16668   0.24980   0.00000  Uiso   1.00
C85    C     0.50001   0.16652   0.16416   0.00000  Uiso   1.00
C86    C     0.49999   0.16652   0.33584   0.00000  Uiso   1.00
C87    C     0.51656   0.02421   0.28519   0.00000  Uiso   1.00
C88    C     0.48824   0.31007   0.21250   0.00000  Uiso   1.00
C89    C     0.48344   0.02421   0.21481   0.00000  Uiso   1.00
C90    C     0.51176   0.31007   0.28750   0.00000  Uiso   1.00
C91    C     0.35460   0.12588   0.25057   0.00000  Uiso   1.00
C92    C     0.64537   0.20763   0.24990   0.00000  Uiso   1.00
C93    C     0.64540   0.12588   0.24943   0.00000  Uiso   1.00
C94    C     0.35463   0.20763   0.25010   0.00000  Uiso   1.00
C95    C     0.53463   0.17856   0.04686   0.00000  Uiso   1.00
C96    C     0.53376   0.14336   0.45225   0.00000  Uiso   1.00
C97    C     0.46537   0.17856   0.45314   0.00000  Uiso   1.00
C98    C     0.46624   0.14337   0.04775   0.00000  Uiso   1.00
C99    C     0.53440   0.18107   0.09321   0.00000  Uiso   1.00
C100   C     0.53391   0.14590   0.40591   0.00000  Uiso   1.00
C101   C     0.46560   0.18107   0.40679   0.00000  Uiso   1.00
C102   C     0.46608   0.14590   0.09410   0.00000  Uiso   1.00
C103   C     0.49983   0.16544   0.11639   0.00000  Uiso   1.00
C104   C     0.50017   0.16544   0.38361   0.00000  Uiso   1.00
C105   C     0.50039   0.16003   0.02420   0.00000  Uiso   1.00
C106   C     0.49961   0.16003   0.47580   0.00000  Uiso   1.00
C107   C     0.62415   0.16673   0.24959   0.00000  Uiso   1.00
C108   C     0.37585   0.16673   0.25041   0.00000  Uiso   1.00
H109   H     0.56099   0.19171   0.02865   0.00000  Uiso   1.00
H110   H     0.56009   0.12863   0.46974   0.00000  Uiso   1.00
H111   H     0.43901   0.19172   0.47135   0.00000  Uiso   1.00
H112   H     0.43990   0.12864   0.03026   0.00000  Uiso   1.00
H113   H     0.56088   0.19522   0.11097   0.00000  Uiso   1.00
H114   H     0.56029   0.13311   0.38744   0.00000  Uiso   1.00
H115   H     0.43913   0.19523   0.38903   0.00000  Uiso   1.00
H116   H     0.43971   0.13312   0.11257   0.00000  Uiso   1.00
H117   H     0.37062   0.09397   0.25149   0.00000  Uiso   1.00
H118   H     0.62924   0.23953   0.24992   0.00000  Uiso   1.00
H119   H     0.62938   0.09397   0.24850   0.00000  Uiso   1.00
H120   H     0.37076   0.23953   0.25008   0.00000  Uiso   1.00
N121   N     0.50000   0.28573   0.25000   0.00000  Uiso   1.00
N122   N     0.50000   0.04760   0.25000   0.00000  Uiso   1.00
O123   O     0.43892   0.20487   0.25000   0.00000  Uiso   1.00
O124   O     0.56108   0.12846   0.25001   0.00000  Uiso   1.00
O125   O     0.56108   0.20487   0.25001   0.00000  Uiso   1.00
O126   O     0.43892   0.12846   0.25000   0.00000  Uiso   1.00
O127   O     0.50000   0.20489   0.18453   0.00000  Uiso   1.00
O128   O     0.50000   0.12845   0.31547   0.00000  Uiso   1.00
O129   O     0.50000   0.20489   0.31547   0.00000  Uiso   1.00
O130   O     0.50000   0.12845   0.18453   0.00000  Uiso   1.00
Zn131  Zn    0.50000   0.21771   0.25000   0.00000  Uiso   1.00
Zn132  Zn    0.50000   0.11563   0.25000   0.00000  Uiso   1.00
O133   O     0.53418   0.04735   0.32076   0.00000  Uiso   1.00
C134   C     0.57794   0.04218   0.32084   0.00000  Uiso   1.00
H135   H     0.59200   0.07543   0.31420   0.00000  Uiso   1.00
H136   H     0.59017   0.01830   0.29518   0.00000  Uiso   1.00
C137   C     0.59278   0.02703   0.36712   0.00000  Uiso   1.00
H138   H     0.58124   0.32610   0.37440   0.00000  Uiso   1.00
H139   H     0.62730   0.02659   0.36824   0.00000  Uiso   1.00
H140   H     0.58135   0.05041   0.39330   0.00000  Uiso   1.00
O141   O     0.47979   0.28906   0.17216   0.00000  Uiso   1.00
C142   C     0.51631   0.28858   0.14558   0.00000  Uiso   1.00
H143   H     0.51192   0.26230   0.11979   0.00000  Uiso   1.00
H144   H     0.54471   0.27940   0.16533   0.00000  Uiso   1.00
C145   C     0.52346   0.33219   0.11976   0.00000  Uiso   1.00
H146   H     0.53527   0.02552   0.14250   0.00000  Uiso   1.00
H147   H     0.54735   0.32656   0.09363   0.00000  Uiso   1.00
H148   H     0.49433   0.00992   0.10287   0.00000  Uiso   1.00
O149   O     0.46583   0.04735   0.17924   0.00000  Uiso   1.00
C150   C     0.42206   0.04217   0.17915   0.00000  Uiso   1.00
H151   H     0.40799   0.07541   0.18580   0.00000  Uiso   1.00
H152   H     0.40984   0.01828   0.20480   0.00000  Uiso   1.00
C153   C     0.40723   0.02704   0.13287   0.00000  Uiso   1.00
H154   H     0.41878   0.32612   0.12557   0.00000  Uiso   1.00
H155   H     0.37271   0.02659   0.13174   0.00000  Uiso   1.00
H156   H     0.41866   0.05043   0.10670   0.00000  Uiso   1.00
O157   O     0.52021   0.28905   0.32784   0.00000  Uiso   1.00
C158   C     0.48370   0.28858   0.35442   0.00000  Uiso   1.00
H159   H     0.48808   0.26230   0.38022   0.00000  Uiso   1.00
H160   H     0.45530   0.27940   0.33467   0.00000  Uiso   1.00
C161   C     0.47656   0.33219   0.38025   0.00000  Uiso   1.00
H162   H     0.46474   0.02552   0.35751   0.00000  Uiso   1.00
H163   H     0.45266   0.32656   0.40638   0.00000  Uiso   1.00
H164   H     0.50568   0.00992   0.39713   0.00000  Uiso   1.00
C165   C     0.75339   0.16668   0.25020   0.00000  Uiso   1.00
C166   C     0.91327   0.16668   0.24980   0.00000  Uiso   1.00
C167   C     0.83335   0.16652   0.16416   0.00000  Uiso   1.00
C168   C     0.83332   0.16652   0.33584   0.00000  Uiso   1.00
C169   C     0.84989   0.02421   0.28519   0.00000  Uiso   1.00
C170   C     0.82157   0.31007   0.21250   0.00000  Uiso   1.00
C171   C     0.81678   0.02421   0.21481   0.00000  Uiso   1.00
C172   C     0.84510   0.31007   0.28750   0.00000  Uiso   1.00
C173   C     0.68794   0.12588   0.25057   0.00000  Uiso   1.00
C174   C     0.97870   0.20763   0.24990   0.00000  Uiso   1.00
C175   C     0.97873   0.12588   0.24943   0.00000  Uiso   1.00
C176   C     0.68796   0.20763   0.25010   0.00000  Uiso   1.00
C177   C     0.86796   0.17856   0.04686   0.00000  Uiso   1.00
C178   C     0.86709   0.14336   0.45225   0.00000  Uiso   1.00
C179   C     0.79870   0.17856   0.45314   0.00000  Uiso   1.00
C180   C     0.79957   0.14337   0.04775   0.00000  Uiso   1.00
C181   C     0.86773   0.18107   0.09321   0.00000  Uiso   1.00
C182   C     0.86725   0.14590   0.40591   0.00000  Uiso   1.00
C183   C     0.79893   0.18107   0.40679   0.00000  Uiso   1.00
C184   C     0.79941   0.14590   0.09410   0.00000  Uiso   1.00
C185   C     0.83316   0.16544   0.11639   0.00000  Uiso   1.00
C186   C     0.83350   0.16544   0.38361   0.00000  Uiso   1.00
C187   C     0.83372   0.16003   0.02420   0.00000  Uiso   1.00
C188   C     0.83294   0.16003   0.47580   0.00000  Uiso   1.00
C189   C     0.95748   0.16673   0.24959   0.00000  Uiso   1.00
C190   C     0.70918   0.16673   0.25041   0.00000  Uiso   1.00
H191   H     0.89433   0.19171   0.02865   0.00000  Uiso   1.00
H192   H     0.89343   0.12863   0.46974   0.00000  Uiso   1.00
H193   H     0.77234   0.19172   0.47135   0.00000  Uiso   1.00
H194   H     0.77323   0.12864   0.03026   0.00000  Uiso   1.00
H195   H     0.89421   0.19522   0.11097   0.00000  Uiso   1.00
H196   H     0.89362   0.13311   0.38744   0.00000  Uiso   1.00
H197   H     0.77246   0.19523   0.38903   0.00000  Uiso   1.00
H198   H     0.77304   0.13312   0.11257   0.00000  Uiso   1.00
H199   H     0.70396   0.09397   0.25149   0.00000  Uiso   1.00
H200   H     0.96258   0.23953   0.24992   0.00000  Uiso   1.00
H201   H     0.96271   0.09397   0.24850   0.00000  Uiso   1.00
H202   H     0.70409   0.23953   0.25008   0.00000  Uiso   1.00
N203   N     0.83333   0.28573   0.25000   0.00000  Uiso   1.00
N204   N     0.83333   0.04760   0.25000   0.00000  Uiso   1.00
O205   O     0.77226   0.20487   0.25000   0.00000  Uiso   1.00
O206   O     0.89441   0.12846   0.25001   0.00000  Uiso   1.00
O207   O     0.89441   0.20487   0.25001   0.00000  Uiso   1.00
O208   O     0.77226   0.12846   0.25000   0.00000  Uiso   1.00
O209   O     0.83333   0.20489   0.18453   0.00000  Uiso   1.00
O210   O     0.83334   0.12845   0.31547   0.00000  Uiso   1.00
O211   O     0.83334   0.20489   0.31547   0.00000  Uiso   1.00
O212   O     0.83333   0.12845   0.18453   0.00000  Uiso   1.00
Zn213  Zn    0.83333   0.21771   0.25000   0.00000  Uiso   1.00
Zn214  Zn    0.83333   0.11563   0.25000   0.00000  Uiso   1.00
O215   O     0.86751   0.04735   0.32076   0.00000  Uiso   1.00
C216   C     0.91127   0.04218   0.32084   0.00000  Uiso   1.00
H217   H     0.92533   0.07543   0.31420   0.00000  Uiso   1.00
H218   H     0.92350   0.01830   0.29518   0.00000  Uiso   1.00
C219   C     0.92612   0.02703   0.36712   0.00000  Uiso   1.00
H220   H     0.91457   0.32610   0.37440   0.00000  Uiso   1.00
H221   H     0.96063   0.02659   0.36824   0.00000  Uiso   1.00
H222   H     0.91469   0.05041   0.39330   0.00000  Uiso   1.00
O223   O     0.81312   0.28906   0.17216   0.00000  Uiso   1.00
C224   C     0.84964   0.28858   0.14558   0.00000  Uiso   1.00
H225   H     0.84526   0.26230   0.11979   0.00000  Uiso   1.00
H226   H     0.87804   0.27940   0.16533   0.00000  Uiso   1.00
C227   C     0.85679   0.33219   0.11976   0.00000  Uiso   1.00
H228   H     0.86860   0.02552   0.14250   0.00000  Uiso   1.00
H229   H     0.88069   0.32656   0.09363   0.00000  Uiso   1.00
H230   H     0.82767   0.00992   0.10287   0.00000  Uiso   1.00
O231   O     0.79916   0.04735   0.17924   0.00000  Uiso   1.00
C232   C     0.75540   0.04217   0.17915   0.00000  Uiso   1.00
H233   H     0.74133   0.07541   0.18580   0.00000  Uiso   1.00
H234   H     0.74317   0.01828   0.20480   0.00000  Uiso   1.00
C235   C     0.74056   0.02704   0.13287   0.00000  Uiso   1.00
H236   H     0.75211   0.32612   0.12557   0.00000  Uiso   1.00
H237   H     0.70604   0.02659   0.13174   0.00000  Uiso   1.00
H238   H     0.75199   0.05043   0.10670   0.00000  Uiso   1.00
O239   O     0.85355   0.28905   0.32784   0.00000  Uiso   1.00
C240   C     0.81703   0.28858   0.35442   0.00000  Uiso   1.00
H241   H     0.82142   0.26230   0.38022   0.00000  Uiso   1.00
H242   H     0.78863   0.27940   0.33467   0.00000  Uiso   1.00
C243   C     0.80989   0.33219   0.38025   0.00000  Uiso   1.00
H244   H     0.79807   0.02552   0.35751   0.00000  Uiso   1.00
H245   H     0.78600   0.32656   0.40638   0.00000  Uiso   1.00
H246   H     0.83902   0.00992   0.39713   0.00000  Uiso   1.00
C247   C     0.08673   0.50001   0.25020   0.00000  Uiso   1.00
C248   C     0.24661   0.50001   0.24980   0.00000  Uiso   1.00
C249   C     0.16668   0.49986   0.16416   0.00000  Uiso   1.00
C250   C     0.16665   0.49986   0.33584   0.00000  Uiso   1.00
C251   C     0.18322   0.35755   0.28519   0.00000  Uiso   1.00
C252   C     0.15490   0.64341   0.21250   0.00000  Uiso   1.00
C253   C     0.15011   0.35755   0.21481   0.00000  Uiso   1.00
C254   C     0.17843   0.64341   0.28750   0.00000  Uiso   1.00
C255   C     0.02127   0.45921   0.25057   0.00000  Uiso   1.00
C256   C     0.31203   0.54097   0.24990   0.00000  Uiso   1.00
C257   C     0.31206   0.45921   0.24943   0.00000  Uiso   1.00
C258   C     0.02130   0.54097   0.25010   0.00000  Uiso   1.00
C259   C     0.20130   0.51189   0.04686   0.00000  Uiso   1.00
C260   C     0.20042   0.47669   0.45225   0.00000  Uiso   1.00
C261   C     0.13204   0.51189   0.45314   0.00000  Uiso   1.00
C262   C     0.13290   0.47670   0.04775   0.00000  Uiso   1.00
C263   C     0.20107   0.51440   0.09321   0.00000  Uiso   1.00
C264   C     0.20058   0.47923   0.40591   0.00000  Uiso   1.00
C265   C     0.13227   0.51441   0.40679   0.00000  Uiso   1.00
C266   C     0.13275   0.47924   0.09410   0.00000  Uiso   1.00
C267   C     0.16649   0.49877   0.11639   0.00000  Uiso   1.00
C268   C     0.16684   0.49877   0.38361   0.00000  Uiso   1.00
C269   C     0.16706   0.49336   0.02420   0.00000  Uiso   1.00
C270   C     0.16627   0.49336   0.47580   0.00000  Uiso   1.00
C271   C     0.29082   0.50006   0.24959   0.00000  Uiso   1.00
C272   C     0.04252   0.50006   0.25041   0.00000  Uiso   1.00
H273   H     0.22766   0.52505   0.02865   0.00000  Uiso   1.00
H274   H     0.22676   0.46196   0.46974   0.00000  Uiso   1.00
H275   H     0.10567   0.52506   0.47135   0.00000  Uiso   1.00
H276   H     0.10656   0.46198   0.03026   0.00000  Uiso   1.00
H277   H     0.22754   0.52855   0.11097   0.00000  Uiso   1.00
H278   H     0.22695   0.46644   0.38744   0.00000  Uiso   1.00
H279   H     0.10579   0.52856   0.38903   0.00000  Uiso   1.00
H280   H     0.10637   0.46646   0.11257   0.00000  Uiso   1.00
H281   H     0.03729   0.42730   0.25149   0.00000  Uiso   1.00
H282   H     0.29591   0.57287   0.24992   0.00000  Uiso   1.00
H283   H     0.29604   0.42730   0.24850   0.00000  Uiso   1.00
H284   H     0.03742   0.57287   0.25008   0.00000  Uiso   1.00
N285   N     0.16667   0.61907   0.25000   0.00000  Uiso   1.00
N286   N     0.16667   0.38093   0.25000   0.00000  Uiso   1.00
O287   O     0.10559   0.53821   0.25000   0.00000  Uiso   1.00
O288   O     0.22774   0.46179   0.25001   0.00000  Uiso   1.00
O289   O     0.22774   0.53821   0.25001   0.00000  Uiso   1.00
O290   O     0.10559   0.46179   0.25000   0.00000  Uiso   1.00
O291   O     0.16666   0.53822   0.18453   0.00000  Uiso   1.00
O292   O     0.16667   0.46178   0.31547   0.00000  Uiso   1.00
O293   O     0.16667   0.53822   0.31547   0.00000  Uiso   1.00
O294   O     0.16666   0.46178   0.18453   0.00000  Uiso   1.00
Zn295  Zn    0.16667   0.55104   0.25000   0.00000  Uiso   1.00
Zn296  Zn    0.16667   0.44896   0.25000   0.00000  Uiso   1.00
O297   O     0.20084   0.38068   0.32076   0.00000  Uiso   1.00
C298   C     0.24461   0.37551   0.32084   0.00000  Uiso   1.00
H299   H     0.25867   0.40876   0.31420   0.00000  Uiso   1.00
H300   H     0.25683   0.35164   0.29518   0.00000  Uiso   1.00
C301   C     0.25945   0.36037   0.36712   0.00000  Uiso   1.00
H302   H     0.24790   0.65944   0.37440   0.00000  Uiso   1.00
H303   H     0.29397   0.35992   0.36824   0.00000  Uiso   1.00
H304   H     0.24802   0.38375   0.39330   0.00000  Uiso   1.00
O305   O     0.14646   0.62239   0.17216   0.00000  Uiso   1.00
C306   C     0.18298   0.62192   0.14558   0.00000  Uiso   1.00
H307   H     0.17859   0.59564   0.11979   0.00000  Uiso   1.00
H308   H     0.21137   0.61273   0.16533   0.00000  Uiso   1.00
C309   C     0.19012   0.66553   0.11976   0.00000  Uiso   1.00
H310   H     0.20194   0.35885   0.14250   0.00000  Uiso   1.00
H311   H     0.21402   0.65990   0.09363   0.00000  Uiso   1.00
H312   H     0.16100   0.34326   0.10287   0.00000  Uiso   1.00
O313   O     0.13249   0.38068   0.17924   0.00000  Uiso   1.00
C314   C     0.08873   0.37551   0.17915   0.00000  Uiso   1.00
H315   H     0.07466   0.40875   0.18580   0.00000  Uiso   1.00
H316   H     0.07650   0.35161   0.20480   0.00000  Uiso   1.00
C317   C     0.07390   0.36037   0.13287   0.00000  Uiso   1.00
H318   H     0.08545   0.65945   0.12557   0.00000  Uiso   1.00
H319   H     0.03938   0.35992   0.13174   0.00000  Uiso   1.00
H320   H     0.08532   0.38377   0.10670   0.00000  Uiso   1.00
O321   O     0.18688   0.62239   0.32784   0.00000  Uiso   1.00
C322   C     0.15037   0.62192   0.35442   0.00000  Uiso   1.00
H323   H     0.15475   0.59564   0.38022   0.00000  Uiso   1.00
H324   H     0.12196   0.61273   0.33467   0.00000  Uiso   1.00
C325   C     0.14322   0.66553   0.38025   0.00000  Uiso   1.00
H326   H     0.13141   0.35885   0.35751   0.00000  Uiso   1.00
H327   H     0.11933   0.65990   0.40638   0.00000  Uiso   1.00
H328   H     0.17235   0.34326   0.39713   0.00000  Uiso   1.00
C329   C     0.42006   0.50001   0.25020   0.00000  Uiso   1.00
C330   C     0.57994   0.50001   0.24980   0.00000  Uiso   1.00
C331   C     0.50001   0.49986   0.16416   0.00000  Uiso   1.00
C332   C     0.49999   0.49986   0.33584   0.00000  Uiso   1.00
C333   C     0.51656   0.35755   0.28519   0.00000  Uiso   1.00
C334   C     0.48824   0.64341   0.21250   0.00000  Uiso   1.00
C335   C     0.48344   0.35755   0.21481   0.00000  Uiso   1.00
C336   C     0.51176   0.64341   0.28750   0.00000  Uiso   1.00
C337   C     0.35460   0.45921   0.25057   0.00000  Uiso   1.00
C338   C     0.64537   0.54097   0.24990   0.00000  Uiso   1.00
C339   C     0.64540   0.45921   0.24943   0.00000  Uiso   1.00
C340   C     0.35463   0.54097   0.25010   0.00000  Uiso   1.00
C341   C     0.53463   0.51189   0.04686   0.00000  Uiso   1.00
C342   C     0.53376   0.47669   0.45225   0.00000  Uiso   1.00
C343   C     0.46537   0.51189   0.45314   0.00000  Uiso   1.00
C344   C     0.46624   0.47670   0.04775   0.00000  Uiso   1.00
C345   C     0.53440   0.51440   0.09321   0.00000  Uiso   1.00
C346   C     0.53391   0.47923   0.40591   0.00000  Uiso   1.00
C347   C     0.46560   0.51441   0.40679   0.00000  Uiso   1.00
C348   C     0.46608   0.47924   0.09410   0.00000  Uiso   1.00
C349   C     0.49983   0.49877   0.11639   0.00000  Uiso   1.00
C350   C     0.50017   0.49877   0.38361   0.00000  Uiso   1.00
C351   C     0.50039   0.49336   0.02420   0.00000  Uiso   1.00
C352   C     0.49961   0.49336   0.47580   0.00000  Uiso   1.00
C353   C     0.62415   0.50006   0.24959   0.00000  Uiso   1.00
C354   C     0.37585   0.50006   0.25041   0.00000  Uiso   1.00
H355   H     0.56099   0.52505   0.02865   0.00000  Uiso   1.00
H356   H     0.56009   0.46196   0.46974   0.00000  Uiso   1.00
H357   H     0.43901   0.52506   0.47135   0.00000  Uiso   1.00
H358   H     0.43990   0.46198   0.03026   0.00000  Uiso   1.00
H359   H     0.56088   0.52855   0.11097   0.00000  Uiso   1.00
H360   H     0.56029   0.46644   0.38744   0.00000  Uiso   1.00
H361   H     0.43913   0.52856   0.38903   0.00000  Uiso   1.00
H362   H     0.43971   0.46646   0.11257   0.00000  Uiso   1.00
H363   H     0.37062   0.42730   0.25149   0.00000  Uiso   1.00
H364   H     0.62924   0.57287   0.24992   0.00000  Uiso   1.00
H365   H     0.62938   0.42730   0.24850   0.00000  Uiso   1.00
H366   H     0.37076   0.57287   0.25008   0.00000  Uiso   1.00
N367   N     0.50000   0.61907   0.25000   0.00000  Uiso   1.00
N368   N     0.50000   0.38093   0.25000   0.00000  Uiso   1.00
O369   O     0.43892   0.53821   0.25000   0.00000  Uiso   1.00
O370   O     0.56108   0.46179   0.25001   0.00000  Uiso   1.00
O371   O     0.56108   0.53821   0.25001   0.00000  Uiso   1.00
O372   O     0.43892   0.46179   0.25000   0.00000  Uiso   1.00
O373   O     0.50000   0.53822   0.18453   0.00000  Uiso   1.00
O374   O     0.50000   0.46178   0.31547   0.00000  Uiso   1.00
O375   O     0.50000   0.53822   0.31547   0.00000  Uiso   1.00
O376   O     0.50000   0.46178   0.18453   0.00000  Uiso   1.00
Zn377  Zn    0.50000   0.55104   0.25000   0.00000  Uiso   1.00
Zn378  Zn    0.50000   0.44896   0.25000   0.00000  Uiso   1.00
O379   O     0.53418   0.38068   0.32076   0.00000  Uiso   1.00
C380   C     0.57794   0.37551   0.32084   0.00000  Uiso   1.00
H381   H     0.59200   0.40876   0.31420   0.00000  Uiso   1.00
H382   H     0.59017   0.35164   0.29518   0.00000  Uiso   1.00
C383   C     0.59278   0.36037   0.36712   0.00000  Uiso   1.00
H384   H     0.58124   0.65944   0.37440   0.00000  Uiso   1.00
H385   H     0.62730   0.35992   0.36824   0.00000  Uiso   1.00
H386   H     0.58135   0.38375   0.39330   0.00000  Uiso   1.00
O387   O     0.47979   0.62239   0.17216   0.00000  Uiso   1.00
C388   C     0.51631   0.62192   0.14558   0.00000  Uiso   1.00
H389   H     0.51192   0.59564   0.11979   0.00000  Uiso   1.00
H390   H     0.54471   0.61273   0.16533   0.00000  Uiso   1.00
C391   C     0.52346   0.66553   0.11976   0.00000  Uiso   1.00
H392   H     0.53527   0.35885   0.14250   0.00000  Uiso   1.00
H393   H     0.54735   0.65990   0.09363   0.00000  Uiso   1.00
H394   H     0.49433   0.34326   0.10287   0.00000  Uiso   1.00
O395   O     0.46583   0.38068   0.17924   0.00000  Uiso   1.00
C396   C     0.42206   0.37551   0.17915   0.00000  Uiso   1.00
H397   H     0.40799   0.40875   0.18580   0.00000  Uiso   1.00
H398   H     0.40984   0.35161   0.20480   0.00000  Uiso   1.00
C399   C     0.40723   0.36037   0.13287   0.00000  Uiso   1.00
H400   H     0.41878   0.65945   0.12557   0.00000  Uiso   1.00
H401   H     0.37271   0.35992   0.13174   0.00000  Uiso   1.00
H402   H     0.41866   0.38377   0.10670   0.00000  Uiso   1.00
O403   O     0.52021   0.62239   0.32784   0.00000  Uiso   1.00
C404   C     0.48370   0.62192   0.35442   0.00000  Uiso   1.00
H405   H     0.48808   0.59564   0.38022   0.00000  Uiso   1.00
H406   H     0.45530   0.61273   0.33467   0.00000  Uiso   1.00
C407   C     0.47656   0.66553   0.38025   0.00000  Uiso   1.00
H408   H     0.46474   0.35885   0.35751   0.00000  Uiso   1.00
H409   H     0.45266   0.65990   0.40638   0.00000  Uiso   1.00
H410   H     0.50568   0.34326   0.39713   0.00000  Uiso   1.00
C411   C     0.75339   0.50001   0.25020   0.00000  Uiso   1.00
C412   C     0.91327   0.50001   0.24980   0.00000  Uiso   1.00
C413   C     0.83335   0.49986   0.16416   0.00000  Uiso   1.00
C414   C     0.83332   0.49986   0.33584   0.00000  Uiso   1.00
C415   C     0.84989   0.35755   0.28519   0.00000  Uiso   1.00
C416   C     0.82157   0.64341   0.21250   0.00000  Uiso   1.00
C417   C     0.81678   0.35755   0.21481   0.00000  Uiso   1.00
C418   C     0.84510   0.64341   0.28750   0.00000  Uiso   1.00
C419   C     0.68794   0.45921   0.25057   0.00000  Uiso   1.00
C420   C     0.97870   0.54097   0.24990   0.00000  Uiso   1.00
C421   C     0.97873   0.45921   0.24943   0.00000  Uiso   1.00
C422   C     0.68796   0.54097   0.25010   0.00000  Uiso   1.00
C423   C     0.86796   0.51189   0.04686   0.00000  Uiso   1.00
C424   C     0.86709   0.47669   0.45225   0.00000  Uiso   1.00
C425   C     0.79870   0.51189   0.45314   0.00000  Uiso   1.00
C426   C     0.79957   0.47670   0.04775   0.00000  Uiso   1.00
C427   C     0.86773   0.51440   0.09321   0.00000  Uiso   1.00
C428   C     0.86725   0.47923   0.40591   0.00000  Uiso   1.00
C429   C     0.79893   0.51441   0.40679   0.00000  Uiso   1.00
C430   C     0.79941   0.47924   0.09410   0.00000  Uiso   1.00
C431   C     0.83316   0.49877   0.11639   0.00000  Uiso   1.00
C432   C     0.83350   0.49877   0.38361   0.00000  Uiso   1.00
C433   C     0.83372   0.49336   0.02420   0.00000  Uiso   1.00
C434   C     0.83294   0.49336   0.47580   0.00000  Uiso   1.00
C435   C     0.95748   0.50006   0.24959   0.00000  Uiso   1.00
C436   C     0.70918   0.50006   0.25041   0.00000  Uiso   1.00
H437   H     0.89433   0.52505   0.02865   0.00000  Uiso   1.00
H438   H     0.89343   0.46196   0.46974   0.00000  Uiso   1.00
H439   H     0.77234   0.52506   0.47135   0.00000  Uiso   1.00
H440   H     0.77323   0.46198   0.03026   0.00000  Uiso   1.00
H441   H     0.89421   0.52855   0.11097   0.00000  Uiso   1.00
H442   H     0.89362   0.46644   0.38744   0.00000  Uiso   1.00
H443   H     0.77246   0.52856   0.38903   0.00000  Uiso   1.00
H444   H     0.77304   0.46646   0.11257   0.00000  Uiso   1.00
H445   H     0.70396   0.42730   0.25149   0.00000  Uiso   1.00
H446   H     0.96258   0.57287   0.24992   0.00000  Uiso   1.00
H447   H     0.96271   0.42730   0.24850   0.00000  Uiso   1.00
H448   H     0.70409   0.57287   0.25008   0.00000  Uiso   1.00
N449   N     0.83333   0.61907   0.25000   0.00000  Uiso   1.00
N450   N     0.83333   0.38093   0.25000   0.00000  Uiso   1.00
O451   O     0.77226   0.53821   0.25000   0.00000  Uiso   1.00
O452   O     0.89441   0.46179   0.25001   0.00000  Uiso   1.00
O453   O     0.89441   0.53821   0.25001   0.00000  Uiso   1.00
O454   O     0.77226   0.46179   0.25000   0.00000  Uiso   1.00
O455   O     0.83333   0.53822   0.18453   0.00000  Uiso   1.00
O456   O     0.83334   0.46178   0.31547   0.00000  Uiso   1.00
O457   O     0.83334   0.53822   0.31547   0.00000  Uiso   1.00
O458   O     0.83333   0.46178   0.18453   0.00000  Uiso   1.00
Zn459  Zn    0.83333   0.55104   0.25000   0.00000  Uiso   1.00
Zn460  Zn    0.83333   0.44896   0.25000   0.00000  Uiso   1.00
O461   O     0.86751   0.38068   0.32076   0.00000  Uiso   1.00
C462   C     0.91127   0.37551   0.32084   0.00000  Uiso   1.00
H463   H     0.92533   0.40876   0.31420   0.00000  Uiso   1.00
H464   H     0.92350   0.35164   0.29518   0.00000  Uiso   1.00
C465   C     0.92612   0.36037   0.36712   0.00000  Uiso   1.00
H466   H     0.91457   0.65944   0.37440   0.00000  Uiso   1.00
H467   H     0.96063   0.35992   0.36824   0.00000  Uiso   1.00
H468   H     0.91469   0.38375   0.39330   0.00000  Uiso   1.00
O469   O     0.81312   0.62239   0.17216   0.00000  Uiso   1.00
C470   C     0.84964   0.62192   0.14558   0.00000  Uiso   1.00
H471   H     0.84526   0.59564   0.11979   0.00000  Uiso   1.00
H472   H     0.87804   0.61273   0.16533   0.00000  Uiso   1.00
C473   C     0.85679   0.66553   0.11976   0.00000  Uiso   1.00
H474   H     0.86860   0.35885   0.14250   0.00000  Uiso   1.00
H475   H     0.88069   0.65990   0.09363   0.00000  Uiso   1.00
H476   H     0.82767   0.34326   0.10287   0.00000  Uiso   1.00
O477   O     0.79916   0.38068   0.17924   0.00000  Uiso   1.00
C478   C     0.75540   0.37551   0.17915   0.00000  Uiso   1.00
H479   H     0.74133   0.40875   0.18580   0.00000  Uiso   1.00
H480   H     0.74317   0.35161   0.20480   0.00000  Uiso   1.00
C481   C     0.74056   0.36037   0.13287   0.00000  Uiso   1.00
H482   H     0.75211   0.65945   0.12557   0.00000  Uiso   1.00
H483   H     0.70604   0.35992   0.13174   0.00000  Uiso   1.00
H484   H     0.75199   0.38377   0.10670   0.00000  Uiso   1.00
O485   O     0.85355   0.62239   0.32784   0.00000  Uiso   1.00
C486   C     0.81703   0.62192   0.35442   0.00000  Uiso   1.00
H487   H     0.82142   0.59564   0.38022   0.00000  Uiso   1.00
H488   H     0.78863   0.61273   0.33467   0.00000  Uiso   1.00
C489   C     0.80989   0.66553   0.38025   0.00000  Uiso   1.00
H490   H     0.79807   0.35885   0.35751   0.00000  Uiso   1.00
H491   H     0.78600   0.65990   0.40638   0.00000  Uiso   1.00
H492   H     0.83902   0.34326   0.39713   0.00000  Uiso   1.00
C493   C     0.08673   0.83334   0.25020   0.00000  Uiso   1.00
C494   C     0.24661   0.83334   0.24980   0.00000  Uiso   1.00
C495   C     0.16668   0.83319   0.16416   0.00000  Uiso   1.00
C496   C     0.16665   0.83319   0.33584   0.00000  Uiso   1.00
C497   C     0.18322   0.69088   0.28519   0.00000  Uiso   1.00
C498   C     0.15490   0.97674   0.21250   0.00000  Uiso   1.00
C499   C     0.15011   0.69088   0.21481   0.00000  Uiso   1.00
C500   C     0.17843   0.97674   0.28750   0.00000  Uiso   1.00
C501   C     0.02127   0.79254   0.25057   0.00000  Uiso   1.00
C502   C     0.31203   0.87430   0.24990   0.00000  Uiso   1.00
C503   C     0.31206   0.79254   0.24943   0.00000  Uiso   1.00
C504   C     0.02130   0.87430   0.25010   0.00000  Uiso   1.00
C505   C     0.20130   0.84522   0.04686   0.00000  Uiso   1.00
C506   C     0.20042   0.81003   0.45225   0.00000  Uiso   1.00
C507   C     0.13204   0.84523   0.45314   0.00000  Uiso   1.00
C508   C     0.13290   0.81004   0.04775   0.00000  Uiso   1.00
C509   C     0.20107   0.84773   0.09321   0.00000  Uiso   1.00
C510   C     0.20058   0.81256   0.40591   0.00000  Uiso   1.00
C511   C     0.13227   0.84774   0.40679   0.00000  Uiso   1.00
C512   C     0.13275   0.81257   0.09410   0.00000  Uiso   1.00
C513   C     0.16649   0.83210   0.11639   0.00000  Uiso   1.00
C514   C     0.16684   0.83210   0.38361   0.00000  Uiso   1.00
C515   C     0.16706   0.82669   0.02420   0.00000  Uiso   1.00
C516   C     0.16627   0.82669   0.47580   0.00000  Uiso   1.00
C517   C     0.29082   0.83340   0.24959   0.00000  Uiso   1.00
C518   C     0.04252   0.83340   0.25041   0.00000  Uiso   1.00
H519   H     0.22766   0.85838   0.02865   0.00000  Uiso   1.00
H520   H     0.22676   0.79530   0.46974   0.00000  Uiso   1.00
H521   H     0.10567   0.85839   0.47135   0.00000  Uiso   1.00
H522   H     0.10656   0.79531   0.03026   0.00000  Uiso   1.00
H523   H     0.22754   0.86188   0.11097   0.00000  Uiso   1.00
H524   H     0.22695   0.79978   0.38744   0.00000  Uiso   1.00
H525   H     0.10579   0.86189   0.38903   0.00000  Uiso   1.00
H526   H     0.10637   0.79979   0.11257   0.00000  Uiso   1.00
H527   H     0.03729   0.76063   0.25149   0.00000  Uiso   1.00
H528   H     0.29591   0.90620   0.24992   0.00000  Uiso   1.00
H529   H     0.29604   0.76063   0.24850   0.00000  Uiso   1.00
H530   H     0.03742   0.90620   0.25008   0.00000  Uiso   1.00
N531   N     0.16667   0.95240   0.25000   0.00000  Uiso   1.00
N532   N     0.16667   0.71427   0.25000   0.00000  Uiso   1.00
O533   O     0.10559   0.87154   0.25000   0.00000  Uiso   1.00
O534   O     0.22774   0.79513   0.25001   0.00000  Uiso   1.00
O535   O     0.22774   0.87154   0.25001   0.00000  Uiso   1.00
O536   O     0.10559   0.79513   0.25000   0.00000  Uiso   1.00
O537   O     0.16666   0.87155   0.18453   0.00000  Uiso   1.00
O538   O     0.16667   0.79511   0.31547   0.00000  Uiso   1.00
O539   O     0.16667   0.87155   0.31547   0.00000  Uiso   1.00
O540   O     0.16666   0.79511   0.18453   0.00000  Uiso   1.00
Zn541  Zn    0.16667   0.88437   0.25000   0.00000  Uiso   1.00
Zn542  Zn    0.16667   0.78229   0.25000   0.00000  Uiso   1.00
O543   O     0.20084   0.71401   0.32076   0.00000  Uiso   1.00
C544   C     0.24461   0.70885   0.32084   0.00000  Uiso   1.00
H545   H     0.25867   0.74209   0.31420   0.00000  Uiso   1.00
H546   H     0.25683   0.68497   0.29518   0.00000  Uiso   1.00
C547   C     0.25945   0.69370   0.36712   0.00000  Uiso   1.00
H548   H     0.24790   0.99277   0.37440   0.00000  Uiso   1.00
H549   H     0.29397   0.69325   0.36824   0.00000  Uiso   1.00
H550   H     0.24802   0.71708   0.39330   0.00000  Uiso   1.00
O551   O     0.14646   0.95572   0.17216   0.00000  Uiso   1.00
C552   C     0.18298   0.95525   0.14558   0.00000  Uiso   1.00
H553   H     0.17859   0.92897   0.11979   0.00000  Uiso   1.00
H554   H     0.21137   0.94606   0.16533   0.00000  Uiso   1.00
C555   C     0.19012   0.99886   0.11976   0.00000  Uiso   1.00
H556   H     0.20194   0.69218   0.14250   0.00000  Uiso   1.00
H557   H     0.21402   0.99323   0.09363   0.00000  Uiso   1.00
H558   H     0.16100   0.67659   0.10287   0.00000  Uiso   1.00
O559   O     0.13249   0.71401   0.17924   0.00000  Uiso   1.00
C560   C     0.08873   0.70884   0.17915   0.00000  Uiso   1.00
H561   H     0.07466   0.74208   0.18580   0.00000  Uiso   1.00
H562   H     0.07650   0.68495   0.20480   0.00000  Uiso   1.00
C563   C     0.07390   0.69371   0.13287   0.00000  Uiso   1.00
H564   H     0.08545   0.99278   0.12557   0.00000  Uiso   1.00
H565   H     0.03938   0.69326   0.13174   0.00000  Uiso   1.00
H566   H     0.08532   0.71710   0.10670   0.00000  Uiso   1.00
O567   O     0.18688   0.95572   0.32784   0.00000  Uiso   1.00
C568   C     0.15037   0.95525   0.35442   0.00000  Uiso   1.00
H569   H     0.15475   0.92897   0.38022   0.00000  Uiso   1.00
H570   H     0.12196   0.94607   0.33467   0.00000  Uiso   1.00
C571   C     0.14322   0.99886   0.38025   0.00000  Uiso   1.00
H572   H     0.13141   0.69218   0.35751   0.00000  Uiso   1.00
H573   H     0.11933   0.99323   0.40638   0.00000  Uiso   1.00
H574   H     0.17235   0.67659   0.39713   0.00000  Uiso   1.00
C575   C     0.42006   0.83334   0.25020   0.00000  Uiso   1.00
C576   C     0.57994   0.83334   0.24980   0.00000  Uiso   1.00
C577   C     0.50001   0.83319   0.16416   0.00000  Uiso   1.00
C578   C     0.49999   0.83319   0.33584   0.00000  Uiso   1.00
C579   C     0.51656   0.69088   0.28519   0.00000  Uiso   1.00
C580   C     0.48824   0.97674   0.21250   0.00000  Uiso   1.00
C581   C     0.48344   0.69088   0.21481   0.00000  Uiso   1.00
C582   C     0.51176   0.97674   0.28750   0.00000  Uiso   1.00
C583   C     0.35460   0.79254   0.25057   0.00000  Uiso   1.00
C584   C     0.64537   0.87430   0.24990   0.00000  Uiso   1.00
C585   C     0.64540   0.79254   0.24943   0.00000  Uiso   1.00
C586   C     0.35463   0.87430   0.25010   0.00000  Uiso   1.00
C587   C     0.53463   0.84522   0.04686   0.00000  Uiso   1.00
C588   C     0.53376   0.81003   0.45225   0.00000  Uiso   1.00
C589   C     0.46537   0.84523   0.45314   0.00000  Uiso   1.00
C590   C     0.46624   0.81004   0.04775   0.00000  Uiso   1.00
C591   C     0.53440   0.84773   0.09321   0.00000  Uiso   1.00
C592   C     0.53391   0.81256   0.40591   0.00000  Uiso   1.00
C593   C     0.46560   0.84774   0.40679   0.00000  Uiso   1.00
C594   C     0.46608   0.81257   0.09410   0.00000  Uiso   1.00
C595   C     0.49983   0.83210   0.11639   0.00000  Uiso   1.00
C596   C     0.50017   0.83210   0.38361   0.00000  Uiso   1.00
C597   C     0.50039   0.82669   0.02420   0.00000  Uiso   1.00
C598   C     0.49961   0.82669   0.47580   0.00000  Uiso   1.00
C599   C     0.62415   0.83340   0.24959   0.00000  Uiso   1.00
C600   C     0.37585   0.83340   0.25041   0.00000  Uiso   1.00
H601   H     0.56099   0.85838   0.02865   0.00000  Uiso   1.00
H602   H     0.56009   0.79530   0.46974   0.00000  Uiso   1.00
H603   H     0.43901   0.85839   0.47135   0.00000  Uiso   1.00
H604   H     0.43990   0.79531   0.03026   0.00000  Uiso   1.00
H605   H     0.56088   0.86188   0.11097   0.00000  Uiso   1.00
H606   H     0.56029   0.79978   0.38744   0.00000  Uiso   1.00
H607   H     0.43913   0.86189   0.38903   0.00000  Uiso   1.00
H608   H     0.43971   0.79979   0.11257   0.00000  Uiso   1.00
H609   H     0.37062   0.76063   0.25149   0.00000  Uiso   1.00
H610   H     0.62924   0.90620   0.24992   0.00000  Uiso   1.00
H611   H     0.62938   0.76063   0.24850   0.00000  Uiso   1.00
H612   H     0.37076   0.90620   0.25008   0.00000  Uiso   1.00
N613   N     0.50000   0.95240   0.25000   0.00000  Uiso   1.00
N614   N     0.50000   0.71427   0.25000   0.00000  Uiso   1.00
O615   O     0.43892   0.87154   0.25000   0.00000  Uiso   1.00
O616   O     0.56108   0.79513   0.25001   0.00000  Uiso   1.00
O617   O     0.56108   0.87154   0.25001   0.00000  Uiso   1.00
O618   O     0.43892   0.79513   0.25000   0.00000  Uiso   1.00
O619   O     0.50000   0.87155   0.18453   0.00000  Uiso   1.00
O620   O     0.50000   0.79511   0.31547   0.00000  Uiso   1.00
O621   O     0.50000   0.87155   0.31547   0.00000  Uiso   1.00
O622   O     0.50000   0.79511   0.18453   0.00000  Uiso   1.00
Zn623  Zn    0.50000   0.88437   0.25000   0.00000  Uiso   1.00
Zn624  Zn    0.50000   0.78229   0.25000   0.00000  Uiso   1.00
O625   O     0.53418   0.71401   0.32076   0.00000  Uiso   1.00
C626   C     0.57794   0.70885   0.32084   0.00000  Uiso   1.00
H627   H     0.59200   0.74209   0.31420   0.00000  Uiso   1.00
H628   H     0.59017   0.68497   0.29518   0.00000  Uiso   1.00
C629   C     0.59278   0.69370   0.36712   0.00000  Uiso   1.00
H630   H     0.58124   0.99277   0.37440   0.00000  Uiso   1.00
H631   H     0.62730   0.69325   0.36824   0.00000  Uiso   1.00
H632   H     0.58135   0.71708   0.39330   0.00000  Uiso   1.00
O633   O     0.47979   0.95572   0.17216   0.00000  Uiso   1.00
C634   C     0.51631   0.95525   0.14558   0.00000  Uiso   1.00
H635   H     0.51192   0.92897   0.11979   0.00000  Uiso   1.00
H636   H     0.54471   0.94606   0.16533   0.00000  Uiso   1.00
C637   C     0.52346   0.99886   0.11976   0.00000  Uiso   1.00
H638   H     0.53527   0.69218   0.14250   0.00000  Uiso   1.00
H639   H     0.54735   0.99323   0.09363   0.00000  Uiso   1.00
H640   H     0.49433   0.67659   0.10287   0.00000  Uiso   1.00
O641   O     0.46583   0.71401   0.17924   0.00000  Uiso   1.00
C642   C     0.42206   0.70884   0.17915   0.00000  Uiso   1.00
H643   H     0.40799   0.74208   0.18580   0.00000  Uiso   1.00
H644   H     0.40984   0.68495   0.20480   0.00000  Uiso   1.00
C645   C     0.40723   0.69371   0.13287   0.00000  Uiso   1.00
H646   H     0.41878   0.99278   0.12557   0.00000  Uiso   1.00
H647   H     0.37271   0.69326   0.13174   0.00000  Uiso   1.00
H648   H     0.41866   0.71710   0.10670   0.00000  Uiso   1.00
O649   O     0.52021   0.95572   0.32784   0.00000  Uiso   1.00
C650   C     0.48370   0.95525   0.35442   0.00000  Uiso   1.00
H651   H     0.48808   0.92897   0.38022   0.00000  Uiso   1.00
H652   H     0.45530   0.94607   0.33467   0.00000  Uiso   1.00
C653   C     0.47656   0.99886   0.38025   0.00000  Uiso   1.00
H654   H     0.46474   0.69218   0.35751   0.00000  Uiso   1.00
H655   H     0.45266   0.99323   0.40638   0.00000  Uiso   1.00
H656   H     0.50568   0.67659   0.39713   0.00000  Uiso   1.00
C657   C     0.75339   0.83334   0.25020   0.00000  Uiso   1.00
C658   C     0.91327   0.83334   0.24980   0.00000  Uiso   1.00
C659   C     0.83335   0.83319   0.16416   0.00000  Uiso   1.00
C660   C     0.83332   0.83319   0.33584   0.00000  Uiso   1.00
C661   C     0.84989   0.69088   0.28519   0.00000  Uiso   1.00
C662   C     0.82157   0.97674   0.21250   0.00000  Uiso   1.00
C663   C     0.81678   0.69088   0.21481   0.00000  Uiso   1.00
C664   C     0.84510   0.97674   0.28750   0.00000  Uiso   1.00
C665   C     0.68794   0.79254   0.25057   0.00000  Uiso   1.00
C666   C     0.97870   0.87430   0.24990   0.00000  Uiso   1.00
C667   C     0.97873   0.79254   0.24943   0.00000  Uiso   1.00
C668   C     0.68796   0.87430   0.25010   0.00000  Uiso   1.00
C669   C     0.86796   0.84522   0.04686   0.00000  Uiso   1.00
C670   C     0.86709   0.81003   0.45225   0.00000  Uiso   1.00
C671   C     0.79870   0.84523   0.45314   0.00000  Uiso   1.00
C672   C     0.79957   0.81004   0.04775   0.00000  Uiso   1.00
C673   C     0.86773   0.84773   0.09321   0.00000  Uiso   1.00
C674   C     0.86725   0.81256   0.40591   0.00000  Uiso   1.00
C675   C     0.79893   0.84774   0.40679   0.00000  Uiso   1.00
C676   C     0.79941   0.81257   0.09410   0.00000  Uiso   1.00
C677   C     0.83316   0.83210   0.11639   0.00000  Uiso   1.00
C678   C     0.83350   0.83210   0.38361   0.00000  Uiso   1.00
C679   C     0.83372   0.82669   0.02420   0.00000  Uiso   1.00
C680   C     0.83294   0.82669   0.47580   0.00000  Uiso   1.00
C681   C     0.95748   0.83340   0.24959   0.00000  Uiso   1.00
C682   C     0.70918   0.83340   0.25041   0.00000  Uiso   1.00
H683   H     0.89433   0.85838   0.02865   0.00000  Uiso   1.00
H684   H     0.89343   0.79530   0.46974   0.00000  Uiso   1.00
H685   H     0.77234   0.85839   0.47135   0.00000  Uiso   1.00
H686   H     0.77323   0.79531   0.03026   0.00000  Uiso   1.00
H687   H     0.89421   0.86188   0.11097   0.00000  Uiso   1.00
H688   H     0.89362   0.79978   0.38744   0.00000  Uiso   1.00
H689   H     0.77246   0.86189   0.38903   0.00000  Uiso   1.00
H690   H     0.77304   0.79979   0.11257   0.00000  Uiso   1.00
H691   H     0.70396   0.76063   0.25149   0.00000  Uiso   1.00
H692   H     0.96258   0.90620   0.24992   0.00000  Uiso   1.00
H693   H     0.96271   0.76063   0.24850   0.00000  Uiso   1.00
H694   H     0.70409   0.90620   0.25008   0.00000  Uiso   1.00
N695   N     0.83333   0.95240   0.25000   0.00000  Uiso   1.00
N696   N     0.83333   0.71427   0.25000   0.00000  Uiso   1.00
O697   O     0.77226   0.87154   0.25000   0.00000  Uiso   1.00
O698   O     0.89441   0.79513   0.25001   0.00000  Uiso   1.00
O699   O     0.89441   0.87154   0.25001   0.00000  Uiso   1.00
O700   O     0.77226   0.79513   0.25000   0.00000  Uiso   1.00
O701   O     0.83333   0.87155   0.18453   0.00000  Uiso   1.00
O702   O     0.83334   0.79511   0.31547   0.00000  Uiso   1.00
O703   O     0.83334   0.87155   0.31547   0.00000  Uiso   1.00
O704   O     0.83333   0.79511   0.18453   0.00000  Uiso   1.00
Zn705  Zn    0.83333   0.88437   0.25000   0.00000  Uiso   1.00
Zn706  Zn    0.83333   0.78229   0.25000   0.00000  Uiso   1.00
O707   O     0.86751   0.71401   0.32076   0.00000  Uiso   1.00
C708   C     0.91127   0.70885   0.32084   0.00000  Uiso   1.00
H709   H     0.92533   0.74209   0.31420   0.00000  Uiso   1.00
H710   H     0.92350   0.68497   0.29518   0.00000  Uiso   1.00
C711   C     0.92612   0.69370   0.36712   0.00000  Uiso   1.00
H712   H     0.91457   0.99277   0.37440   0.00000  Uiso   1.00
H713   H     0.96063   0.69325   0.36824   0.00000  Uiso   1.00
H714   H     0.91469   0.71708   0.39330   0.00000  Uiso   1.00
O715   O     0.81312   0.95572   0.17216   0.00000  Uiso   1.00
C716   C     0.84964   0.95525   0.14558   0.00000  Uiso   1.00
H717   H     0.84526   0.92897   0.11979   0.00000  Uiso   1.00
H718   H     0.87804   0.94606   0.16533   0.00000  Uiso   1.00
C719   C     0.85679   0.99886   0.11976   0.00000  Uiso   1.00
H720   H     0.86860   0.69218   0.14250   0.00000  Uiso   1.00
H721   H     0.88069   0.99323   0.09363   0.00000  Uiso   1.00
H722   H     0.82767   0.67659   0.10287   0.00000  Uiso   1.00
O723   O     0.79916   0.71401   0.17924   0.00000  Uiso   1.00
C724   C     0.75540   0.70884   0.17915   0.00000  Uiso   1.00
H725   H     0.74133   0.74208   0.18580   0.00000  Uiso   1.00
H726   H     0.74317   0.68495   0.20480   0.00000  Uiso   1.00
C727   C     0.74056   0.69371   0.13287   0.00000  Uiso   1.00
H728   H     0.75211   0.99278   0.12557   0.00000  Uiso   1.00
H729   H     0.70604   0.69326   0.13174   0.00000  Uiso   1.00
H730   H     0.75199   0.71710   0.10670   0.00000  Uiso   1.00
O731   O     0.85355   0.95572   0.32784   0.00000  Uiso   1.00
C732   C     0.81703   0.95525   0.35442   0.00000  Uiso   1.00
H733   H     0.82142   0.92897   0.38022   0.00000  Uiso   1.00
H734   H     0.78863   0.94607   0.33467   0.00000  Uiso   1.00
C735   C     0.80989   0.99886   0.38025   0.00000  Uiso   1.00
H736   H     0.79807   0.69218   0.35751   0.00000  Uiso   1.00
H737   H     0.78600   0.99323   0.40638   0.00000  Uiso   1.00
H738   H     0.83902   0.67659   0.39713   0.00000  Uiso   1.00
C739   C     0.08673   0.16668   0.75020   0.00000  Uiso   1.00
C740   C     0.24661   0.16668   0.74980   0.00000  Uiso   1.00
C741   C     0.16668   0.16652   0.66416   0.00000  Uiso   1.00
C742   C     0.16665   0.16652   0.83584   0.00000  Uiso   1.00
C743   C     0.18322   0.02421   0.78519   0.00000  Uiso   1.00
C744   C     0.15490   0.31007   0.71250   0.00000  Uiso   1.00
C745   C     0.15011   0.02421   0.71481   0.00000  Uiso   1.00
C746   C     0.17843   0.31007   0.78750   0.00000  Uiso   1.00
C747   C     0.02127   0.12588   0.75057   0.00000  Uiso   1.00
C748   C     0.31203   0.20763   0.74990   0.00000  Uiso   1.00
C749   C     0.31206   0.12588   0.74943   0.00000  Uiso   1.00
C750   C     0.02130   0.20763   0.75010   0.00000  Uiso   1.00
C751   C     0.20130   0.17856   0.54686   0.00000  Uiso   1.00
C752   C     0.20042   0.14336   0.95225   0.00000  Uiso   1.00
C753   C     0.13204   0.17856   0.95314   0.00000  Uiso   1.00
C754   C     0.13290   0.14337   0.54775   0.00000  Uiso   1.00
C755   C     0.20107   0.18107   0.59321   0.00000  Uiso   1.00
C756   C     0.20058   0.14590   0.90591   0.00000  Uiso   1.00
C757   C     0.13227   0.18107   0.90679   0.00000  Uiso   1.00
C758   C     0.13275   0.14590   0.59410   0.00000  Uiso   1.00
C759   C     0.16649   0.16544   0.61639   0.00000  Uiso   1.00
C760   C     0.16684   0.16544   0.88361   0.00000  Uiso   1.00
C761   C     0.16706   0.16003   0.52420   0.00000  Uiso   1.00
C762   C     0.16627   0.16003   0.97580   0.00000  Uiso   1.00
C763   C     0.29082   0.16673   0.74959   0.00000  Uiso   1.00
C764   C     0.04252   0.16673   0.75041   0.00000  Uiso   1.00
H765   H     0.22766   0.19171   0.52865   0.00000  Uiso   1.00
H766   H     0.22676   0.12863   0.96974   0.00000  Uiso   1.00
H767   H     0.10567   0.19172   0.97135   0.00000  Uiso   1.00
H768   H     0.10656   0.12864   0.53026   0.00000  Uiso   1.00
H769   H     0.22754   0.19522   0.61097   0.00000  Uiso   1.00
H770   H     0.22695   0.13311   0.88744   0.00000  Uiso   1.00
H771   H     0.10579   0.19523   0.88903   0.00000  Uiso   1.00
H772   H     0.10637   0.13312   0.61257   0.00000  Uiso   1.00
H773   H     0.03729   0.09397   0.75149   0.00000  Uiso   1.00
H774   H     0.29591   0.23953   0.74992   0.00000  Uiso   1.00
H775   H     0.29604   0.09397   0.74850   0.00000  Uiso   1.00
H776   H     0.03742   0.23953   0.75008   0.00000  Uiso   1.00
N777   N     0.16667   0.28573   0.75000   0.00000  Uiso   1.00
N778   N     0.16667   0.04760   0.75000   0.00000  Uiso   1.00
O779   O     0.10559   0.20487   0.75000   0.00000  Uiso   1.00
O780   O     0.22774   0.12846   0.75001   0.00000  Uiso   1.00
O781   O     0.22774   0.20487   0.75001   0.00000  Uiso   1.00
O782   O     0.10559   0.12846   0.75000   0.00000  Uiso   1.00
O783   O     0.16666   0.20489   0.68453   0.00000  Uiso   1.00
O784   O     0.16667   0.12845   0.81547   0.00000  Uiso   1.00
O785   O     0.16667   0.20489   0.81547   0.00000  Uiso   1.00
O786   O     0.16666   0.12845   0.68453   0.00000  Uiso   1.00
Zn787  Zn    0.16667   0.21771   0.75000   0.00000  Uiso   1.00
Zn788  Zn    0.16667   0.11563   0.75000   0.00000  Uiso   1.00
O789   O     0.20084   0.04735   0.82076   0.00000  Uiso   1.00
C790   C     0.24461   0.04218   0.82084   0.00000  Uiso   1.00
H791   H     0.25867   0.07543   0.81420   0.00000  Uiso   1.00
H792   H     0.25683   0.01830   0.79518   0.00000  Uiso   1.00
C793   C     0.25945   0.02703   0.86712   0.00000  Uiso   1.00
H794   H     0.24790   0.32610   0.87440   0.00000  Uiso   1.00
H795   H     0.29397   0.02659   0.86824   0.00000  Uiso   1.00
H796   H     0.24802   0.05041   0.89330   0.00000  Uiso   1.00
O797   O     0.14646   0.28906   0.67216   0.00000  Uiso   1.00
C798   C     0.18298   0.28858   0.64558   0.00000  Uiso   1.00
H799   H     0.17859   0.26230   0.61979   0.00000  Uiso   1.00
H800   H     0.21137   0.27940   0.66533   0.00000  Uiso   1.00
C801   C     0.19012   0.33219   0.61976   0.00000  Uiso   1.00
H802   H     0.20194   0.02552   0.64250   0.00000  Uiso   1.00
H803   H     0.21402   0.32656   0.59363   0.00000  Uiso   1.00
H804   H     0.16100   0.00992   0.60287   0.00000  Uiso   1.00
O805   O     0.13249   0.04735   0.67924   0.00000  Uiso   1.00
C806   C     0.08873   0.04217   0.67915   0.00000  Uiso   1.00
H807   H     0.07466   0.07541   0.68580   0.00000  Uiso   1.00
H808   H     0.07650   0.01828   0.70480   0.00000  Uiso   1.00
C809   C     0.07390   0.02704   0.63287   0.00000  Uiso   1.00
H810   H     0.08545   0.32612   0.62557   0.00000  Uiso   1.00
H811   H     0.03938   0.02659   0.63174   0.00000  Uiso   1.00
H812   H     0.08532   0.05043   0.60670   0.00000  Uiso   1.00
O813   O     0.18688   0.28905   0.82784   0.00000  Uiso   1.00
C814   C     0.15037   0.28858   0.85442   0.00000  Uiso   1.00
H815   H     0.15475   0.26230   0.88022   0.00000  Uiso   1.00
H816   H     0.12196   0.27940   0.83467   0.00000  Uiso   1.00
C817   C     0.14322   0.33219   0.88025   0.00000  Uiso   1.00
H818   H     0.13141   0.02552   0.85751   0.00000  Uiso   1.00
H819   H     0.11933   0.32656   0.90638   0.00000  Uiso   1.00
H820   H     0.17235   0.00992   0.89713   0.00000  Uiso   1.00
C821   C     0.42006   0.16668   0.75020   0.00000  Uiso   1.00
C822   C     0.57994   0.16668   0.74980   0.00000  Uiso   1.00
C823   C     0.50001   0.16652   0.66416   0.00000  Uiso   1.00
C824   C     0.49999   0.16652   0.83584   0.00000  Uiso   1.00
C825   C     0.51656   0.02421   0.78519   0.00000  Uiso   1.00
C826   C     0.48824   0.31007   0.71250   0.00000  Uiso   1.00
C827   C     0.48344   0.02421   0.71481   0.00000  Uiso   1.00
C828   C     0.51176   0.31007   0.78750   0.00000  Uiso   1.00
C829   C     0.35460   0.12588   0.75057   0.00000  Uiso   1.00
C830   C     0.64537   0.20763   0.74990   0.00000  Uiso   1.00
C831   C     0.64540   0.12588   0.74943   0.00000  Uiso   1.00
C832   C     0.35463   0.20763   0.75010   0.00000  Uiso   1.00
C833   C     0.53463   0.17856   0.54686   0.00000  Uiso   1.00
C834   C     0.53376   0.14336   0.95225   0.00000  Uiso   1.00
C835   C     0.46537   0.17856   0.95314   0.00000  Uiso   1.00
C836   C     0.46624   0.14337   0.54775   0.00000  Uiso   1.00
C837   C     0.53440   0.18107   0.59321   0.00000  Uiso   1.00
C838   C     0.53391   0.14590   0.90591   0.00000  Uiso   1.00
C839   C     0.46560   0.18107   0.90679   0.00000  Uiso   1.00
C840   C     0.46608   0.14590   0.59410   0.00000  Uiso   1.00
C841   C     0.49983   0.16544   0.61639   0.00000  Uiso   1.00
C842   C     0.50017   0.16544   0.88361   0.00000  Uiso   1.00
C843   C     0.50039   0.16003   0.52420   0.00000  Uiso   1.00
C844   C     0.49961   0.16003   0.97580   0.00000  Uiso   1.00
C845   C     0.62415   0.16673   0.74959   0.00000  Uiso   1.00
C846   C     0.37585   0.16673   0.75041   0.00000  Uiso   1.00
H847   H     0.56099   0.19171   0.52865   0.00000  Uiso   1.00
H848   H     0.56009   0.12863   0.96974   0.00000  Uiso   1.00
H849   H     0.43901   0.19172   0.97135   0.00000  Uiso   1.00
H850   H     0.43990   0.12864   0.53026   0.00000  Uiso   1.00
H851   H     0.56088   0.19522   0.61097   0.00000  Uiso   1.00
H852   H     0.56029   0.13311   0.88744   0.00000  Uiso   1.00
H853   H     0.43913   0.19523   0.88903   0.00000  Uiso   1.00
H854   H     0.43971   0.13312   0.61257   0.00000  Uiso   1.00
H855   H     0.37062   0.09397   0.75149   0.00000  Uiso   1.00
H856   H     0.62924   0.23953   0.74992   0.00000  Uiso   1.00
H857   H     0.62938   0.09397   0.74850   0.00000  Uiso   1.00
H858   H     0.37076   0.23953   0.75008   0.00000  Uiso   1.00
N859   N     0.50000   0.28573   0.75000   0.00000  Uiso   1.00
N860   N     0.50000   0.04760   0.75000   0.00000  Uiso   1.00
O861   O     0.43892   0.20487   0.75000   0.00000  Uiso   1.00
O862   O     0.56108   0.12846   0.75001   0.00000  Uiso   1.00
O863   O     0.56108   0.20487   0.75001   0.00000  Uiso   1.00
O864   O     0.43892   0.12846   0.75000   0.00000  Uiso   1.00
O865   O     0.50000   0.20489   0.68453   0.00000  Uiso   1.00
O866   O     0.50000   0.12845   0.81547   0.00000  Uiso   1.00
O867   O     0.50000   0.20489   0.81547   0.00000  Uiso   1.00
O868   O     0.50000   0.12845   0.68453   0.00000  Uiso   1.00
Zn869  Zn    0.50000   0.21771   0.75000   0.00000  Uiso   1.00
Zn870  Zn    0.50000   0.11563   0.75000   0.00000  Uiso   1.00
O871   O     0.53418   0.04735   0.82076   0.00000  Uiso   1.00
C872   C     0.57794   0.04218   0.82084   0.00000  Uiso   1.00
H873   H     0.59200   0.07543   0.81420   0.00000  Uiso   1.00
H874   H     0.59017   0.01830   0.79518   0.00000  Uiso   1.00
C875   C     0.59278   0.02703   0.86712   0.00000  Uiso   1.00
H876   H     0.58124   0.32610   0.87440   0.00000  Uiso   1.00
H877   H     0.62730   0.02659   0.86824   0.00000  Uiso   1.00
H878   H     0.58135   0.05041   0.89330   0.00000  Uiso   1.00
O879   O     0.47979   0.28906   0.67216   0.00000  Uiso   1.00
C880   C     0.51631   0.28858   0.64558   0.00000  Uiso   1.00
H881   H     0.51192   0.26230   0.61979   0.00000  Uiso   1.00
H882   H     0.54471   0.27940   0.66533   0.00000  Uiso   1.00
C883   C     0.52346   0.33219   0.61976   0.00000  Uiso   1.00
H884   H     0.53527   0.02552   0.64250   0.00000  Uiso   1.00
H885   H     0.54735   0.32656   0.59363   0.00000  Uiso   1.00
H886   H     0.49433   0.00992   0.60287   0.00000  Uiso   1.00
O887   O     0.46583   0.04735   0.67924   0.00000  Uiso   1.00
C888   C     0.42206   0.04217   0.67915   0.00000  Uiso   1.00
H889   H     0.40799   0.07541   0.68580   0.00000  Uiso   1.00
H890   H     0.40984   0.01828   0.70480   0.00000  Uiso   1.00
C891   C     0.40723   0.02704   0.63287   0.00000  Uiso   1.00
H892   H     0.41878   0.32612   0.62557   0.00000  Uiso   1.00
H893   H     0.37271   0.02659   0.63174   0.00000  Uiso   1.00
H894   H     0.41866   0.05043   0.60670   0.00000  Uiso   1.00
O895   O     0.52021   0.28905   0.82784   0.00000  Uiso   1.00
C896   C     0.48370   0.28858   0.85442   0.00000  Uiso   1.00
H897   H     0.48808   0.26230   0.88022   0.00000  Uiso   1.00
H898   H     0.45530   0.27940   0.83467   0.00000  Uiso   1.00
C899   C     0.47656   0.33219   0.88025   0.00000  Uiso   1.00
H900   H     0.46474   0.02552   0.85751   0.00000  Uiso   1.00
H901   H     0.45266   0.32656   0.90638   0.00000  Uiso   1.00
H902   H     0.50568   0.00992   0.89713   0.00000  Uiso   1.00
C903   C     0.75339   0.16668   0.75020   0.00000  Uiso   1.00
C904   C     0.91327   0.16668   0.74980   0.00000  Uiso   1.00
C905   C     0.83335   0.16652   0.66416   0.00000  Uiso   1.00
C906   C     0.83332   0.16652   0.83584   0.00000  Uiso   1.00
C907   C     0.84989   0.02421   0.78519   0.00000  Uiso   1.00
C908   C     0.82157   0.31007   0.71250   0.00000  Uiso   1.00
C909   C     0.81678   0.02421   0.71481   0.00000  Uiso   1.00
C910   C     0.84510   0.31007   0.78750   0.00000  Uiso   1.00
C911   C     0.68794   0.12588   0.75057   0.00000  Uiso   1.00
C912   C     0.97870   0.20763   0.74990   0.00000  Uiso   1.00
C913   C     0.97873   0.12588   0.74943   0.00000  Uiso   1.00
C914   C     0.68796   0.20763   0.75010   0.00000  Uiso   1.00
C915   C     0.86796   0.17856   0.54686   0.00000  Uiso   1.00
C916   C     0.86709   0.14336   0.95225   0.00000  Uiso   1.00
C917   C     0.79870   0.17856   0.95314   0.00000  Uiso   1.00
C918   C     0.79957   0.14337   0.54775   0.00000  Uiso   1.00
C919   C     0.86773   0.18107   0.59321   0.00000  Uiso   1.00
C920   C     0.86725   0.14590   0.90591   0.00000  Uiso   1.00
C921   C     0.79893   0.18107   0.90679   0.00000  Uiso   1.00
C922   C     0.79941   0.14590   0.59410   0.00000  Uiso   1.00
C923   C     0.83316   0.16544   0.61639   0.00000  Uiso   1.00
C924   C     0.83350   0.16544   0.88361   0.00000  Uiso   1.00
C925   C     0.83372   0.16003   0.52420   0.00000  Uiso   1.00
C926   C     0.83294   0.16003   0.97580   0.00000  Uiso   1.00
C927   C     0.95748   0.16673   0.74959   0.00000  Uiso   1.00
C928   C     0.70918   0.16673   0.75041   0.00000  Uiso   1.00
H929   H     0.89433   0.19171   0.52865   0.00000  Uiso   1.00
H930   H     0.89343   0.12863   0.96974   0.00000  Uiso   1.00
H931   H     0.77234   0.19172   0.97135   0.00000  Uiso   1.00
H932   H     0.77323   0.12864   0.53026   0.00000  Uiso   1.00
H933   H     0.89421   0.19522   0.61097   0.00000  Uiso   1.00
H934   H     0.89362   0.13311   0.88744   0.00000  Uiso   1.00
H935   H     0.77246   0.19523   0.88903   0.00000  Uiso   1.00
H936   H     0.77304   0.13312   0.61257   0.00000  Uiso   1.00
H937   H     0.70396   0.09397   0.75149   0.00000  Uiso   1.00
H938   H     0.96258   0.23953   0.74992   0.00000  Uiso   1.00
H939   H     0.96271   0.09397   0.74850   0.00000  Uiso   1.00
H940   H     0.70409   0.23953   0.75008   0.00000  Uiso   1.00
N941   N     0.83333   0.28573   0.75000   0.00000  Uiso   1.00
N942   N     0.83333   0.04760   0.75000   0.00000  Uiso   1.00
O943   O     0.77226   0.20487   0.75000   0.00000  Uiso   1.00
O944   O     0.89441   0.12846   0.75001   0.00000  Uiso   1.00
O945   O     0.89441   0.20487   0.75001   0.00000  Uiso   1.00
O946   O     0.77226   0.12846   0.75000   0.00000  Uiso   1.00
O947   O     0.83333   0.20489   0.68453   0.00000  Uiso   1.00
O948   O     0.83334   0.12845   0.81547   0.00000  Uiso   1.00
O949   O     0.83334   0.20489   0.81547   0.00000  Uiso   1.00
O950   O     0.83333   0.12845   0.68453   0.00000  Uiso   1.00
Zn951  Zn    0.83333   0.21771   0.75000   0.00000  Uiso   1.00
Zn952  Zn    0.83333   0.11563   0.75000   0.00000  Uiso   1.00
O953   O     0.86751   0.04735   0.82076   0.00000  Uiso   1.00
C954   C     0.91127   0.04218   0.82084   0.00000  Uiso   1.00
H955   H     0.92533   0.07543   0.81420   0.00000  Uiso   1.00
H956   H     0.92350   0.01830   0.79518   0.00000  Uiso   1.00
C957   C     0.92612   0.02703   0.86712   0.00000  Uiso   1.00
H958   H     0.91457   0.32610   0.87440   0.00000  Uiso   1.00
H959   H     0.96063   0.02659   0.86824   0.00000  Uiso   1.00
H960   H     0.91469   0.05041   0.89330   0.00000  Uiso   1.00
O961   O     0.81312   0.28906   0.67216   0.00000  Uiso   1.00
C962   C     0.84964   0.28858   0.64558   0.00000  Uiso   1.00
H963   H     0.84526   0.26230   0.61979   0.00000  Uiso   1.00
H964   H     0.87804   0.27940   0.66533   0.00000  Uiso   1.00
C965   C     0.85679   0.33219   0.61976   0.00000  Uiso   1.00
H966   H     0.86860   0.02552   0.64250   0.00000  Uiso   1.00
H967   H     0.88069   0.32656   0.59363   0.00000  Uiso   1.00
H968   H     0.82767   0.00992   0.60287   0.00000  Uiso   1.00
O969   O     0.79916   0.04735   0.67924   0.00000  Uiso   1.00
C970   C     0.75540   0.04217   0.67915   0.00000  Uiso   1.00
H971   H     0.74133   0.07541   0.68580   0.00000  Uiso   1.00
H972   H     0.74317   0.01828   0.70480   0.00000  Uiso   1.00
C973   C     0.74056   0.02704   0.63287   0.00000  Uiso   1.00
H974   H     0.75211   0.32612   0.62557   0.00000  Uiso   1.00
H975   H     0.70604   0.02659   0.63174   0.00000  Uiso   1.00
H976   H     0.75199   0.05043   0.60670   0.00000  Uiso   1.00
O977   O     0.85355   0.28905   0.82784   0.00000  Uiso   1.00
C978   C     0.81703   0.28858   0.85442   0.00000  Uiso   1.00
H979   H     0.82142   0.26230   0.88022   0.00000  Uiso   1.00
H980   H     0.78863   0.27940   0.83467   0.00000  Uiso   1.00
C981   C     0.80989   0.33219   0.88025   0.00000  Uiso   1.00
H982   H     0.79807   0.02552   0.85751   0.00000  Uiso   1.00
H983   H     0.78600   0.32656   0.90638   0.00000  Uiso   1.00
H984   H     0.83902   0.00992   0.89713   0.00000  Uiso   1.00
C985   C     0.08673   0.50001   0.75020   0.00000  Uiso   1.00
C986   C     0.24661   0.50001   0.74980   0.00000  Uiso   1.00
C987   C     0.16668   0.49986   0.66416   0.00000  Uiso   1.00
C988   C     0.16665   0.49986   0.83584   0.00000  Uiso   1.00
C989   C     0.18322   0.35755   0.78519   0.00000  Uiso   1.00
C990   C     0.15490   0.64341   0.71250   0.00000  Uiso   1.00
C991   C     0.15011   0.35755   0.71481   0.00000  Uiso   1.00
C992   C     0.17843   0.64341   0.78750   0.00000  Uiso   1.00
C993   C     0.02127   0.45921   0.75057   0.00000  Uiso   1.00
C994   C     0.31203   0.54097   0.74990   0.00000  Uiso   1.00
C995   C     0.31206   0.45921   0.74943   0.00000  Uiso   1.00
C996   C     0.02130   0.54097   0.75010   0.00000  Uiso   1.00
C997   C     0.20130   0.51189   0.54686   0.00000  Uiso   1.00
C998   C     0.20042   0.47669   0.95225   0.00000  Uiso   1.00
C999   C     0.13204   0.51189   0.95314   0.00000  Uiso   1.00
C1000  C     0.13290   0.47670   0.54775   0.00000  Uiso   1.00
C1001  C     0.20107   0.51440   0.59321   0.00000  Uiso   1.00
C1002  C     0.20058   0.47923   0.90591   0.00000  Uiso   1.00
C1003  C     0.13227   0.51441   0.90679   0.00000  Uiso   1.00
C1004  C     0.13275   0.47924   0.59410   0.00000  Uiso   1.00
C1005  C     0.16649   0.49877   0.61639   0.00000  Uiso   1.00
C1006  C     0.16684   0.49877   0.88361   0.00000  Uiso   1.00
C1007  C     0.16706   0.49336   0.52420   0.00000  Uiso   1.00
C1008  C     0.16627   0.49336   0.97580   0.00000  Uiso   1.00
C1009  C     0.29082   0.50006   0.74959   0.00000  Uiso   1.00
C1010  C     0.04252   0.50006   0.75041   0.00000  Uiso   1.00
H1011  H     0.22766   0.52505   0.52865   0.00000  Uiso   1.00
H1012  H     0.22676   0.46196   0.96974   0.00000  Uiso   1.00
H1013  H     0.10567   0.52506   0.97135   0.00000  Uiso   1.00
H1014  H     0.10656   0.46198   0.53026   0.00000  Uiso   1.00
H1015  H     0.22754   0.52855   0.61097   0.00000  Uiso   1.00
H1016  H     0.22695   0.46644   0.88744   0.00000  Uiso   1.00
H1017  H     0.10579   0.52856   0.88903   0.00000  Uiso   1.00
H1018  H     0.10637   0.46646   0.61257   0.00000  Uiso   1.00
H1019  H     0.03729   0.42730   0.75149   0.00000  Uiso   1.00
H1020  H     0.29591   0.57287   0.74992   0.00000  Uiso   1.00
H1021  H     0.29604   0.42730   0.74850   0.00000  Uiso   1.00
H1022  H     0.03742   0.57287   0.75008   0.00000  Uiso   1.00
N1023  N     0.16667   0.61907   0.75000   0.00000  Uiso   1.00
N1024  N     0.16667   0.38093   0.75000   0.00000  Uiso   1.00
O1025  O     0.10559   0.53821   0.75000   0.00000  Uiso   1.00
O1026  O     0.22774   0.46179   0.75001   0.00000  Uiso   1.00
O1027  O     0.22774   0.53821   0.75001   0.00000  Uiso   1.00
O1028  O     0.10559   0.46179   0.75000   0.00000  Uiso   1.00
O1029  O     0.16666   0.53822   0.68453   0.00000  Uiso   1.00
O1030  O     0.16667   0.46178   0.81547   0.00000  Uiso   1.00
O1031  O     0.16667   0.53822   0.81547   0.00000  Uiso   1.00
O1032  O     0.16666   0.46178   0.68453   0.00000  Uiso   1.00
Zn1033 Zn    0.16667   0.55104   0.75000   0.00000  Uiso   1.00
Zn1034 Zn    0.16667   0.44896   0.75000   0.00000  Uiso   1.00
O1035  O     0.20084   0.38068   0.82076   0.00000  Uiso   1.00
C1036  C     0.24461   0.37551   0.82084   0.00000  Uiso   1.00
H1037  H     0.25867   0.40876   0.81420   0.00000  Uiso   1.00
H1038  H     0.25683   0.35164   0.79518   0.00000  Uiso   1.00
C1039  C     0.25945   0.36037   0.86712   0.00000  Uiso   1.00
H1040  H     0.24790   0.65944   0.87440   0.00000  Uiso   1.00
H1041  H     0.29397   0.35992   0.86824   0.00000  Uiso   1.00
H1042  H     0.24802   0.38375   0.89330   0.00000  Uiso   1.00
O1043  O     0.14646   0.62239   0.67216   0.00000  Uiso   1.00
C1044  C     0.18298   0.62192   0.64558   0.00000  Uiso   1.00
H1045  H     0.17859   0.59564   0.61979   0.00000  Uiso   1.00
H1046  H     0.21137   0.61273   0.66533   0.00000  Uiso   1.00
C1047  C     0.19012   0.66553   0.61976   0.00000  Uiso   1.00
H1048  H     0.20194   0.35885   0.64250   0.00000  Uiso   1.00
H1049  H     0.21402   0.65990   0.59363   0.00000  Uiso   1.00
H1050  H     0.16100   0.34326   0.60287   0.00000  Uiso   1.00
O1051  O     0.13249   0.38068   0.67924   0.00000  Uiso   1.00
C1052  C     0.08873   0.37551   0.67915   0.00000  Uiso   1.00
H1053  H     0.07466   0.40875   0.68580   0.00000  Uiso   1.00
H1054  H     0.07650   0.35161   0.70480   0.00000  Uiso   1.00
C1055  C     0.07390   0.36037   0.63287   0.00000  Uiso   1.00
H1056  H     0.08545   0.65945   0.62557   0.00000  Uiso   1.00
H1057  H     0.03938   0.35992   0.63174   0.00000  Uiso   1.00
H1058  H     0.08532   0.38377   0.60670   0.00000  Uiso   1.00
O1059  O     0.18688   0.62239   0.82784   0.00000  Uiso   1.00
C1060  C     0.15037   0.62192   0.85442   0.00000  Uiso   1.00
H1061  H     0.15475   0.59564   0.88022   0.00000  Uiso   1.00
H1062  H     0.12196   0.61273   0.83467   0.00000  Uiso   1.00
C1063  C     0.14322   0.66553   0.88025   0.00000  Uiso   1.00
H1064  H     0.13141   0.35885   0.85751   0.00000  Uiso   1.00
H1065  H     0.11933   0.65990   0.90638   0.00000  Uiso   1.00
H1066  H     0.17235   0.34326   0.89713   0.00000  Uiso   1.00
C1067  C     0.42006   0.50001   0.75020   0.00000  Uiso   1.00
C1068  C     0.57994   0.50001   0.74980   0.00000  Uiso   1.00
C1069  C     0.50001   0.49986   0.66416   0.00000  Uiso   1.00
C1070  C     0.49999   0.49986   0.83584   0.00000  Uiso   1.00
C1071  C     0.51656   0.35755   0.78519   0.00000  Uiso   1.00
C1072  C     0.48824   0.64341   0.71250   0.00000  Uiso   1.00
C1073  C     0.48344   0.35755   0.71481   0.00000  Uiso   1.00
C1074  C     0.51176   0.64341   0.78750   0.00000  Uiso   1.00
C1075  C     0.35460   0.45921   0.75057   0.00000  Uiso   1.00
C1076  C     0.64537   0.54097   0.74990   0.00000  Uiso   1.00
C1077  C     0.64540   0.45921   0.74943   0.00000  Uiso   1.00
C1078  C     0.35463   0.54097   0.75010   0.00000  Uiso   1.00
C1079  C     0.53463   0.51189   0.54686   0.00000  Uiso   1.00
C1080  C     0.53376   0.47669   0.95225   0.00000  Uiso   1.00
C1081  C     0.46537   0.51189   0.95314   0.00000  Uiso   1.00
C1082  C     0.46624   0.47670   0.54775   0.00000  Uiso   1.00
C1083  C     0.53440   0.51440   0.59321   0.00000  Uiso   1.00
C1084  C     0.53391   0.47923   0.90591   0.00000  Uiso   1.00
C1085  C     0.46560   0.51441   0.90679   0.00000  Uiso   1.00
C1086  C     0.46608   0.47924   0.59410   0.00000  Uiso   1.00
C1087  C     0.49983   0.49877   0.61639   0.00000  Uiso   1.00
C1088  C     0.50017   0.49877   0.88361   0.00000  Uiso   1.00
C1089  C     0.50039   0.49336   0.52420   0.00000  Uiso   1.00
C1090  C     0.49961   0.49336   0.97580   0.00000  Uiso   1.00
C1091  C     0.62415   0.50006   0.74959   0.00000  Uiso   1.00
C1092  C     0.37585   0.50006   0.75041   0.00000  Uiso   1.00
H1093  H     0.56099   0.52505   0.52865   0.00000  Uiso   1.00
H1094  H     0.56009   0.46196   0.96974   0.00000  Uiso   1.00
H1095  H     0.43901   0.52506   0.97135   0.00000  Uiso   1.00
H1096  H     0.43990   0.46198   0.53026   0.00000  Uiso   1.00
H1097  H     0.56088   0.52855   0.61097   0.00000  Uiso   1.00
H1098  H     0.56029   0.46644   0.88744   0.00000  Uiso   1.00
H1099  H     0.43913   0.52856   0.88903   0.00000  Uiso   1.00
H1100  H     0.43971   0.46646   0.61257   0.00000  Uiso   1.00
H1101  H     0.37062   0.42730   0.75149   0.00000  Uiso   1.00
H1102  H     0.62924   0.57287   0.74992   0.00000  Uiso   1.00
H1103  H     0.62938   0.42730   0.74850   0.00000  Uiso   1.00
H1104  H     0.37076   0.57287   0.75008   0.00000  Uiso   1.00
N1105  N     0.50000   0.61907   0.75000   0.00000  Uiso   1.00
N1106  N     0.50000   0.38093   0.75000   0.00000  Uiso   1.00
O1107  O     0.43892   0.53821   0.75000   0.00000  Uiso   1.00
O1108  O     0.56108   0.46179   0.75001   0.00000  Uiso   1.00
O1109  O     0.56108   0.53821   0.75001   0.00000  Uiso   1.00
O1110  O     0.43892   0.46179   0.75000   0.00000  Uiso   1.00
O1111  O     0.50000   0.53822   0.68453   0.00000  Uiso   1.00
O1112  O     0.50000   0.46178   0.81547   0.00000  Uiso   1.00
O1113  O     0.50000   0.53822   0.81547   0.00000  Uiso   1.00
O1114  O     0.50000   0.46178   0.68453   0.00000  Uiso   1.00
Zn1115 Zn    0.50000   0.55104   0.75000   0.00000  Uiso   1.00
Zn1116 Zn    0.50000   0.44896   0.75000   0.00000  Uiso   1.00
O1117  O     0.53418   0.38068   0.82076   0.00000  Uiso   1.00
C1118  C     0.57794   0.37551   0.82084   0.00000  Uiso   1.00
H1119  H     0.59200   0.40876   0.81420   0.00000  Uiso   1.00
H1120  H     0.59017   0.35164   0.79518   0.00000  Uiso   1.00
C1121  C     0.59278   0.36037   0.86712   0.00000  Uiso   1.00
H1122  H     0.58124   0.65944   0.87440   0.00000  Uiso   1.00
H1123  H     0.62730   0.35992   0.86824   0.00000  Uiso   1.00
H1124  H     0.58135   0.38375   0.89330   0.00000  Uiso   1.00
O1125  O     0.47979   0.62239   0.67216   0.00000  Uiso   1.00
C1126  C     0.51631   0.62192   0.64558   0.00000  Uiso   1.00
H1127  H     0.51192   0.59564   0.61979   0.00000  Uiso   1.00
H1128  H     0.54471   0.61273   0.66533   0.00000  Uiso   1.00
C1129  C     0.52346   0.66553   0.61976   0.00000  Uiso   1.00
H1130  H     0.53527   0.35885   0.64250   0.00000  Uiso   1.00
H1131  H     0.54735   0.65990   0.59363   0.00000  Uiso   1.00
H1132  H     0.49433   0.34326   0.60287   0.00000  Uiso   1.00
O1133  O     0.46583   0.38068   0.67924   0.00000  Uiso   1.00
C1134  C     0.42206   0.37551   0.67915   0.00000  Uiso   1.00
H1135  H     0.40799   0.40875   0.68580   0.00000  Uiso   1.00
H1136  H     0.40984   0.35161   0.70480   0.00000  Uiso   1.00
C1137  C     0.40723   0.36037   0.63287   0.00000  Uiso   1.00
H1138  H     0.41878   0.65945   0.62557   0.00000  Uiso   1.00
H1139  H     0.37271   0.35992   0.63174   0.00000  Uiso   1.00
H1140  H     0.41866   0.38377   0.60670   0.00000  Uiso   1.00
O1141  O     0.52021   0.62239   0.82784   0.00000  Uiso   1.00
C1142  C     0.48370   0.62192   0.85442   0.00000  Uiso   1.00
H1143  H     0.48808   0.59564   0.88022   0.00000  Uiso   1.00
H1144  H     0.45530   0.61273   0.83467   0.00000  Uiso   1.00
C1145  C     0.47656   0.66553   0.88025   0.00000  Uiso   1.00
H1146  H     0.46474   0.35885   0.85751   0.00000  Uiso   1.00
H1147  H     0.45266   0.65990   0.90638   0.00000  Uiso   1.00
H1148  H     0.50568   0.34326   0.89713   0.00000  Uiso   1.00
C1149  C     0.75339   0.50001   0.75020   0.00000  Uiso   1.00
C1150  C     0.91327   0.50001   0.74980   0.00000  Uiso   1.00
C1151  C     0.83335   0.49986   0.66416   0.00000  Uiso   1.00
C1152  C     0.83332   0.49986   0.83584   0.00000  Uiso   1.00
C1153  C     0.84989   0.35755   0.78519   0.00000  Uiso   1.00
C1154  C     0.82157   0.64341   0.71250   0.00000  Uiso   1.00
C1155  C     0.81678   0.35755   0.71481   0.00000  Uiso   1.00
C1156  C     0.84510   0.64341   0.78750   0.00000  Uiso   1.00
C1157  C     0.68794   0.45921   0.75057   0.00000  Uiso   1.00
C1158  C     0.97870   0.54097   0.74990   0.00000  Uiso   1.00
C1159  C     0.97873   0.45921   0.74943   0.00000  Uiso   1.00
C1160  C     0.68796   0.54097   0.75010   0.00000  Uiso   1.00
C1161  C     0.86796   0.51189   0.54686   0.00000  Uiso   1.00
C1162  C     0.86709   0.47669   0.95225   0.00000  Uiso   1.00
C1163  C     0.79870   0.51189   0.95314   0.00000  Uiso   1.00
C1164  C     0.79957   0.47670   0.54775   0.00000  Uiso   1.00
C1165  C     0.86773   0.51440   0.59321   0.00000  Uiso   1.00
C1166  C     0.86725   0.47923   0.90591   0.00000  Uiso   1.00
C1167  C     0.79893   0.51441   0.90679   0.00000  Uiso   1.00
C1168  C     0.79941   0.47924   0.59410   0.00000  Uiso   1.00
C1169  C     0.83316   0.49877   0.61639   0.00000  Uiso   1.00
C1170  C     0.83350   0.49877   0.88361   0.00000  Uiso   1.00
C1171  C     0.83372   0.49336   0.52420   0.00000  Uiso   1.00
C1172  C     0.83294   0.49336   0.97580   0.00000  Uiso   1.00
C1173  C     0.95748   0.50006   0.74959   0.00000  Uiso   1.00
C1174  C     0.70918   0.50006   0.75041   0.00000  Uiso   1.00
H1175  H     0.89433   0.52505   0.52865   0.00000  Uiso   1.00
H1176  H     0.89343   0.46196   0.96974   0.00000  Uiso   1.00
H1177  H     0.77234   0.52506   0.97135   0.00000  Uiso   1.00
H1178  H     0.77323   0.46198   0.53026   0.00000  Uiso   1.00
H1179  H     0.89421   0.52855   0.61097   0.00000  Uiso   1.00
H1180  H     0.89362   0.46644   0.88744   0.00000  Uiso   1.00
H1181  H     0.77246   0.52856   0.88903   0.00000  Uiso   1.00
H1182  H     0.77304   0.46646   0.61257   0.00000  Uiso   1.00
H1183  H     0.70396   0.42730   0.75149   0.00000  Uiso   1.00
H1184  H     0.96258   0.57287   0.74992   0.00000  Uiso   1.00
H1185  H     0.96271   0.42730   0.74850   0.00000  Uiso   1.00
H1186  H     0.70409   0.57287   0.75008   0.00000  Uiso   1.00
N1187  N     0.83333   0.61907   0.75000   0.00000  Uiso   1.00
N1188  N     0.83333   0.38093   0.75000   0.00000  Uiso   1.00
O1189  O     0.77226   0.53821   0.75000   0.00000  Uiso   1.00
O1190  O     0.89441   0.46179   0.75001   0.00000  Uiso   1.00
O1191  O     0.89441   0.53821   0.75001   0.00000  Uiso   1.00
O1192  O     0.77226   0.46179   0.75000   0.00000  Uiso   1.00
O1193  O     0.83333   0.53822   0.68453   0.00000  Uiso   1.00
O1194  O     0.83334   0.46178   0.81547   0.00000  Uiso   1.00
O1195  O     0.83334   0.53822   0.81547   0.00000  Uiso   1.00
O1196  O     0.83333   0.46178   0.68453   0.00000  Uiso   1.00
Zn1197 Zn    0.83333   0.55104   0.75000   0.00000  Uiso   1.00
Zn1198 Zn    0.83333   0.44896   0.75000   0.00000  Uiso   1.00
O1199  O     0.86751   0.38068   0.82076   0.00000  Uiso   1.00
C1200  C     0.91127   0.37551   0.82084   0.00000  Uiso   1.00
H1201  H     0.92533   0.40876   0.81420   0.00000  Uiso   1.00
H1202  H     0.92350   0.35164   0.79518   0.00000  Uiso   1.00
C1203  C     0.92612   0.36037   0.86712   0.00000  Uiso   1.00
H1204  H     0.91457   0.65944   0.87440   0.00000  Uiso   1.00
H1205  H     0.96063   0.35992   0.86824   0.00000  Uiso   1.00
H1206  H     0.91469   0.38375   0.89330   0.00000  Uiso   1.00
O1207  O     0.81312   0.62239   0.67216   0.00000  Uiso   1.00
C1208  C     0.84964   0.62192   0.64558   0.00000  Uiso   1.00
H1209  H     0.84526   0.59564   0.61979   0.00000  Uiso   1.00
H1210  H     0.87804   0.61273   0.66533   0.00000  Uiso   1.00
C1211  C     0.85679   0.66553   0.61976   0.00000  Uiso   1.00
H1212  H     0.86860   0.35885   0.64250   0.00000  Uiso   1.00
H1213  H     0.88069   0.65990   0.59363   0.00000  Uiso   1.00
H1214  H     0.82767   0.34326   0.60287   0.00000  Uiso   1.00
O1215  O     0.79916   0.38068   0.67924   0.00000  Uiso   1.00
C1216  C     0.75540   0.37551   0.67915   0.00000  Uiso   1.00
H1217  H     0.74133   0.40875   0.68580   0.00000  Uiso   1.00
H1218  H     0.74317   0.35161   0.70480   0.00000  Uiso   1.00
C1219  C     0.74056   0.36037   0.63287   0.00000  Uiso   1.00
H1220  H     0.75211   0.65945   0.62557   0.00000  Uiso   1.00
H1221  H     0.70604   0.35992   0.63174   0.00000  Uiso   1.00
H1222  H     0.75199   0.38377   0.60670   0.00000  Uiso   1.00
O1223  O     0.85355   0.62239   0.82784   0.00000  Uiso   1.00
C1224  C     0.81703   0.62192   0.85442   0.00000  Uiso   1.00
H1225  H     0.82142   0.59564   0.88022   0.00000  Uiso   1.00
H1226  H     0.78863   0.61273   0.83467   0.00000  Uiso   1.00
C1227  C     0.80989   0.66553   0.88025   0.00000  Uiso   1.00
H1228  H     0.79807   0.35885   0.85751   0.00000  Uiso   1.00
H1229  H     0.78600   0.65990   0.90638   0.00000  Uiso   1.00
H1230  H     0.83902   0.34326   0.89713   0.00000  Uiso   1.00
C1231  C     0.08673   0.83334   0.75020   0.00000  Uiso   1.00
C1232  C     0.24661   0.83334   0.74980   0.00000  Uiso   1.00
C1233  C     0.16668   0.83319   0.66416   0.00000  Uiso   1.00
C1234  C     0.16665   0.83319   0.83584   0.00000  Uiso   1.00
C1235  C     0.18322   0.69088   0.78519   0.00000  Uiso   1.00
C1236  C     0.15490   0.97674   0.71250   0.00000  Uiso   1.00
C1237  C     0.15011   0.69088   0.71481   0.00000  Uiso   1.00
C1238  C     0.17843   0.97674   0.78750   0.00000  Uiso   1.00
C1239  C     0.02127   0.79254   0.75057   0.00000  Uiso   1.00
C1240  C     0.31203   0.87430   0.74990   0.00000  Uiso   1.00
C1241  C     0.31206   0.79254   0.74943   0.00000  Uiso   1.00
C1242  C     0.02130   0.87430   0.75010   0.00000  Uiso   1.00
C1243  C     0.20130   0.84522   0.54686   0.00000  Uiso   1.00
C1244  C     0.20042   0.81003   0.95225   0.00000  Uiso   1.00
C1245  C     0.13204   0.84523   0.95314   0.00000  Uiso   1.00
C1246  C     0.13290   0.81004   0.54775   0.00000  Uiso   1.00
C1247  C     0.20107   0.84773   0.59321   0.00000  Uiso   1.00
C1248  C     0.20058   0.81256   0.90591   0.00000  Uiso   1.00
C1249  C     0.13227   0.84774   0.90679   0.00000  Uiso   1.00
C1250  C     0.13275   0.81257   0.59410   0.00000  Uiso   1.00
C1251  C     0.16649   0.83210   0.61639   0.00000  Uiso   1.00
C1252  C     0.16684   0.83210   0.88361   0.00000  Uiso   1.00
C1253  C     0.16706   0.82669   0.52420   0.00000  Uiso   1.00
C1254  C     0.16627   0.82669   0.97580   0.00000  Uiso   1.00
C1255  C     0.29082   0.83340   0.74959   0.00000  Uiso   1.00
C1256  C     0.04252   0.83340   0.75041   0.00000  Uiso   1.00
H1257  H     0.22766   0.85838   0.52865   0.00000  Uiso   1.00
H1258  H     0.22676   0.79530   0.96974   0.00000  Uiso   1.00
H1259  H     0.10567   0.85839   0.97135   0.00000  Uiso   1.00
H1260  H     0.10656   0.79531   0.53026   0.00000  Uiso   1.00
H1261  H     0.22754   0.86188   0.61097   0.00000  Uiso   1.00
H1262  H     0.22695   0.79978   0.88744   0.00000  Uiso   1.00
H1263  H     0.10579   0.86189   0.88903   0.00000  Uiso   1.00
H1264  H     0.10637   0.79979   0.61257   0.00000  Uiso   1.00
H1265  H     0.03729   0.76063   0.75149   0.00000  Uiso   1.00
H1266  H     0.29591   0.90620   0.74992   0.00000  Uiso   1.00
H1267  H     0.29604   0.76063   0.74850   0.00000  Uiso   1.00
H1268  H     0.03742   0.90620   0.75008   0.00000  Uiso   1.00
N1269  N     0.16667   0.95240   0.75000   0.00000  Uiso   1.00
N1270  N     0.16667   0.71427   0.75000   0.00000  Uiso   1.00
O1271  O     0.10559   0.87154   0.75000   0.00000  Uiso   1.00
O1272  O     0.22774   0.79513   0.75001   0.00000  Uiso   1.00
O1273  O     0.22774   0.87154   0.75001   0.00000  Uiso   1.00
O1274  O     0.10559   0.79513   0.75000   0.00000  Uiso   1.00
O1275  O     0.16666   0.87155   0.68453   0.00000  Uiso   1.00
O1276  O     0.16667   0.79511   0.81547   0.00000  Uiso   1.00
O1277  O     0.16667   0.87155   0.81547   0.00000  Uiso   1.00
O1278  O     0.16666   0.79511   0.68453   0.00000  Uiso   1.00
Zn1279 Zn    0.16667   0.88437   0.75000   0.00000  Uiso   1.00
Zn1280 Zn    0.16667   0.78229   0.75000   0.00000  Uiso   1.00
O1281  O     0.20084   0.71401   0.82076   0.00000  Uiso   1.00
C1282  C     0.24461   0.70885   0.82084   0.00000  Uiso   1.00
H1283  H     0.25867   0.74209   0.81420   0.00000  Uiso   1.00
H1284  H     0.25683   0.68497   0.79518   0.00000  Uiso   1.00
C1285  C     0.25945   0.69370   0.86712   0.00000  Uiso   1.00
H1286  H     0.24790   0.99277   0.87440   0.00000  Uiso   1.00
H1287  H     0.29397   0.69325   0.86824   0.00000  Uiso   1.00
H1288  H     0.24802   0.71708   0.89330   0.00000  Uiso   1.00
O1289  O     0.14646   0.95572   0.67216   0.00000  Uiso   1.00
C1290  C     0.18298   0.95525   0.64558   0.00000  Uiso   1.00
H1291  H     0.17859   0.92897   0.61979   0.00000  Uiso   1.00
H1292  H     0.21137   0.94606   0.66533   0.00000  Uiso   1.00
C1293  C     0.19012   0.99886   0.61976   0.00000  Uiso   1.00
H1294  H     0.20194   0.69218   0.64250   0.00000  Uiso   1.00
H1295  H     0.21402   0.99323   0.59363   0.00000  Uiso   1.00
H1296  H     0.16100   0.67659   0.60287   0.00000  Uiso   1.00
O1297  O     0.13249   0.71401   0.67924   0.00000  Uiso   1.00
C1298  C     0.08873   0.70884   0.67915   0.00000  Uiso   1.00
H1299  H     0.07466   0.74208   0.68580   0.00000  Uiso   1.00
H1300  H     0.07650   0.68495   0.70480   0.00000  Uiso   1.00
C1301  C     0.07390   0.69371   0.63287   0.00000  Uiso   1.00
H1302  H     0.08545   0.99278   0.62557   0.00000  Uiso   1.00
H1303  H     0.03938   0.69326   0.63174   0.00000  Uiso   1.00
H1304  H     0.08532   0.71710   0.60670   0.00000  Uiso   1.00
O1305  O     0.18688   0.95572   0.82784   0.00000  Uiso   1.00
C1306  C     0.15037   0.95525   0.85442   0.00000  Uiso   1.00
H1307  H     0.15475   0.92897   0.88022   0.00000  Uiso   1.00
H1308  H     0.12196   0.94607   0.83467   0.00000  Uiso   1.00
C1309  C     0.14322   0.99886   0.88025   0.00000  Uiso   1.00
H1310  H     0.13141   0.69218   0.85751   0.00000  Uiso   1.00
H1311  H     0.11933   0.99323   0.90638   0.00000  Uiso   1.00
H1312  H     0.17235   0.67659   0.89713   0.00000  Uiso   1.00
C1313  C     0.42006   0.83334   0.75020   0.00000  Uiso   1.00
C1314  C     0.57994   0.83334   0.74980   0.00000  Uiso   1.00
C1315  C     0.50001   0.83319   0.66416   0.00000  Uiso   1.00
C1316  C     0.49999   0.83319   0.83584   0.00000  Uiso   1.00
C1317  C     0.51656   0.69088   0.78519   0.00000  Uiso   1.00
C1318  C     0.48824   0.97674   0.71250   0.00000  Uiso   1.00
C1319  C     0.48344   0.69088   0.71481   0.00000  Uiso   1.00
C1320  C     0.51176   0.97674   0.78750   0.00000  Uiso   1.00
C1321  C     0.35460   0.79254   0.75057   0.00000  Uiso   1.00
C1322  C     0.64537   0.87430   0.74990   0.00000  Uiso   1.00
C1323  C     0.64540   0.79254   0.74943   0.00000  Uiso   1.00
C1324  C     0.35463   0.87430   0.75010   0.00000  Uiso   1.00
C1325  C     0.53463   0.84522   0.54686   0.00000  Uiso   1.00
C1326  C     0.53376   0.81003   0.95225   0.00000  Uiso   1.00
C1327  C     0.46537   0.84523   0.95314   0.00000  Uiso   1.00
C1328  C     0.46624   0.81004   0.54775   0.00000  Uiso   1.00
C1329  C     0.53440   0.84773   0.59321   0.00000  Uiso   1.00
C1330  C     0.53391   0.81256   0.90591   0.00000  Uiso   1.00
C1331  C     0.46560   0.84774   0.90679   0.00000  Uiso   1.00
C1332  C     0.46608   0.81257   0.59410   0.00000  Uiso   1.00
C1333  C     0.49983   0.83210   0.61639   0.00000  Uiso   1.00
C1334  C     0.50017   0.83210   0.88361   0.00000  Uiso   1.00
C1335  C     0.50039   0.82669   0.52420   0.00000  Uiso   1.00
C1336  C     0.49961   0.82669   0.97580   0.00000  Uiso   1.00
C1337  C     0.62415   0.83340   0.74959   0.00000  Uiso   1.00
C1338  C     0.37585   0.83340   0.75041   0.00000  Uiso   1.00
H1339  H     0.56099   0.85838   0.52865   0.00000  Uiso   1.00
H1340  H     0.56009   0.79530   0.96974   0.00000  Uiso   1.00
H1341  H     0.43901   0.85839   0.97135   0.00000  Uiso   1.00
H1342  H     0.43990   0.79531   0.53026   0.00000  Uiso   1.00
H1343  H     0.56088   0.86188   0.61097   0.00000  Uiso   1.00
H1344  H     0.56029   0.79978   0.88744   0.00000  Uiso   1.00
H1345  H     0.43913   0.86189   0.88903   0.00000  Uiso   1.00
H1346  H     0.43971   0.79979   0.61257   0.00000  Uiso   1.00
H1347  H     0.37062   0.76063   0.75149   0.00000  Uiso   1.00
H1348  H     0.62924   0.90620   0.74992   0.00000  Uiso   1.00
H1349  H     0.62938   0.76063   0.74850   0.00000  Uiso   1.00
H1350  H     0.37076   0.90620   0.75008   0.00000  Uiso   1.00
N1351  N     0.50000   0.95240   0.75000   0.00000  Uiso   1.00
N1352  N     0.50000   0.71427   0.75000   0.00000  Uiso   1.00
O1353  O     0.43892   0.87154   0.75000   0.00000  Uiso   1.00
O1354  O     0.56108   0.79513   0.75001   0.00000  Uiso   1.00
O1355  O     0.56108   0.87154   0.75001   0.00000  Uiso   1.00
O1356  O     0.43892   0.79513   0.75000   0.00000  Uiso   1.00
O1357  O     0.50000   0.87155   0.68453   0.00000  Uiso   1.00
O1358  O     0.50000   0.79511   0.81547   0.00000  Uiso   1.00
O1359  O     0.50000   0.87155   0.81547   0.00000  Uiso   1.00
O1360  O     0.50000   0.79511   0.68453   0.00000  Uiso   1.00
Zn1361 Zn    0.50000   0.88437   0.75000   0.00000  Uiso   1.00
Zn1362 Zn    0.50000   0.78229   0.75000   0.00000  Uiso   1.00
O1363  O     0.53418   0.71401   0.82076   0.00000  Uiso   1.00
C1364  C     0.57794   0.70885   0.82084   0.00000  Uiso   1.00
H1365  H     0.59200   0.74209   0.81420   0.00000  Uiso   1.00
H1366  H     0.59017   0.68497   0.79518   0.00000  Uiso   1.00
C1367  C     0.59278   0.69370   0.86712   0.00000  Uiso   1.00
H1368  H     0.58124   0.99277   0.87440   0.00000  Uiso   1.00
H1369  H     0.62730   0.69325   0.86824   0.00000  Uiso   1.00
H1370  H     0.58135   0.71708   0.89330   0.00000  Uiso   1.00
O1371  O     0.47979   0.95572   0.67216   0.00000  Uiso   1.00
C1372  C     0.51631   0.95525   0.64558   0.00000  Uiso   1.00
H1373  H     0.51192   0.92897   0.61979   0.00000  Uiso   1.00
H1374  H     0.54471   0.94606   0.66533   0.00000  Uiso   1.00
C1375  C     0.52346   0.99886   0.61976   0.00000  Uiso   1.00
H1376  H     0.53527   0.69218   0.64250   0.00000  Uiso   1.00
H1377  H     0.54735   0.99323   0.59363   0.00000  Uiso   1.00
H1378  H     0.49433   0.67659   0.60287   0.00000  Uiso   1.00
O1379  O     0.46583   0.71401   0.67924   0.00000  Uiso   1.00
C1380  C     0.42206   0.70884   0.67915   0.00000  Uiso   1.00
H1381  H     0.40799   0.74208   0.68580   0.00000  Uiso   1.00
H1382  H     0.40984   0.68495   0.70480   0.00000  Uiso   1.00
C1383  C     0.40723   0.69371   0.63287   0.00000  Uiso   1.00
H1384  H     0.41878   0.99278   0.62557   0.00000  Uiso   1.00
H1385  H     0.37271   0.69326   0.63174   0.00000  Uiso   1.00
H1386  H     0.41866   0.71710   0.60670   0.00000  Uiso   1.00
O1387  O     0.52021   0.95572   0.82784   0.00000  Uiso   1.00
C1388  C     0.48370   0.95525   0.85442   0.00000  Uiso   1.00
H1389  H     0.48808   0.92897   0.88022   0.00000  Uiso   1.00
H1390  H     0.45530   0.94607   0.83467   0.00000  Uiso   1.00
C1391  C     0.47656   0.99886   0.88025   0.00000  Uiso   1.00
H1392  H     0.46474   0.69218   0.85751   0.00000  Uiso   1.00
H1393  H     0.45266   0.99323   0.90638   0.00000  Uiso   1.00
H1394  H     0.50568   0.67659   0.89713   0.00000  Uiso   1.00
C1395  C     0.75339   0.83334   0.75020   0.00000  Uiso   1.00
C1396  C     0.91327   0.83334   0.74980   0.00000  Uiso   1.00
C1397  C     0.83335   0.83319   0.66416   0.00000  Uiso   1.00
C1398  C     0.83332   0.83319   0.83584   0.00000  Uiso   1.00
C1399  C     0.84989   0.69088   0.78519   0.00000  Uiso   1.00
C1400  C     0.82157   0.97674   0.71250   0.00000  Uiso   1.00
C1401  C     0.81678   0.69088   0.71481   0.00000  Uiso   1.00
C1402  C     0.84510   0.97674   0.78750   0.00000  Uiso   1.00
C1403  C     0.68794   0.79254   0.75057   0.00000  Uiso   1.00
C1404  C     0.97870   0.87430   0.74990   0.00000  Uiso   1.00
C1405  C     0.97873   0.79254   0.74943   0.00000  Uiso   1.00
C1406  C     0.68796   0.87430   0.75010   0.00000  Uiso   1.00
C1407  C     0.86796   0.84522   0.54686   0.00000  Uiso   1.00
C1408  C     0.86709   0.81003   0.95225   0.00000  Uiso   1.00
C1409  C     0.79870   0.84523   0.95314   0.00000  Uiso   1.00
C1410  C     0.79957   0.81004   0.54775   0.00000  Uiso   1.00
C1411  C     0.86773   0.84773   0.59321   0.00000  Uiso   1.00
C1412  C     0.86725   0.81256   0.90591   0.00000  Uiso   1.00
C1413  C     0.79893   0.84774   0.90679   0.00000  Uiso   1.00
C1414  C     0.79941   0.81257   0.59410   0.00000  Uiso   1.00
C1415  C     0.83316   0.83210   0.61639   0.00000  Uiso   1.00
C1416  C     0.83350   0.83210   0.88361   0.00000  Uiso   1.00
C1417  C     0.83372   0.82669   0.52420   0.00000  Uiso   1.00
C1418  C     0.83294   0.82669   0.97580   0.00000  Uiso   1.00
C1419  C     0.95748   0.83340   0.74959   0.00000  Uiso   1.00
C1420  C     0.70918   0.83340   0.75041   0.00000  Uiso   1.00
H1421  H     0.89433   0.85838   0.52865   0.00000  Uiso   1.00
H1422  H     0.89343   0.79530   0.96974   0.00000  Uiso   1.00
H1423  H     0.77234   0.85839   0.97135   0.00000  Uiso   1.00
H1424  H     0.77323   0.79531   0.53026   0.00000  Uiso   1.00
H1425  H     0.89421   0.86188   0.61097   0.00000  Uiso   1.00
H1426  H     0.89362   0.79978   0.88744   0.00000  Uiso   1.00
H1427  H     0.77246   0.86189   0.88903   0.00000  Uiso   1.00
H1428  H     0.77304   0.79979   0.61257   0.00000  Uiso   1.00
H1429  H     0.70396   0.76063   0.75149   0.00000  Uiso   1.00
H1430  H     0.96258   0.90620   0.74992   0.00000  Uiso   1.00
H1431  H     0.96271   0.76063   0.74850   0.00000  Uiso   1.00
H1432  H     0.70409   0.90620   0.75008   0.00000  Uiso   1.00
N1433  N     0.83333   0.95240   0.75000   0.00000  Uiso   1.00
N1434  N     0.83333   0.71427   0.75000   0.00000  Uiso   1.00
O1435  O     0.77226   0.87154   0.75000   0.00000  Uiso   1.00
O1436  O     0.89441   0.79513   0.75001   0.00000  Uiso   1.00
O1437  O     0.89441   0.87154   0.75001   0.00000  Uiso   1.00
O1438  O     0.77226   0.79513   0.75000   0.00000  Uiso   1.00
O1439  O     0.83333   0.87155   0.68453   0.00000  Uiso   1.00
O1440  O     0.83334   0.79511   0.81547   0.00000  Uiso   1.00
O1441  O     0.83334   0.87155   0.81547   0.00000  Uiso   1.00
O1442  O     0.83333   0.79511   0.68453   0.00000  Uiso   1.00
Zn1443 Zn    0.83333   0.88437   0.75000   0.00000  Uiso   1.00
Zn1444 Zn    0.83333   0.78229   0.75000   0.00000  Uiso   1.00
O1445  O     0.86751   0.71401   0.82076   0.00000  Uiso   1.00
C1446  C     0.91127   0.70885   0.82084   0.00000  Uiso   1.00
H1447  H     0.92533   0.74209   0.81420   0.00000  Uiso   1.00
H1448  H     0.92350   0.68497   0.79518   0.00000  Uiso   1.00
C1449  C     0.92612   0.69370   0.86712   0.00000  Uiso   1.00
H1450  H     0.91457   0.99277   0.87440   0.00000  Uiso   1.00
H1451  H     0.96063   0.69325   0.86824   0.00000  Uiso   1.00
H1452  H     0.91469   0.71708   0.89330   0.00000  Uiso   1.00
O1453  O     0.81312   0.95572   0.67216   0.00000  Uiso   1.00
C1454  C     0.84964   0.95525   0.64558   0.00000  Uiso   1.00
H1455  H     0.84526   0.92897   0.61979   0.00000  Uiso   1.00
H1456  H     0.87804   0.94606   0.66533   0.00000  Uiso   1.00
C1457  C     0.85679   0.99886   0.61976   0.00000  Uiso   1.00
H1458  H     0.86860   0.69218   0.64250   0.00000  Uiso   1.00
H1459  H     0.88069   0.99323   0.59363   0.00000  Uiso   1.00
H1460  H     0.82767   0.67659   0.60287   0.00000  Uiso   1.00
O1461  O     0.79916   0.71401   0.67924   0.00000  Uiso   1.00
C1462  C     0.75540   0.70884   0.67915   0.00000  Uiso   1.00
H1463  H     0.74133   0.74208   0.68580   0.00000  Uiso   1.00
H1464  H     0.74317   0.68495   0.70480   0.00000  Uiso   1.00
C1465  C     0.74056   0.69371   0.63287   0.00000  Uiso   1.00
H1466  H     0.75211   0.99278   0.62557   0.00000  Uiso   1.00
H1467  H     0.70604   0.69326   0.63174   0.00000  Uiso   1.00
H1468  H     0.75199   0.71710   0.60670   0.00000  Uiso   1.00
O1469  O     0.85355   0.95572   0.82784   0.00000  Uiso   1.00
C1470  C     0.81703   0.95525   0.85442   0.00000  Uiso   1.00
H1471  H     0.82142   0.92897   0.88022   0.00000  Uiso   1.00
H1472  H     0.78863   0.94607   0.83467   0.00000  Uiso   1.00
C1473  C     0.80989   0.99886   0.88025   0.00000  Uiso   1.00
H1474  H     0.79807   0.69218   0.85751   0.00000  Uiso   1.00
H1475  H     0.78600   0.99323   0.90638   0.00000  Uiso   1.00
H1476  H     0.83902   0.67659   0.89713   0.00000  Uiso   1.00
loop_
_geom_bond_atom_site_label_1
_geom_bond_atom_site_label_2
_geom_bond_distance
_geom_bond_site_symmetry_2
_ccdc_geom_bond_type
C1     O44     1.291   .     A
C1     O41     1.291   .     A
C1     C26     1.422   .     S
C2     O43     1.291   .     A
C2     O42     1.291   .     A
C2     C25     1.422   .     S
C3     O48     1.287   .     A
C3     O45     1.295   .     A
C3     C21     1.422   .     S
C4     O46     1.287   .     A
C4     C22     1.422   .     S
C4     O47     1.295   .     A
C5     O51     1.381   .     S
C5     N40     1.363   .     A
C5     C500    1.426   1_545 S
C6     O59     1.379   .     S
C6     N39     1.381   .     A
C6     C253    1.426   .     S
C7     N40     1.363   .     A
C7     O67     1.381   .     S
C7     C498    1.426   1_545 S
C8     N39     1.381   .     A
C8     O75     1.379   .     S
C8     C251    1.426   .     S
C9     C26     1.397   .     A
C9     H35     1.082   .     S
C9     C175    1.368   1_455 S
C10    C25     1.398   .     A
C10    H36     1.084   .     S
C10    C94     1.370   .     S
C11    C25     1.397   .     A
C11    H37     1.082   .     S
C11    C91     1.368   .     S
C12    C26     1.398   .     A
C12    H38     1.084   .     S
C12    C174    1.370   1_455 S
C13    C23     1.400   .     A
C13    C17     1.381   .     A
C13    H27     1.084   .     S
C14    C18     1.381   .     A
C14    C24     1.399   .     A
C14    H28     1.084   .     S
C15    C19     1.381   .     A
C15    H29     1.084   .     S
C15    C24     1.400   .     A
C16    H30     1.084   .     S
C16    C20     1.381   .     A
C16    C23     1.399   .     A
C17    C21     1.394   .     A
C17    H31     1.084   .     S
C18    H32     1.084   .     S
C18    C22     1.395   .     A
C19    C22     1.394   .     A
C19    H33     1.084   .     S
C20    H34     1.084   .     S
C20    C21     1.395   .     A
C23    C762    1.440   1_554 S
C24    C761    1.440   .     S
N39    Zn49    2.029   .     S
N40    Zn50    2.029   .     S
O41    Zn49    2.001   .     S
O42    Zn50    2.001   .     S
O43    Zn49    2.001   .     S
O44    Zn50    2.001   .     S
O45    Zn49    1.985   .     S
O46    Zn50    1.985   .     S
O47    Zn49    1.985   .     S
O48    Zn50    1.985   .     S
O51    C52     1.416   .     S
C52    C55     1.522   .     S
C52    H54     1.118   .     S
C52    H53     1.108   .     S
C55    H57     1.110   .     S
C55    H58     1.110   .     S
C55    H548    1.109   1_545 S
H56    C301    1.109   .     S
O59    C60     1.422   .     S
C60    C63     1.529   .     S
C60    H62     1.116   .     S
C60    H61     1.105   .     S
C63    H65     1.111   .     S
C63    H310    1.109   .     S
C63    H312    1.109   .     S
H64    C555    1.109   1_545 S
H66    C555    1.109   1_545 S
O67    C68     1.416   .     S
C68    H69     1.108   .     S
C68    C71     1.522   .     S
C68    H70     1.118   .     S
C71    H73     1.110   .     S
C71    H74     1.110   .     S
C71    H564    1.109   1_545 S
H72    C317    1.109   .     S
O75    C76     1.421   .     S
C76    C79     1.529   .     S
C76    H78     1.116   .     S
C76    H77     1.105   .     S
C79    H81     1.111   .     S
C79    H326    1.109   .     S
C79    H328    1.109   .     S
H80    C571    1.109   1_545 S
H82    C571    1.109   1_545 S
C83    O126    1.291   .     A
C83    O123    1.291   .     A
C83    C108    1.422   .     S
C84    O125    1.291   .     A
C84    O124    1.291   .     A
C84    C107    1.422   .     S
C85    O130    1.287   .     A
C85    O127    1.295   .     A
C85    C103    1.422   .     S
C86    O128    1.287   .     A
C86    C104    1.422   .     S
C86    O129    1.295   .     A
C87    O133    1.381   .     S
C87    N122    1.363   .     A
C87    C582    1.426   1_545 S
C88    O141    1.379   .     S
C88    N121    1.381   .     A
C88    C335    1.426   .     S
C89    N122    1.363   .     A
C89    O149    1.381   .     S
C89    C580    1.426   1_545 S
C90    N121    1.381   .     A
C90    O157    1.379   .     S
C90    C333    1.426   .     S
C91    C108    1.397   .     A
C91    H117    1.082   .     S
C92    C107    1.398   .     A
C92    H118    1.084   .     S
C92    C176    1.370   .     S
C93    C107    1.397   .     A
C93    H119    1.082   .     S
C93    C173    1.368   .     S
C94    C108    1.398   .     A
C94    H120    1.084   .     S
C95    C105    1.400   .     A
C95    C99     1.381   .     A
C95    H109    1.084   .     S
C96    C100    1.381   .     A
C96    C106    1.399   .     A
C96    H110    1.084   .     S
C97    C101    1.381   .     A
C97    H111    1.084   .     S
C97    C106    1.400   .     A
C98    H112    1.084   .     S
C98    C102    1.381   .     A
C98    C105    1.399   .     A
C99    C103    1.394   .     A
C99    H113    1.084   .     S
C100   H114    1.084   .     S
C100   C104    1.395   .     A
C101   C104    1.394   .     A
C101   H115    1.084   .     S
C102   H116    1.084   .     S
C102   C103    1.395   .     A
C105   C844    1.440   1_554 S
C106   C843    1.440   .     S
N121   Zn131   2.029   .     S
N122   Zn132   2.029   .     S
O123   Zn131   2.001   .     S
O124   Zn132   2.001   .     S
O125   Zn131   2.001   .     S
O126   Zn132   2.001   .     S
O127   Zn131   1.985   .     S
O128   Zn132   1.985   .     S
O129   Zn131   1.985   .     S
O130   Zn132   1.985   .     S
O133   C134    1.416   .     S
C134   C137    1.522   .     S
C134   H136    1.118   .     S
C134   H135    1.108   .     S
C137   H139    1.110   .     S
C137   H140    1.110   .     S
C137   H630    1.109   1_545 S
H138   C383    1.109   .     S
O141   C142    1.422   .     S
C142   C145    1.529   .     S
C142   H144    1.116   .     S
C142   H143    1.105   .     S
C145   H147    1.111   .     S
C145   H392    1.109   .     S
C145   H394    1.109   .     S
H146   C637    1.109   1_545 S
H148   C637    1.109   1_545 S
O149   C150    1.416   .     S
C150   H151    1.108   .     S
C150   C153    1.522   .     S
C150   H152    1.118   .     S
C153   H155    1.110   .     S
C153   H156    1.110   .     S
C153   H646    1.109   1_545 S
H154   C399    1.109   .     S
O157   C158    1.421   .     S
C158   C161    1.529   .     S
C158   H160    1.116   .     S
C158   H159    1.105   .     S
C161   H163    1.111   .     S
C161   H408    1.109   .     S
C161   H410    1.109   .     S
H162   C653    1.109   1_545 S
H164   C653    1.109   1_545 S
C165   O208    1.291   .     A
C165   O205    1.291   .     A
C165   C190    1.422   .     S
C166   O207    1.291   .     A
C166   O206    1.291   .     A
C166   C189    1.422   .     S
C167   O212    1.287   .     A
C167   O209    1.295   .     A
C167   C185    1.422   .     S
C168   O210    1.287   .     A
C168   C186    1.422   .     S
C168   O211    1.295   .     A
C169   O215    1.381   .     S
C169   N204    1.363   .     A
C169   C664    1.426   1_545 S
C170   O223    1.379   .     S
C170   N203    1.381   .     A
C170   C417    1.426   .     S
C171   N204    1.363   .     A
C171   O231    1.381   .     S
C171   C662    1.426   1_545 S
C172   N203    1.381   .     A
C172   O239    1.379   .     S
C172   C415    1.426   .     S
C173   C190    1.397   .     A
C173   H199    1.082   .     S
C174   C189    1.398   .     A
C174   H200    1.084   .     S
C174   C12     1.370   1_655 S
C175   C189    1.397   .     A
C175   H201    1.082   .     S
C175   C9      1.368   1_655 S
C176   C190    1.398   .     A
C176   H202    1.084   .     S
C177   C187    1.400   .     A
C177   C181    1.381   .     A
C177   H191    1.084   .     S
C178   C182    1.381   .     A
C178   C188    1.399   .     A
C178   H192    1.084   .     S
C179   C183    1.381   .     A
C179   H193    1.084   .     S
C179   C188    1.400   .     A
C180   H194    1.084   .     S
C180   C184    1.381   .     A
C180   C187    1.399   .     A
C181   C185    1.394   .     A
C181   H195    1.084   .     S
C182   H196    1.084   .     S
C182   C186    1.395   .     A
C183   C186    1.394   .     A
C183   H197    1.084   .     S
C184   H198    1.084   .     S
C184   C185    1.395   .     A
C187   C926    1.440   1_554 S
C188   C925    1.440   .     S
N203   Zn213   2.029   .     S
N204   Zn214   2.029   .     S
O205   Zn213   2.001   .     S
O206   Zn214   2.001   .     S
O207   Zn213   2.001   .     S
O208   Zn214   2.001   .     S
O209   Zn213   1.985   .     S
O210   Zn214   1.985   .     S
O211   Zn213   1.985   .     S
O212   Zn214   1.985   .     S
O215   C216    1.416   .     S
C216   C219    1.522   .     S
C216   H218    1.118   .     S
C216   H217    1.108   .     S
C219   H221    1.110   .     S
C219   H222    1.110   .     S
C219   H712    1.109   1_545 S
H220   C465    1.109   .     S
O223   C224    1.422   .     S
C224   C227    1.529   .     S
C224   H226    1.116   .     S
C224   H225    1.105   .     S
C227   H229    1.111   .     S
C227   H474    1.109   .     S
C227   H476    1.109   .     S
H228   C719    1.109   1_545 S
H230   C719    1.109   1_545 S
O231   C232    1.416   .     S
C232   H233    1.108   .     S
C232   C235    1.522   .     S
C232   H234    1.118   .     S
C235   H237    1.110   .     S
C235   H238    1.110   .     S
C235   H728    1.109   1_545 S
H236   C481    1.109   .     S
O239   C240    1.421   .     S
C240   C243    1.529   .     S
C240   H242    1.116   .     S
C240   H241    1.105   .     S
C243   H245    1.111   .     S
C243   H490    1.109   .     S
C243   H492    1.109   .     S
H244   C735    1.109   1_545 S
H246   C735    1.109   1_545 S
C247   O290    1.291   .     A
C247   O287    1.291   .     A
C247   C272    1.422   .     S
C248   O289    1.291   .     A
C248   O288    1.291   .     A
C248   C271    1.422   .     S
C249   O294    1.287   .     A
C249   O291    1.295   .     A
C249   C267    1.422   .     S
C250   O292    1.287   .     A
C250   C268    1.422   .     S
C250   O293    1.295   .     A
C251   O297    1.381   .     S
C251   N286    1.363   .     A
C252   O305    1.379   .     S
C252   N285    1.381   .     A
C252   C499    1.426   .     S
C253   N286    1.363   .     A
C253   O313    1.381   .     S
C254   N285    1.381   .     A
C254   O321    1.379   .     S
C254   C497    1.426   .     S
C255   C272    1.397   .     A
C255   H281    1.082   .     S
C255   C421    1.368   1_455 S
C256   C271    1.398   .     A
C256   H282    1.084   .     S
C256   C340    1.370   .     S
C257   C271    1.397   .     A
C257   H283    1.082   .     S
C257   C337    1.368   .     S
C258   C272    1.398   .     A
C258   H284    1.084   .     S
C258   C420    1.370   1_455 S
C259   C269    1.400   .     A
C259   C263    1.381   .     A
C259   H273    1.084   .     S
C260   C264    1.381   .     A
C260   C270    1.399   .     A
C260   H274    1.084   .     S
C261   C265    1.381   .     A
C261   H275    1.084   .     S
C261   C270    1.400   .     A
C262   H276    1.084   .     S
C262   C266    1.381   .     A
C262   C269    1.399   .     A
C263   C267    1.394   .     A
C263   H277    1.084   .     S
C264   H278    1.084   .     S
C264   C268    1.395   .     A
C265   C268    1.394   .     A
C265   H279    1.084   .     S
C266   H280    1.084   .     S
C266   C267    1.395   .     A
C269   C1008   1.440   1_554 S
C270   C1007   1.440   .     S
N285   Zn295   2.029   .     S
N286   Zn296   2.029   .     S
O287   Zn295   2.001   .     S
O288   Zn296   2.001   .     S
O289   Zn295   2.001   .     S
O290   Zn296   2.001   .     S
O291   Zn295   1.985   .     S
O292   Zn296   1.985   .     S
O293   Zn295   1.985   .     S
O294   Zn296   1.985   .     S
O297   C298    1.416   .     S
C298   C301    1.522   .     S
C298   H300    1.118   .     S
C298   H299    1.108   .     S
C301   H303    1.110   .     S
C301   H304    1.110   .     S
H302   C547    1.109   .     S
O305   C306    1.422   .     S
C306   C309    1.529   .     S
C306   H308    1.116   .     S
C306   H307    1.105   .     S
C309   H311    1.111   .     S
C309   H556    1.109   .     S
C309   H558    1.109   .     S
O313   C314    1.416   .     S
C314   H315    1.108   .     S
C314   C317    1.522   .     S
C314   H316    1.118   .     S
C317   H319    1.110   .     S
C317   H320    1.110   .     S
H318   C563    1.109   .     S
O321   C322    1.421   .     S
C322   C325    1.529   .     S
C322   H324    1.116   .     S
C322   H323    1.105   .     S
C325   H327    1.111   .     S
C325   H572    1.109   .     S
C325   H574    1.109   .     S
C329   O372    1.291   .     A
C329   O369    1.291   .     A
C329   C354    1.422   .     S
C330   O371    1.291   .     A
C330   O370    1.291   .     A
C330   C353    1.422   .     S
C331   O376    1.287   .     A
C331   O373    1.295   .     A
C331   C349    1.422   .     S
C332   O374    1.287   .     A
C332   C350    1.422   .     S
C332   O375    1.295   .     A
C333   O379    1.381   .     S
C333   N368    1.363   .     A
C334   O387    1.379   .     S
C334   N367    1.381   .     A
C334   C581    1.426   .     S
C335   N368    1.363   .     A
C335   O395    1.381   .     S
C336   N367    1.381   .     A
C336   O403    1.379   .     S
C336   C579    1.426   .     S
C337   C354    1.397   .     A
C337   H363    1.082   .     S
C338   C353    1.398   .     A
C338   H364    1.084   .     S
C338   C422    1.370   .     S
C339   C353    1.397   .     A
C339   H365    1.082   .     S
C339   C419    1.368   .     S
C340   C354    1.398   .     A
C340   H366    1.084   .     S
C341   C351    1.400   .     A
C341   C345    1.381   .     A
C341   H355    1.084   .     S
C342   C346    1.381   .     A
C342   C352    1.399   .     A
C342   H356    1.084   .     S
C343   C347    1.381   .     A
C343   H357    1.084   .     S
C343   C352    1.400   .     A
C344   H358    1.084   .     S
C344   C348    1.381   .     A
C344   C351    1.399   .     A
C345   C349    1.394   .     A
C345   H359    1.084   .     S
C346   H360    1.084   .     S
C346   C350    1.395   .     A
C347   C350    1.394   .     A
C347   H361    1.084   .     S
C348   H362    1.084   .     S
C348   C349    1.395   .     A
C351   C1090   1.440   1_554 S
C352   C1089   1.440   .     S
N367   Zn377   2.029   .     S
N368   Zn378   2.029   .     S
O369   Zn377   2.001   .     S
O370   Zn378   2.001   .     S
O371   Zn377   2.001   .     S
O372   Zn378   2.001   .     S
O373   Zn377   1.985   .     S
O374   Zn378   1.985   .     S
O375   Zn377   1.985   .     S
O376   Zn378   1.985   .     S
O379   C380    1.416   .     S
C380   C383    1.522   .     S
C380   H382    1.118   .     S
C380   H381    1.108   .     S
C383   H385    1.110   .     S
C383   H386    1.110   .     S
H384   C629    1.109   .     S
O387   C388    1.422   .     S
C388   C391    1.529   .     S
C388   H390    1.116   .     S
C388   H389    1.105   .     S
C391   H393    1.111   .     S
C391   H638    1.109   .     S
C391   H640    1.109   .     S
O395   C396    1.416   .     S
C396   H397    1.108   .     S
C396   C399    1.522   .     S
C396   H398    1.118   .     S
C399   H401    1.110   .     S
C399   H402    1.110   .     S
H400   C645    1.109   .     S
O403   C404    1.421   .     S
C404   C407    1.529   .     S
C404   H406    1.116   .     S
C404   H405    1.105   .     S
C407   H409    1.111   .     S
C407   H654    1.109   .     S
C407   H656    1.109   .     S
C411   O454    1.291   .     A
C411   O451    1.291   .     A
C411   C436    1.422   .     S
C412   O453    1.291   .     A
C412   O452    1.291   .     A
C412   C435    1.422   .     S
C413   O458    1.287   .     A
C413   O455    1.295   .     A
C413   C431    1.422   .     S
C414   O456    1.287   .     A
C414   C432    1.422   .     S
C414   O457    1.295   .     A
C415   O461    1.381   .     S
C415   N450    1.363   .     A
C416   O469    1.379   .     S
C416   N449    1.381   .     A
C416   C663    1.426   .     S
C417   N450    1.363   .     A
C417   O477    1.381   .     S
C418   N449    1.381   .     A
C418   O485    1.379   .     S
C418   C661    1.426   .     S
C419   C436    1.397   .     A
C419   H445    1.082   .     S
C420   C435    1.398   .     A
C420   H446    1.084   .     S
C420   C258    1.370   1_655 S
C421   C435    1.397   .     A
C421   H447    1.082   .     S
C421   C255    1.368   1_655 S
C422   C436    1.398   .     A
C422   H448    1.084   .     S
C423   C433    1.400   .     A
C423   C427    1.381   .     A
C423   H437    1.084   .     S
C424   C428    1.381   .     A
C424   C434    1.399   .     A
C424   H438    1.084   .     S
C425   C429    1.381   .     A
C425   H439    1.084   .     S
C425   C434    1.400   .     A
C426   H440    1.084   .     S
C426   C430    1.381   .     A
C426   C433    1.399   .     A
C427   C431    1.394   .     A
C427   H441    1.084   .     S
C428   H442    1.084   .     S
C428   C432    1.395   .     A
C429   C432    1.394   .     A
C429   H443    1.084   .     S
C430   H444    1.084   .     S
C430   C431    1.395   .     A
C433   C1172   1.440   1_554 S
C434   C1171   1.440   .     S
N449   Zn459   2.029   .     S
N450   Zn460   2.029   .     S
O451   Zn459   2.001   .     S
O452   Zn460   2.001   .     S
O453   Zn459   2.001   .     S
O454   Zn460   2.001   .     S
O455   Zn459   1.985   .     S
O456   Zn460   1.985   .     S
O457   Zn459   1.985   .     S
O458   Zn460   1.985   .     S
O461   C462    1.416   .     S
C462   C465    1.522   .     S
C462   H464    1.118   .     S
C462   H463    1.108   .     S
C465   H467    1.110   .     S
C465   H468    1.110   .     S
H466   C711    1.109   .     S
O469   C470    1.422   .     S
C470   C473    1.529   .     S
C470   H472    1.116   .     S
C470   H471    1.105   .     S
C473   H475    1.111   .     S
C473   H720    1.109   .     S
C473   H722    1.109   .     S
O477   C478    1.416   .     S
C478   H479    1.108   .     S
C478   C481    1.522   .     S
C478   H480    1.118   .     S
C481   H483    1.110   .     S
C481   H484    1.110   .     S
H482   C727    1.109   .     S
O485   C486    1.421   .     S
C486   C489    1.529   .     S
C486   H488    1.116   .     S
C486   H487    1.105   .     S
C489   H491    1.111   .     S
C489   H736    1.109   .     S
C489   H738    1.109   .     S
C493   O536    1.291   .     A
C493   O533    1.291   .     A
C493   C518    1.422   .     S
C494   O535    1.291   .     A
C494   O534    1.291   .     A
C494   C517    1.422   .     S
C495   O540    1.287   .     A
C495   O537    1.295   .     A
C495   C513    1.422   .     S
C496   O538    1.287   .     A
C496   C514    1.422   .     S
C496   O539    1.295   .     A
C497   O543    1.381   .     S
C497   N532    1.363   .     A
C498   O551    1.379   .     S
C498   N531    1.381   .     A
C498   C7      1.426   1_565 S
C499   N532    1.363   .     A
C499   O559    1.381   .     S
C500   N531    1.381   .     A
C500   O567    1.379   .     S
C500   C5      1.426   1_565 S
C501   C518    1.397   .     A
C501   H527    1.082   .     S
C501   C667    1.368   1_455 S
C502   C517    1.398   .     A
C502   H528    1.084   .     S
C502   C586    1.370   .     S
C503   C517    1.397   .     A
C503   H529    1.082   .     S
C503   C583    1.368   .     S
C504   C518    1.398   .     A
C504   H530    1.084   .     S
C504   C666    1.370   1_455 S
C505   C515    1.400   .     A
C505   C509    1.381   .     A
C505   H519    1.084   .     S
C506   C510    1.381   .     A
C506   C516    1.399   .     A
C506   H520    1.084   .     S
C507   C511    1.381   .     A
C507   H521    1.084   .     S
C507   C516    1.400   .     A
C508   H522    1.084   .     S
C508   C512    1.381   .     A
C508   C515    1.399   .     A
C509   C513    1.394   .     A
C509   H523    1.084   .     S
C510   H524    1.084   .     S
C510   C514    1.395   .     A
C511   C514    1.394   .     A
C511   H525    1.084   .     S
C512   H526    1.084   .     S
C512   C513    1.395   .     A
C515   C1254   1.440   1_554 S
C516   C1253   1.440   .     S
N531   Zn541   2.029   .     S
N532   Zn542   2.029   .     S
O533   Zn541   2.001   .     S
O534   Zn542   2.001   .     S
O535   Zn541   2.001   .     S
O536   Zn542   2.001   .     S
O537   Zn541   1.985   .     S
O538   Zn542   1.985   .     S
O539   Zn541   1.985   .     S
O540   Zn542   1.985   .     S
O543   C544    1.416   .     S
C544   C547    1.522   .     S
C544   H546    1.118   .     S
C544   H545    1.108   .     S
C547   H549    1.110   .     S
C547   H550    1.110   .     S
H548   C55     1.109   1_565 S
O551   C552    1.422   .     S
C552   C555    1.529   .     S
C552   H554    1.116   .     S
C552   H553    1.105   .     S
C555   H557    1.111   .     S
C555   H64     1.109   1_565 S
C555   H66     1.109   1_565 S
O559   C560    1.416   .     S
C560   H561    1.108   .     S
C560   C563    1.522   .     S
C560   H562    1.118   .     S
C563   H565    1.110   .     S
C563   H566    1.110   .     S
H564   C71     1.109   1_565 S
O567   C568    1.421   .     S
C568   C571    1.529   .     S
C568   H570    1.116   .     S
C568   H569    1.105   .     S
C571   H573    1.111   .     S
C571   H80     1.109   1_565 S
C571   H82     1.109   1_565 S
C575   O618    1.291   .     A
C575   O615    1.291   .     A
C575   C600    1.422   .     S
C576   O617    1.291   .     A
C576   O616    1.291   .     A
C576   C599    1.422   .     S
C577   O622    1.287   .     A
C577   O619    1.295   .     A
C577   C595    1.422   .     S
C578   O620    1.287   .     A
C578   C596    1.422   .     S
C578   O621    1.295   .     A
C579   O625    1.381   .     S
C579   N614    1.363   .     A
C580   O633    1.379   .     S
C580   N613    1.381   .     A
C580   C89     1.426   1_565 S
C581   N614    1.363   .     A
C581   O641    1.381   .     S
C582   N613    1.381   .     A
C582   O649    1.379   .     S
C582   C87     1.426   1_565 S
C583   C600    1.397   .     A
C583   H609    1.082   .     S
C584   C599    1.398   .     A
C584   H610    1.084   .     S
C584   C668    1.370   .     S
C585   C599    1.397   .     A
C585   H611    1.082   .     S
C585   C665    1.368   .     S
C586   C600    1.398   .     A
C586   H612    1.084   .     S
C587   C597    1.400   .     A
C587   C591    1.381   .     A
C587   H601    1.084   .     S
C588   C592    1.381   .     A
C588   C598    1.399   .     A
C588   H602    1.084   .     S
C589   C593    1.381   .     A
C589   H603    1.084   .     S
C589   C598    1.400   .     A
C590   H604    1.084   .     S
C590   C594    1.381   .     A
C590   C597    1.399   .     A
C591   C595    1.394   .     A
C591   H605    1.084   .     S
C592   H606    1.084   .     S
C592   C596    1.395   .     A
C593   C596    1.394   .     A
C593   H607    1.084   .     S
C594   H608    1.084   .     S
C594   C595    1.395   .     A
C597   C1336   1.440   1_554 S
C598   C1335   1.440   .     S
N613   Zn623   2.029   .     S
N614   Zn624   2.029   .     S
O615   Zn623   2.001   .     S
O616   Zn624   2.001   .     S
O617   Zn623   2.001   .     S
O618   Zn624   2.001   .     S
O619   Zn623   1.985   .     S
O620   Zn624   1.985   .     S
O621   Zn623   1.985   .     S
O622   Zn624   1.985   .     S
O625   C626    1.416   .     S
C626   C629    1.522   .     S
C626   H628    1.118   .     S
C626   H627    1.108   .     S
C629   H631    1.110   .     S
C629   H632    1.110   .     S
H630   C137    1.109   1_565 S
O633   C634    1.422   .     S
C634   C637    1.529   .     S
C634   H636    1.116   .     S
C634   H635    1.105   .     S
C637   H639    1.111   .     S
C637   H146    1.109   1_565 S
C637   H148    1.109   1_565 S
O641   C642    1.416   .     S
C642   H643    1.108   .     S
C642   C645    1.522   .     S
C642   H644    1.118   .     S
C645   H647    1.110   .     S
C645   H648    1.110   .     S
H646   C153    1.109   1_565 S
O649   C650    1.421   .     S
C650   C653    1.529   .     S
C650   H652    1.116   .     S
C650   H651    1.105   .     S
C653   H655    1.111   .     S
C653   H162    1.109   1_565 S
C653   H164    1.109   1_565 S
C657   O700    1.291   .     A
C657   O697    1.291   .     A
C657   C682    1.422   .     S
C658   O699    1.291   .     A
C658   O698    1.291   .     A
C658   C681    1.422   .     S
C659   O704    1.287   .     A
C659   O701    1.295   .     A
C659   C677    1.422   .     S
C660   O702    1.287   .     A
C660   C678    1.422   .     S
C660   O703    1.295   .     A
C661   O707    1.381   .     S
C661   N696    1.363   .     A
C662   O715    1.379   .     S
C662   N695    1.381   .     A
C662   C171    1.426   1_565 S
C663   N696    1.363   .     A
C663   O723    1.381   .     S
C664   N695    1.381   .     A
C664   O731    1.379   .     S
C664   C169    1.426   1_565 S
C665   C682    1.397   .     A
C665   H691    1.082   .     S
C666   C681    1.398   .     A
C666   H692    1.084   .     S
C666   C504    1.370   1_655 S
C667   C681    1.397   .     A
C667   H693    1.082   .     S
C667   C501    1.368   1_655 S
C668   C682    1.398   .     A
C668   H694    1.084   .     S
C669   C679    1.400   .     A
C669   C673    1.381   .     A
C669   H683    1.084   .     S
C670   C674    1.381   .     A
C670   C680    1.399   .     A
C670   H684    1.084   .     S
C671   C675    1.381   .     A
C671   H685    1.084   .     S
C671   C680    1.400   .     A
C672   H686    1.084   .     S
C672   C676    1.381   .     A
C672   C679    1.399   .     A
C673   C677    1.394   .     A
C673   H687    1.084   .     S
C674   H688    1.084   .     S
C674   C678    1.395   .     A
C675   C678    1.394   .     A
C675   H689    1.084   .     S
C676   H690    1.084   .     S
C676   C677    1.395   .     A
C679   C1418   1.440   1_554 S
C680   C1417   1.440   .     S
N695   Zn705   2.029   .     S
N696   Zn706   2.029   .     S
O697   Zn705   2.001   .     S
O698   Zn706   2.001   .     S
O699   Zn705   2.001   .     S
O700   Zn706   2.001   .     S
O701   Zn705   1.985   .     S
O702   Zn706   1.985   .     S
O703   Zn705   1.985   .     S
O704   Zn706   1.985   .     S
O707   C708    1.416   .     S
C708   C711    1.522   .     S
C708   H710    1.118   .     S
C708   H709    1.108   .     S
C711   H713    1.110   .     S
C711   H714    1.110   .     S
H712   C219    1.109   1_565 S
O715   C716    1.422   .     S
C716   C719    1.529   .     S
C716   H718    1.116   .     S
C716   H717    1.105   .     S
C719   H721    1.111   .     S
C719   H228    1.109   1_565 S
C719   H230    1.109   1_565 S
O723   C724    1.416   .     S
C724   H725    1.108   .     S
C724   C727    1.522   .     S
C724   H726    1.118   .     S
C727   H729    1.110   .     S
C727   H730    1.110   .     S
H728   C235    1.109   1_565 S
O731   C732    1.421   .     S
C732   C735    1.529   .     S
C732   H734    1.116   .     S
C732   H733    1.105   .     S
C735   H737    1.111   .     S
C735   H244    1.109   1_565 S
C735   H246    1.109   1_565 S
C739   O782    1.291   .     A
C739   O779    1.291   .     A
C739   C764    1.422   .     S
C740   O781    1.291   .     A
C740   O780    1.291   .     A
C740   C763    1.422   .     S
C741   O786    1.287   .     A
C741   O783    1.295   .     A
C741   C759    1.422   .     S
C742   O784    1.287   .     A
C742   C760    1.422   .     S
C742   O785    1.295   .     A
C743   O789    1.381   .     S
C743   N778    1.363   .     A
C743   C1238   1.426   1_545 S
C744   O797    1.379   .     S
C744   N777    1.381   .     A
C744   C991    1.426   .     S
C745   N778    1.363   .     A
C745   O805    1.381   .     S
C745   C1236   1.426   1_545 S
C746   N777    1.381   .     A
C746   O813    1.379   .     S
C746   C989    1.426   .     S
C747   C764    1.397   .     A
C747   H773    1.082   .     S
C747   C913    1.368   1_455 S
C748   C763    1.398   .     A
C748   H774    1.084   .     S
C748   C832    1.370   .     S
C749   C763    1.397   .     A
C749   H775    1.082   .     S
C749   C829    1.368   .     S
C750   C764    1.398   .     A
C750   H776    1.084   .     S
C750   C912    1.370   1_455 S
C751   C761    1.400   .     A
C751   C755    1.381   .     A
C751   H765    1.084   .     S
C752   C756    1.381   .     A
C752   C762    1.399   .     A
C752   H766    1.084   .     S
C753   C757    1.381   .     A
C753   H767    1.084   .     S
C753   C762    1.400   .     A
C754   H768    1.084   .     S
C754   C758    1.381   .     A
C754   C761    1.399   .     A
C755   C759    1.394   .     A
C755   H769    1.084   .     S
C756   H770    1.084   .     S
C756   C760    1.395   .     A
C757   C760    1.394   .     A
C757   H771    1.084   .     S
C758   H772    1.084   .     S
C758   C759    1.395   .     A
C762   C23     1.440   1_556 S
N777   Zn787   2.029   .     S
N778   Zn788   2.029   .     S
O779   Zn787   2.001   .     S
O780   Zn788   2.001   .     S
O781   Zn787   2.001   .     S
O782   Zn788   2.001   .     S
O783   Zn787   1.985   .     S
O784   Zn788   1.985   .     S
O785   Zn787   1.985   .     S
O786   Zn788   1.985   .     S
O789   C790    1.416   .     S
C790   C793    1.522   .     S
C790   H792    1.118   .     S
C790   H791    1.108   .     S
C793   H795    1.110   .     S
C793   H796    1.110   .     S
C793   H1286   1.109   1_545 S
H794   C1039   1.109   .     S
O797   C798    1.422   .     S
C798   C801    1.529   .     S
C798   H800    1.116   .     S
C798   H799    1.105   .     S
C801   H803    1.111   .     S
C801   H1048   1.109   .     S
C801   H1050   1.109   .     S
H802   C1293   1.109   1_545 S
H804   C1293   1.109   1_545 S
O805   C806    1.416   .     S
C806   H807    1.108   .     S
C806   C809    1.522   .     S
C806   H808    1.118   .     S
C809   H811    1.110   .     S
C809   H812    1.110   .     S
C809   H1302   1.109   1_545 S
H810   C1055   1.109   .     S
O813   C814    1.421   .     S
C814   C817    1.529   .     S
C814   H816    1.116   .     S
C814   H815    1.105   .     S
C817   H819    1.111   .     S
C817   H1064   1.109   .     S
C817   H1066   1.109   .     S
H818   C1309   1.109   1_545 S
H820   C1309   1.109   1_545 S
C821   O864    1.291   .     A
C821   O861    1.291   .     A
C821   C846    1.422   .     S
C822   O863    1.291   .     A
C822   O862    1.291   .     A
C822   C845    1.422   .     S
C823   O868    1.287   .     A
C823   O865    1.295   .     A
C823   C841    1.422   .     S
C824   O866    1.287   .     A
C824   C842    1.422   .     S
C824   O867    1.295   .     A
C825   O871    1.381   .     S
C825   N860    1.363   .     A
C825   C1320   1.426   1_545 S
C826   O879    1.379   .     S
C826   N859    1.381   .     A
C826   C1073   1.426   .     S
C827   N860    1.363   .     A
C827   O887    1.381   .     S
C827   C1318   1.426   1_545 S
C828   N859    1.381   .     A
C828   O895    1.379   .     S
C828   C1071   1.426   .     S
C829   C846    1.397   .     A
C829   H855    1.082   .     S
C830   C845    1.398   .     A
C830   H856    1.084   .     S
C830   C914    1.370   .     S
C831   C845    1.397   .     A
C831   H857    1.082   .     S
C831   C911    1.368   .     S
C832   C846    1.398   .     A
C832   H858    1.084   .     S
C833   C843    1.400   .     A
C833   C837    1.381   .     A
C833   H847    1.084   .     S
C834   C838    1.381   .     A
C834   C844    1.399   .     A
C834   H848    1.084   .     S
C835   C839    1.381   .     A
C835   H849    1.084   .     S
C835   C844    1.400   .     A
C836   H850    1.084   .     S
C836   C840    1.381   .     A
C836   C843    1.399   .     A
C837   C841    1.394   .     A
C837   H851    1.084   .     S
C838   H852    1.084   .     S
C838   C842    1.395   .     A
C839   C842    1.394   .     A
C839   H853    1.084   .     S
C840   H854    1.084   .     S
C840   C841    1.395   .     A
C844   C105    1.440   1_556 S
N859   Zn869   2.029   .     S
N860   Zn870   2.029   .     S
O861   Zn869   2.001   .     S
O862   Zn870   2.001   .     S
O863   Zn869   2.001   .     S
O864   Zn870   2.001   .     S
O865   Zn869   1.985   .     S
O866   Zn870   1.985   .     S
O867   Zn869   1.985   .     S
O868   Zn870   1.985   .     S
O871   C872    1.416   .     S
C872   C875    1.522   .     S
C872   H874    1.118   .     S
C872   H873    1.108   .     S
C875   H877    1.110   .     S
C875   H878    1.110   .     S
C875   H1368   1.109   1_545 S
H876   C1121   1.109   .     S
O879   C880    1.422   .     S
C880   C883    1.529   .     S
C880   H882    1.116   .     S
C880   H881    1.105   .     S
C883   H885    1.111   .     S
C883   H1130   1.109   .     S
C883   H1132   1.109   .     S
H884   C1375   1.109   1_545 S
H886   C1375   1.109   1_545 S
O887   C888    1.416   .     S
C888   H889    1.108   .     S
C888   C891    1.522   .     S
C888   H890    1.118   .     S
C891   H893    1.110   .     S
C891   H894    1.110   .     S
C891   H1384   1.109   1_545 S
H892   C1137   1.109   .     S
O895   C896    1.421   .     S
C896   C899    1.529   .     S
C896   H898    1.116   .     S
C896   H897    1.105   .     S
C899   H901    1.111   .     S
C899   H1146   1.109   .     S
C899   H1148   1.109   .     S
H900   C1391   1.109   1_545 S
H902   C1391   1.109   1_545 S
C903   O946    1.291   .     A
C903   O943    1.291   .     A
C903   C928    1.422   .     S
C904   O945    1.291   .     A
C904   O944    1.291   .     A
C904   C927    1.422   .     S
C905   O950    1.287   .     A
C905   O947    1.295   .     A
C905   C923    1.422   .     S
C906   O948    1.287   .     A
C906   C924    1.422   .     S
C906   O949    1.295   .     A
C907   O953    1.381   .     S
C907   N942    1.363   .     A
C907   C1402   1.426   1_545 S
C908   O961    1.379   .     S
C908   N941    1.381   .     A
C908   C1155   1.426   .     S
C909   N942    1.363   .     A
C909   O969    1.381   .     S
C909   C1400   1.426   1_545 S
C910   N941    1.381   .     A
C910   O977    1.379   .     S
C910   C1153   1.426   .     S
C911   C928    1.397   .     A
C911   H937    1.082   .     S
C912   C927    1.398   .     A
C912   H938    1.084   .     S
C912   C750    1.370   1_655 S
C913   C927    1.397   .     A
C913   H939    1.082   .     S
C913   C747    1.368   1_655 S
C914   C928    1.398   .     A
C914   H940    1.084   .     S
C915   C925    1.400   .     A
C915   C919    1.381   .     A
C915   H929    1.084   .     S
C916   C920    1.381   .     A
C916   C926    1.399   .     A
C916   H930    1.084   .     S
C917   C921    1.381   .     A
C917   H931    1.084   .     S
C917   C926    1.400   .     A
C918   H932    1.084   .     S
C918   C922    1.381   .     A
C918   C925    1.399   .     A
C919   C923    1.394   .     A
C919   H933    1.084   .     S
C920   H934    1.084   .     S
C920   C924    1.395   .     A
C921   C924    1.394   .     A
C921   H935    1.084   .     S
C922   H936    1.084   .     S
C922   C923    1.395   .     A
C926   C187    1.440   1_556 S
N941   Zn951   2.029   .     S
N942   Zn952   2.029   .     S
O943   Zn951   2.001   .     S
O944   Zn952   2.001   .     S
O945   Zn951   2.001   .     S
O946   Zn952   2.001   .     S
O947   Zn951   1.985   .     S
O948   Zn952   1.985   .     S
O949   Zn951   1.985   .     S
O950   Zn952   1.985   .     S
O953   C954    1.416   .     S
C954   C957    1.522   .     S
C954   H956    1.118   .     S
C954   H955    1.108   .     S
C957   H959    1.110   .     S
C957   H960    1.110   .     S
C957   H1450   1.109   1_545 S
H958   C1203   1.109   .     S
O961   C962    1.422   .     S
C962   C965    1.529   .     S
C962   H964    1.116   .     S
C962   H963    1.105   .     S
C965   H967    1.111   .     S
C965   H1212   1.109   .     S
C965   H1214   1.109   .     S
H966   C1457   1.109   1_545 S
H968   C1457   1.109   1_545 S
O969   C970    1.416   .     S
C970   H971    1.108   .     S
C970   C973    1.522   .     S
C970   H972    1.118   .     S
C973   H975    1.110   .     S
C973   H976    1.110   .     S
C973   H1466   1.109   1_545 S
H974   C1219   1.109   .     S
O977   C978    1.421   .     S
C978   C981    1.529   .     S
C978   H980    1.116   .     S
C978   H979    1.105   .     S
C981   H983    1.111   .     S
C981   H1228   1.109   .     S
C981   H1230   1.109   .     S
H982   C1473   1.109   1_545 S
H984   C1473   1.109   1_545 S
C985   O1028   1.291   .     A
C985   O1025   1.291   .     A
C985   C1010   1.422   .     S
C986   O1027   1.291   .     A
C986   O1026   1.291   .     A
C986   C1009   1.422   .     S
C987   O1032   1.287   .     A
C987   O1029   1.295   .     A
C987   C1005   1.422   .     S
C988   O1030   1.287   .     A
C988   C1006   1.422   .     S
C988   O1031   1.295   .     A
C989   O1035   1.381   .     S
C989   N1024   1.363   .     A
C990   O1043   1.379   .     S
C990   N1023   1.381   .     A
C990   C1237   1.426   .     S
C991   N1024   1.363   .     A
C991   O1051   1.381   .     S
C992   N1023   1.381   .     A
C992   O1059   1.379   .     S
C992   C1235   1.426   .     S
C993   C1010   1.397   .     A
C993   H1019   1.082   .     S
C993   C1159   1.368   1_455 S
C994   C1009   1.398   .     A
C994   H1020   1.084   .     S
C994   C1078   1.370   .     S
C995   C1009   1.397   .     A
C995   H1021   1.082   .     S
C995   C1075   1.368   .     S
C996   C1010   1.398   .     A
C996   H1022   1.084   .     S
C996   C1158   1.370   1_455 S
C997   C1007   1.400   .     A
C997   C1001   1.381   .     A
C997   H1011   1.084   .     S
C998   C1002   1.381   .     A
C998   C1008   1.399   .     A
C998   H1012   1.084   .     S
C999   C1003   1.381   .     A
C999   H1013   1.084   .     S
C999   C1008   1.400   .     A
C1000  H1014   1.084   .     S
C1000  C1004   1.381   .     A
C1000  C1007   1.399   .     A
C1001  C1005   1.394   .     A
C1001  H1015   1.084   .     S
C1002  H1016   1.084   .     S
C1002  C1006   1.395   .     A
C1003  C1006   1.394   .     A
C1003  H1017   1.084   .     S
C1004  H1018   1.084   .     S
C1004  C1005   1.395   .     A
C1008  C269    1.440   1_556 S
N1023  Zn1033  2.029   .     S
N1024  Zn1034  2.029   .     S
O1025  Zn1033  2.001   .     S
O1026  Zn1034  2.001   .     S
O1027  Zn1033  2.001   .     S
O1028  Zn1034  2.001   .     S
O1029  Zn1033  1.985   .     S
O1030  Zn1034  1.985   .     S
O1031  Zn1033  1.985   .     S
O1032  Zn1034  1.985   .     S
O1035  C1036   1.416   .     S
C1036  C1039   1.522   .     S
C1036  H1038   1.118   .     S
C1036  H1037   1.108   .     S
C1039  H1041   1.110   .     S
C1039  H1042   1.110   .     S
H1040  C1285   1.109   .     S
O1043  C1044   1.422   .     S
C1044  C1047   1.529   .     S
C1044  H1046   1.116   .     S
C1044  H1045   1.105   .     S
C1047  H1049   1.111   .     S
C1047  H1294   1.109   .     S
C1047  H1296   1.109   .     S
O1051  C1052   1.416   .     S
C1052  H1053   1.108   .     S
C1052  C1055   1.522   .     S
C1052  H1054   1.118   .     S
C1055  H1057   1.110   .     S
C1055  H1058   1.110   .     S
H1056  C1301   1.109   .     S
O1059  C1060   1.421   .     S
C1060  C1063   1.529   .     S
C1060  H1062   1.116   .     S
C1060  H1061   1.105   .     S
C1063  H1065   1.111   .     S
C1063  H1310   1.109   .     S
C1063  H1312   1.109   .     S
C1067  O1110   1.291   .     A
C1067  O1107   1.291   .     A
C1067  C1092   1.422   .     S
C1068  O1109   1.291   .     A
C1068  O1108   1.291   .     A
C1068  C1091   1.422   .     S
C1069  O1114   1.287   .     A
C1069  O1111   1.295   .     A
C1069  C1087   1.422   .     S
C1070  O1112   1.287   .     A
C1070  C1088   1.422   .     S
C1070  O1113   1.295   .     A
C1071  O1117   1.381   .     S
C1071  N1106   1.363   .     A
C1072  O1125   1.379   .     S
C1072  N1105   1.381   .     A
C1072  C1319   1.426   .     S
C1073  N1106   1.363   .     A
C1073  O1133   1.381   .     S
C1074  N1105   1.381   .     A
C1074  O1141   1.379   .     S
C1074  C1317   1.426   .     S
C1075  C1092   1.397   .     A
C1075  H1101   1.082   .     S
C1076  C1091   1.398   .     A
C1076  H1102   1.084   .     S
C1076  C1160   1.370   .     S
C1077  C1091   1.397   .     A
C1077  H1103   1.082   .     S
C1077  C1157   1.368   .     S
C1078  C1092   1.398   .     A
C1078  H1104   1.084   .     S
C1079  C1089   1.400   .     A
C1079  C1083   1.381   .     A
C1079  H1093   1.084   .     S
C1080  C1084   1.381   .     A
C1080  C1090   1.399   .     A
C1080  H1094   1.084   .     S
C1081  C1085   1.381   .     A
C1081  H1095   1.084   .     S
C1081  C1090   1.400   .     A
C1082  H1096   1.084   .     S
C1082  C1086   1.381   .     A
C1082  C1089   1.399   .     A
C1083  C1087   1.394   .     A
C1083  H1097   1.084   .     S
C1084  H1098   1.084   .     S
C1084  C1088   1.395   .     A
C1085  C1088   1.394   .     A
C1085  H1099   1.084   .     S
C1086  H1100   1.084   .     S
C1086  C1087   1.395   .     A
C1090  C351    1.440   1_556 S
N1105  Zn1115  2.029   .     S
N1106  Zn1116  2.029   .     S
O1107  Zn1115  2.001   .     S
O1108  Zn1116  2.001   .     S
O1109  Zn1115  2.001   .     S
O1110  Zn1116  2.001   .     S
O1111  Zn1115  1.985   .     S
O1112  Zn1116  1.985   .     S
O1113  Zn1115  1.985   .     S
O1114  Zn1116  1.985   .     S
O1117  C1118   1.416   .     S
C1118  C1121   1.522   .     S
C1118  H1120   1.118   .     S
C1118  H1119   1.108   .     S
C1121  H1123   1.110   .     S
C1121  H1124   1.110   .     S
H1122  C1367   1.109   .     S
O1125  C1126   1.422   .     S
C1126  C1129   1.529   .     S
C1126  H1128   1.116   .     S
C1126  H1127   1.105   .     S
C1129  H1131   1.111   .     S
C1129  H1376   1.109   .     S
C1129  H1378   1.109   .     S
O1133  C1134   1.416   .     S
C1134  H1135   1.108   .     S
C1134  C1137   1.522   .     S
C1134  H1136   1.118   .     S
C1137  H1139   1.110   .     S
C1137  H1140   1.110   .     S
H1138  C1383   1.109   .     S
O1141  C1142   1.421   .     S
C1142  C1145   1.529   .     S
C1142  H1144   1.116   .     S
C1142  H1143   1.105   .     S
C1145  H1147   1.111   .     S
C1145  H1392   1.109   .     S
C1145  H1394   1.109   .     S
C1149  O1192   1.291   .     A
C1149  O1189   1.291   .     A
C1149  C1174   1.422   .     S
C1150  O1191   1.291   .     A
C1150  O1190   1.291   .     A
C1150  C1173   1.422   .     S
C1151  O1196   1.287   .     A
C1151  O1193   1.295   .     A
C1151  C1169   1.422   .     S
C1152  O1194   1.287   .     A
C1152  C1170   1.422   .     S
C1152  O1195   1.295   .     A
C1153  O1199   1.381   .     S
C1153  N1188   1.363   .     A
C1154  O1207   1.379   .     S
C1154  N1187   1.381   .     A
C1154  C1401   1.426   .     S
C1155  N1188   1.363   .     A
C1155  O1215   1.381   .     S
C1156  N1187   1.381   .     A
C1156  O1223   1.379   .     S
C1156  C1399   1.426   .     S
C1157  C1174   1.397   .     A
C1157  H1183   1.082   .     S
C1158  C1173   1.398   .     A
C1158  H1184   1.084   .     S
C1158  C996    1.370   1_655 S
C1159  C1173   1.397   .     A
C1159  H1185   1.082   .     S
C1159  C993    1.368   1_655 S
C1160  C1174   1.398   .     A
C1160  H1186   1.084   .     S
C1161  C1171   1.400   .     A
C1161  C1165   1.381   .     A
C1161  H1175   1.084   .     S
C1162  C1166   1.381   .     A
C1162  C1172   1.399   .     A
C1162  H1176   1.084   .     S
C1163  C1167   1.381   .     A
C1163  H1177   1.084   .     S
C1163  C1172   1.400   .     A
C1164  H1178   1.084   .     S
C1164  C1168   1.381   .     A
C1164  C1171   1.399   .     A
C1165  C1169   1.394   .     A
C1165  H1179   1.084   .     S
C1166  H1180   1.084   .     S
C1166  C1170   1.395   .     A
C1167  C1170   1.394   .     A
C1167  H1181   1.084   .     S
C1168  H1182   1.084   .     S
C1168  C1169   1.395   .     A
C1172  C433    1.440   1_556 S
N1187  Zn1197  2.029   .     S
N1188  Zn1198  2.029   .     S
O1189  Zn1197  2.001   .     S
O1190  Zn1198  2.001   .     S
O1191  Zn1197  2.001   .     S
O1192  Zn1198  2.001   .     S
O1193  Zn1197  1.985   .     S
O1194  Zn1198  1.985   .     S
O1195  Zn1197  1.985   .     S
O1196  Zn1198  1.985   .     S
O1199  C1200   1.416   .     S
C1200  C1203   1.522   .     S
C1200  H1202   1.118   .     S
C1200  H1201   1.108   .     S
C1203  H1205   1.110   .     S
C1203  H1206   1.110   .     S
H1204  C1449   1.109   .     S
O1207  C1208   1.422   .     S
C1208  C1211   1.529   .     S
C1208  H1210   1.116   .     S
C1208  H1209   1.105   .     S
C1211  H1213   1.111   .     S
C1211  H1458   1.109   .     S
C1211  H1460   1.109   .     S
O1215  C1216   1.416   .     S
C1216  H1217   1.108   .     S
C1216  C1219   1.522   .     S
C1216  H1218   1.118   .     S
C1219  H1221   1.110   .     S
C1219  H1222   1.110   .     S
H1220  C1465   1.109   .     S
O1223  C1224   1.421   .     S
C1224  C1227   1.529   .     S
C1224  H1226   1.116   .     S
C1224  H1225   1.105   .     S
C1227  H1229   1.111   .     S
C1227  H1474   1.109   .     S
C1227  H1476   1.109   .     S
C1231  O1274   1.291   .     A
C1231  O1271   1.291   .     A
C1231  C1256   1.422   .     S
C1232  O1273   1.291   .     A
C1232  O1272   1.291   .     A
C1232  C1255   1.422   .     S
C1233  O1278   1.287   .     A
C1233  O1275   1.295   .     A
C1233  C1251   1.422   .     S
C1234  O1276   1.287   .     A
C1234  C1252   1.422   .     S
C1234  O1277   1.295   .     A
C1235  O1281   1.381   .     S
C1235  N1270   1.363   .     A
C1236  O1289   1.379   .     S
C1236  N1269   1.381   .     A
C1236  C745    1.426   1_565 S
C1237  N1270   1.363   .     A
C1237  O1297   1.381   .     S
C1238  N1269   1.381   .     A
C1238  O1305   1.379   .     S
C1238  C743    1.426   1_565 S
C1239  C1256   1.397   .     A
C1239  H1265   1.082   .     S
C1239  C1405   1.368   1_455 S
C1240  C1255   1.398   .     A
C1240  H1266   1.084   .     S
C1240  C1324   1.370   .     S
C1241  C1255   1.397   .     A
C1241  H1267   1.082   .     S
C1241  C1321   1.368   .     S
C1242  C1256   1.398   .     A
C1242  H1268   1.084   .     S
C1242  C1404   1.370   1_455 S
C1243  C1253   1.400   .     A
C1243  C1247   1.381   .     A
C1243  H1257   1.084   .     S
C1244  C1248   1.381   .     A
C1244  C1254   1.399   .     A
C1244  H1258   1.084   .     S
C1245  C1249   1.381   .     A
C1245  H1259   1.084   .     S
C1245  C1254   1.400   .     A
C1246  H1260   1.084   .     S
C1246  C1250   1.381   .     A
C1246  C1253   1.399   .     A
C1247  C1251   1.394   .     A
C1247  H1261   1.084   .     S
C1248  H1262   1.084   .     S
C1248  C1252   1.395   .     A
C1249  C1252   1.394   .     A
C1249  H1263   1.084   .     S
C1250  H1264   1.084   .     S
C1250  C1251   1.395   .     A
C1254  C515    1.440   1_556 S
N1269  Zn1279  2.029   .     S
N1270  Zn1280  2.029   .     S
O1271  Zn1279  2.001   .     S
O1272  Zn1280  2.001   .     S
O1273  Zn1279  2.001   .     S
O1274  Zn1280  2.001   .     S
O1275  Zn1279  1.985   .     S
O1276  Zn1280  1.985   .     S
O1277  Zn1279  1.985   .     S
O1278  Zn1280  1.985   .     S
O1281  C1282   1.416   .     S
C1282  C1285   1.522   .     S
C1282  H1284   1.118   .     S
C1282  H1283   1.108   .     S
C1285  H1287   1.110   .     S
C1285  H1288   1.110   .     S
H1286  C793    1.109   1_565 S
O1289  C1290   1.422   .     S
C1290  C1293   1.529   .     S
C1290  H1292   1.116   .     S
C1290  H1291   1.105   .     S
C1293  H1295   1.111   .     S
C1293  H802    1.109   1_565 S
C1293  H804    1.109   1_565 S
O1297  C1298   1.416   .     S
C1298  H1299   1.108   .     S
C1298  C1301   1.522   .     S
C1298  H1300   1.118   .     S
C1301  H1303   1.110   .     S
C1301  H1304   1.110   .     S
H1302  C809    1.109   1_565 S
O1305  C1306   1.421   .     S
C1306  C1309   1.529   .     S
C1306  H1308   1.116   .     S
C1306  H1307   1.105   .     S
C1309  H1311   1.111   .     S
C1309  H818    1.109   1_565 S
C1309  H820    1.109   1_565 S
C1313  O1356   1.291   .     A
C1313  O1353   1.291   .     A
C1313  C1338   1.422   .     S
C1314  O1355   1.291   .     A
C1314  O1354   1.291   .     A
C1314  C1337   1.422   .     S
C1315  O1360   1.287   .     A
C1315  O1357   1.295   .     A
C1315  C1333   1.422   .     S
C1316  O1358   1.287   .     A
C1316  C1334   1.422   .     S
C1316  O1359   1.295   .     A
C1317  O1363   1.381   .     S
C1317  N1352   1.363   .     A
C1318  O1371   1.379   .     S
C1318  N1351   1.381   .     A
C1318  C827    1.426   1_565 S
C1319  N1352   1.363   .     A
C1319  O1379   1.381   .     S
C1320  N1351   1.381   .     A
C1320  O1387   1.379   .     S
C1320  C825    1.426   1_565 S
C1321  C1338   1.397   .     A
C1321  H1347   1.082   .     S
C1322  C1337   1.398   .     A
C1322  H1348   1.084   .     S
C1322  C1406   1.370   .     S
C1323  C1337   1.397   .     A
C1323  H1349   1.082   .     S
C1323  C1403   1.368   .     S
C1324  C1338   1.398   .     A
C1324  H1350   1.084   .     S
C1325  C1335   1.400   .     A
C1325  C1329   1.381   .     A
C1325  H1339   1.084   .     S
C1326  C1330   1.381   .     A
C1326  C1336   1.399   .     A
C1326  H1340   1.084   .     S
C1327  C1331   1.381   .     A
C1327  H1341   1.084   .     S
C1327  C1336   1.400   .     A
C1328  H1342   1.084   .     S
C1328  C1332   1.381   .     A
C1328  C1335   1.399   .     A
C1329  C1333   1.394   .     A
C1329  H1343   1.084   .     S
C1330  H1344   1.084   .     S
C1330  C1334   1.395   .     A
C1331  C1334   1.394   .     A
C1331  H1345   1.084   .     S
C1332  H1346   1.084   .     S
C1332  C1333   1.395   .     A
C1336  C597    1.440   1_556 S
N1351  Zn1361  2.029   .     S
N1352  Zn1362  2.029   .     S
O1353  Zn1361  2.001   .     S
O1354  Zn1362  2.001   .     S
O1355  Zn1361  2.001   .     S
O1356  Zn1362  2.001   .     S
O1357  Zn1361  1.985   .     S
O1358  Zn1362  1.985   .     S
O1359  Zn1361  1.985   .     S
O1360  Zn1362  1.985   .     S
O1363  C1364   1.416   .     S
C1364  C1367   1.522   .     S
C1364  H1366   1.118   .     S
C1364  H1365   1.108   .     S
C1367  H1369   1.110   .     S
C1367  H1370   1.110   .     S
H1368  C875    1.109   1_565 S
O1371  C1372   1.422   .     S
C1372  C1375   1.529   .     S
C1372  H1374   1.116   .     S
C1372  H1373   1.105   .     S
C1375  H1377   1.111   .     S
C1375  H884    1.109   1_565 S
C1375  H886    1.109   1_565 S
O1379  C1380   1.416   .     S
C1380  H1381   1.108   .     S
C1380  C1383   1.522   .     S
C1380  H1382   1.118   .     S
C1383  H1385   1.110   .     S
C1383  H1386   1.110   .     S
H1384  C891    1.109   1_565 S
O1387  C1388   1.421   .     S
C1388  C1391   1.529   .     S
C1388  H1390   1.116   .     S
C1388  H1389   1.105   .     S
C1391  H1393   1.111   .     S
C1391  H900    1.109   1_565 S
C1391  H902    1.109   1_565 S
C1395  O1438   1.291   .     A
C1395  O1435   1.291   .     A
C1395  C1420   1.422   .     S
C1396  O1437   1.291   .     A
C1396  O1436   1.291   .     A
C1396  C1419   1.422   .     S
C1397  O1442   1.287   .     A
C1397  O1439   1.295   .     A
C1397  C1415   1.422   .     S
C1398  O1440   1.287   .     A
C1398  C1416   1.422   .     S
C1398  O1441   1.295   .     A
C1399  O1445   1.381   .     S
C1399  N1434   1.363   .     A
C1400  O1453   1.379   .     S
C1400  N1433   1.381   .     A
C1400  C909    1.426   1_565 S
C1401  N1434   1.363   .     A
C1401  O1461   1.381   .     S
C1402  N1433   1.381   .     A
C1402  O1469   1.379   .     S
C1402  C907    1.426   1_565 S
C1403  C1420   1.397   .     A
C1403  H1429   1.082   .     S
C1404  C1419   1.398   .     A
C1404  H1430   1.084   .     S
C1404  C1242   1.370   1_655 S
C1405  C1419   1.397   .     A
C1405  H1431   1.082   .     S
C1405  C1239   1.368   1_655 S
C1406  C1420   1.398   .     A
C1406  H1432   1.084   .     S
C1407  C1417   1.400   .     A
C1407  C1411   1.381   .     A
C1407  H1421   1.084   .     S
C1408  C1412   1.381   .     A
C1408  C1418   1.399   .     A
C1408  H1422   1.084   .     S
C1409  C1413   1.381   .     A
C1409  H1423   1.084   .     S
C1409  C1418   1.400   .     A
C1410  H1424   1.084   .     S
C1410  C1414   1.381   .     A
C1410  C1417   1.399   .     A
C1411  C1415   1.394   .     A
C1411  H1425   1.084   .     S
C1412  H1426   1.084   .     S
C1412  C1416   1.395   .     A
C1413  C1416   1.394   .     A
C1413  H1427   1.084   .     S
C1414  H1428   1.084   .     S
C1414  C1415   1.395   .     A
C1418  C679    1.440   1_556 S
N1433  Zn1443  2.029   .     S
N1434  Zn1444  2.029   .     S
O1435  Zn1443  2.001   .     S
O1436  Zn1444  2.001   .     S
O1437  Zn1443  2.001   .     S
O1438  Zn1444  2.001   .     S
O1439  Zn1443  1.985   .     S
O1440  Zn1444  1.985   .     S
O1441  Zn1443  1.985   .     S
O1442  Zn1444  1.985   .     S
O1445  C1446   1.416   .     S
C1446  C1449   1.522   .     S
C1446  H1448   1.118   .     S
C1446  H1447   1.108   .     S
C1449  H1451   1.110   .     S
C1449  H1452   1.110   .     S
H1450  C957    1.109   1_565 S
O1453  C1454   1.422   .     S
C1454  C1457   1.529   .     S
C1454  H1456   1.116   .     S
C1454  H1455   1.105   .     S
C1457  H1459   1.111   .     S
C1457  H966    1.109   1_565 S
C1457  H968    1.109   1_565 S
O1461  C1462   1.416   .     S
C1462  H1463   1.108   .     S
C1462  C1465   1.522   .     S
C1462  H1464   1.118   .     S
C1465  H1467   1.110   .     S
C1465  H1468   1.110   .     S
H1466  C973    1.109   1_565 S
O1469  C1470   1.421   .     S
C1470  C1473   1.529   .     S
C1470  H1472   1.116   .     S
C1470  H1471   1.105   .     S
C1473  H1475   1.111   .     S
C1473  H982    1.109   1_565 S
C1473  H984    1.109   1_565 S
