data_str_m3_o1_o17_pcu_sym.161
_audit_creation_date              2020-01-03
_audit_creation_method            'Materials Studio'
_symmetry_space_group_name_H-M    'P1'
_symmetry_Int_Tables_number       1
_symmetry_cell_setting            triclinic
loop_
_symmetry_equiv_pos_as_xyz
  x,y,z
_cell_length_a                    31.8644
_cell_length_b                    29.5144
_cell_length_c                    30.0144
_cell_angle_alpha                 89.9918
_cell_angle_beta                  89.9471
_cell_angle_gamma                 90.9895
loop_
_atom_site_label
_atom_site_type_symbol
_atom_site_fract_x
_atom_site_fract_y
_atom_site_fract_z
_atom_site_U_iso_or_equiv
_atom_site_adp_type
_atom_site_occupancy
O1     O     0.10559   0.20487   0.24999   0.00000  Uiso   1.00
O2     O     0.22774   0.12846   0.25000   0.00000  Uiso   1.00
O3     O     0.22774   0.20487   0.25000   0.00000  Uiso   1.00
O4     O     0.10559   0.12846   0.24999   0.00000  Uiso   1.00
C5     C     0.08680   0.16621   0.24994   0.00000  Uiso   1.00
C6     C     0.24654   0.16712   0.25006   0.00000  Uiso   1.00
O7     O     0.16666   0.20489   0.18392   0.00000  Uiso   1.00
O8     O     0.16667   0.12844   0.31607   0.00000  Uiso   1.00
O9     O     0.16667   0.20489   0.31607   0.00000  Uiso   1.00
O10    O     0.16666   0.12844   0.18392   0.00000  Uiso   1.00
C11    C     0.16643   0.16666   0.16327   0.00000  Uiso   1.00
C12    C     0.16690   0.16667   0.33673   0.00000  Uiso   1.00
Zn13   Zn    0.16667   0.21771   0.25000   0.00000  Uiso   1.00
Zn14   Zn    0.16667   0.11563   0.25000   0.00000  Uiso   1.00
C15    C     0.16649   0.20794   0.40757   0.00000  Uiso   1.00
C16    C     0.16685   0.12540   0.09243   0.00000  Uiso   1.00
C17    C     0.16709   0.16668   0.38468   0.00000  Uiso   1.00
C18    C     0.16624   0.16666   0.11532   0.00000  Uiso   1.00
C19    C     0.16772   0.12542   0.40758   0.00000  Uiso   1.00
C20    C     0.16561   0.20792   0.09242   0.00000  Uiso   1.00
C21    C     0.16754   0.12510   0.45366   0.00000  Uiso   1.00
C22    C     0.16579   0.20824   0.04634   0.00000  Uiso   1.00
C23    C     0.16680   0.16667   0.47682   0.00000  Uiso   1.00
C24    C     0.16653   0.16666   0.02317   0.00000  Uiso   1.00
C25    C     0.16631   0.20825   0.45365   0.00000  Uiso   1.00
C26    C     0.16702   0.12509   0.04635   0.00000  Uiso   1.00
C27    C     0.16801   0.08396   0.47687   0.00000  Uiso   1.00
C28    C     0.16532   0.24937   0.02313   0.00000  Uiso   1.00
C29    C     0.16775   0.08395   0.02316   0.00000  Uiso   1.00
C30    C     0.16559   0.24938   0.47684   0.00000  Uiso   1.00
H31    H     0.16605   0.23983   0.38963   0.00000  Uiso   1.00
H32    H     0.16728   0.09350   0.11037   0.00000  Uiso   1.00
H33    H     0.16826   0.09352   0.38965   0.00000  Uiso   1.00
H34    H     0.16508   0.23981   0.11035   0.00000  Uiso   1.00
H35    H     0.16857   0.05191   0.45926   0.00000  Uiso   1.00
H36    H     0.16476   0.28142   0.04074   0.00000  Uiso   1.00
H37    H     0.16812   0.05190   0.04079   0.00000  Uiso   1.00
H38    H     0.16521   0.28143   0.45921   0.00000  Uiso   1.00
C39    C     0.02165   0.16173   0.20918   0.00000  Uiso   1.00
C40    C     0.31169   0.17161   0.29082   0.00000  Uiso   1.00
C41    C     0.31157   0.16385   0.20906   0.00000  Uiso   1.00
C42    C     0.02177   0.16949   0.29095   0.00000  Uiso   1.00
C43    C     0.29067   0.16854   0.24989   0.00000  Uiso   1.00
C44    C     0.04267   0.16480   0.25012   0.00000  Uiso   1.00
C45    C     0.19044   0.02442   0.27991   0.00000  Uiso   1.00
C46    C     0.14289   0.30891   0.22009   0.00000  Uiso   1.00
C47    C     0.14289   0.02355   0.22010   0.00000  Uiso   1.00
C48    C     0.19045   0.30978   0.27990   0.00000  Uiso   1.00
H49    H     0.20946   0.04295   0.30381   0.00000  Uiso   1.00
H50    H     0.12388   0.29038   0.19619   0.00000  Uiso   1.00
H51    H     0.12387   0.04139   0.19620   0.00000  Uiso   1.00
H52    H     0.20946   0.29194   0.30380   0.00000  Uiso   1.00
N53    N     0.16667   0.28573   0.25000   0.00000  Uiso   1.00
N54    N     0.16667   0.04760   0.25000   0.00000  Uiso   1.00
N55    N     0.04441   0.15841   0.16795   0.00000  Uiso   1.00
O56    O     0.07018   0.12533   0.16150   0.00000  Uiso   1.00
O57    O     0.03776   0.18706   0.13588   0.00000  Uiso   1.00
N58    N     0.28892   0.17492   0.33205   0.00000  Uiso   1.00
O59    O     0.26314   0.20799   0.33850   0.00000  Uiso   1.00
O60    O     0.29559   0.14628   0.36413   0.00000  Uiso   1.00
N61    N     0.28868   0.16026   0.16792   0.00000  Uiso   1.00
O62    O     0.26279   0.19178   0.15643   0.00000  Uiso   1.00
O63    O     0.29541   0.12683   0.14073   0.00000  Uiso   1.00
N64    N     0.04465   0.17308   0.33208   0.00000  Uiso   1.00
O65    O     0.07054   0.14157   0.34358   0.00000  Uiso   1.00
O66    O     0.03793   0.20653   0.35927   0.00000  Uiso   1.00
O67    O     0.43892   0.20487   0.24999   0.00000  Uiso   1.00
O68    O     0.56108   0.12846   0.25000   0.00000  Uiso   1.00
O69    O     0.56108   0.20487   0.25000   0.00000  Uiso   1.00
O70    O     0.43892   0.12846   0.24999   0.00000  Uiso   1.00
C71    C     0.42013   0.16621   0.24994   0.00000  Uiso   1.00
C72    C     0.57987   0.16712   0.25006   0.00000  Uiso   1.00
O73    O     0.49999   0.20489   0.18392   0.00000  Uiso   1.00
O74    O     0.50001   0.12844   0.31607   0.00000  Uiso   1.00
O75    O     0.50001   0.20489   0.31607   0.00000  Uiso   1.00
O76    O     0.49999   0.12844   0.18392   0.00000  Uiso   1.00
C77    C     0.49977   0.16666   0.16327   0.00000  Uiso   1.00
C78    C     0.50023   0.16667   0.33673   0.00000  Uiso   1.00
Zn79   Zn    0.50000   0.21771   0.25000   0.00000  Uiso   1.00
Zn80   Zn    0.50000   0.11563   0.25000   0.00000  Uiso   1.00
C81    C     0.49982   0.20794   0.40757   0.00000  Uiso   1.00
C82    C     0.50018   0.12540   0.09243   0.00000  Uiso   1.00
C83    C     0.50043   0.16668   0.38468   0.00000  Uiso   1.00
C84    C     0.49957   0.16666   0.11532   0.00000  Uiso   1.00
C85    C     0.50105   0.12542   0.40758   0.00000  Uiso   1.00
C86    C     0.49895   0.20792   0.09242   0.00000  Uiso   1.00
C87    C     0.50087   0.12510   0.45366   0.00000  Uiso   1.00
C88    C     0.49913   0.20824   0.04634   0.00000  Uiso   1.00
C89    C     0.50013   0.16667   0.47682   0.00000  Uiso   1.00
C90    C     0.49987   0.16666   0.02317   0.00000  Uiso   1.00
C91    C     0.49965   0.20825   0.45365   0.00000  Uiso   1.00
C92    C     0.50035   0.12509   0.04635   0.00000  Uiso   1.00
C93    C     0.50135   0.08396   0.47687   0.00000  Uiso   1.00
C94    C     0.49865   0.24937   0.02313   0.00000  Uiso   1.00
C95    C     0.50108   0.08395   0.02316   0.00000  Uiso   1.00
C96    C     0.49892   0.24938   0.47684   0.00000  Uiso   1.00
H97    H     0.49938   0.23983   0.38963   0.00000  Uiso   1.00
H98    H     0.50062   0.09350   0.11037   0.00000  Uiso   1.00
H99    H     0.50159   0.09352   0.38965   0.00000  Uiso   1.00
H100   H     0.49841   0.23981   0.11035   0.00000  Uiso   1.00
H101   H     0.50190   0.05191   0.45926   0.00000  Uiso   1.00
H102   H     0.49810   0.28142   0.04074   0.00000  Uiso   1.00
H103   H     0.50146   0.05190   0.04079   0.00000  Uiso   1.00
H104   H     0.49854   0.28143   0.45921   0.00000  Uiso   1.00
C105   C     0.35498   0.16173   0.20918   0.00000  Uiso   1.00
C106   C     0.64502   0.17161   0.29082   0.00000  Uiso   1.00
C107   C     0.64490   0.16385   0.20906   0.00000  Uiso   1.00
C108   C     0.35510   0.16949   0.29095   0.00000  Uiso   1.00
C109   C     0.62400   0.16854   0.24989   0.00000  Uiso   1.00
C110   C     0.37600   0.16480   0.25012   0.00000  Uiso   1.00
C111   C     0.52378   0.02442   0.27991   0.00000  Uiso   1.00
C112   C     0.47622   0.30891   0.22009   0.00000  Uiso   1.00
C113   C     0.47622   0.02355   0.22010   0.00000  Uiso   1.00
C114   C     0.52378   0.30978   0.27990   0.00000  Uiso   1.00
H115   H     0.54279   0.04295   0.30381   0.00000  Uiso   1.00
H116   H     0.45721   0.29038   0.19619   0.00000  Uiso   1.00
H117   H     0.45720   0.04139   0.19620   0.00000  Uiso   1.00
H118   H     0.54280   0.29194   0.30380   0.00000  Uiso   1.00
N119   N     0.50000   0.28573   0.25000   0.00000  Uiso   1.00
N120   N     0.50000   0.04760   0.25000   0.00000  Uiso   1.00
N121   N     0.37775   0.15841   0.16795   0.00000  Uiso   1.00
O122   O     0.40352   0.12533   0.16150   0.00000  Uiso   1.00
O123   O     0.37109   0.18706   0.13588   0.00000  Uiso   1.00
N124   N     0.62225   0.17492   0.33205   0.00000  Uiso   1.00
O125   O     0.59647   0.20799   0.33850   0.00000  Uiso   1.00
O126   O     0.62892   0.14628   0.36413   0.00000  Uiso   1.00
N127   N     0.62201   0.16026   0.16792   0.00000  Uiso   1.00
O128   O     0.59613   0.19178   0.15643   0.00000  Uiso   1.00
O129   O     0.62874   0.12683   0.14073   0.00000  Uiso   1.00
N130   N     0.37799   0.17308   0.33208   0.00000  Uiso   1.00
O131   O     0.40387   0.14157   0.34358   0.00000  Uiso   1.00
O132   O     0.37127   0.20653   0.35927   0.00000  Uiso   1.00
O133   O     0.77226   0.20487   0.24999   0.00000  Uiso   1.00
O134   O     0.89441   0.12846   0.25000   0.00000  Uiso   1.00
O135   O     0.89441   0.20487   0.25000   0.00000  Uiso   1.00
O136   O     0.77226   0.12846   0.24999   0.00000  Uiso   1.00
C137   C     0.75346   0.16621   0.24994   0.00000  Uiso   1.00
C138   C     0.91320   0.16712   0.25006   0.00000  Uiso   1.00
O139   O     0.83333   0.20489   0.18392   0.00000  Uiso   1.00
O140   O     0.83334   0.12844   0.31607   0.00000  Uiso   1.00
O141   O     0.83334   0.20489   0.31607   0.00000  Uiso   1.00
O142   O     0.83333   0.12844   0.18392   0.00000  Uiso   1.00
C143   C     0.83310   0.16666   0.16327   0.00000  Uiso   1.00
C144   C     0.83357   0.16667   0.33673   0.00000  Uiso   1.00
Zn145  Zn    0.83333   0.21771   0.25000   0.00000  Uiso   1.00
Zn146  Zn    0.83333   0.11563   0.25000   0.00000  Uiso   1.00
C147   C     0.83315   0.20794   0.40757   0.00000  Uiso   1.00
C148   C     0.83351   0.12540   0.09243   0.00000  Uiso   1.00
C149   C     0.83376   0.16668   0.38468   0.00000  Uiso   1.00
C150   C     0.83291   0.16666   0.11532   0.00000  Uiso   1.00
C151   C     0.83439   0.12542   0.40758   0.00000  Uiso   1.00
C152   C     0.83228   0.20792   0.09242   0.00000  Uiso   1.00
C153   C     0.83421   0.12510   0.45366   0.00000  Uiso   1.00
C154   C     0.83246   0.20824   0.04634   0.00000  Uiso   1.00
C155   C     0.83347   0.16667   0.47682   0.00000  Uiso   1.00
C156   C     0.83320   0.16666   0.02317   0.00000  Uiso   1.00
C157   C     0.83298   0.20825   0.45365   0.00000  Uiso   1.00
C158   C     0.83369   0.12509   0.04635   0.00000  Uiso   1.00
C159   C     0.83468   0.08396   0.47687   0.00000  Uiso   1.00
C160   C     0.83199   0.24937   0.02313   0.00000  Uiso   1.00
C161   C     0.83441   0.08395   0.02316   0.00000  Uiso   1.00
C162   C     0.83225   0.24938   0.47684   0.00000  Uiso   1.00
H163   H     0.83272   0.23983   0.38963   0.00000  Uiso   1.00
H164   H     0.83395   0.09350   0.11037   0.00000  Uiso   1.00
H165   H     0.83492   0.09352   0.38965   0.00000  Uiso   1.00
H166   H     0.83174   0.23981   0.11035   0.00000  Uiso   1.00
H167   H     0.83524   0.05191   0.45926   0.00000  Uiso   1.00
H168   H     0.83143   0.28142   0.04074   0.00000  Uiso   1.00
H169   H     0.83479   0.05190   0.04079   0.00000  Uiso   1.00
H170   H     0.83188   0.28143   0.45921   0.00000  Uiso   1.00
C171   C     0.68831   0.16173   0.20918   0.00000  Uiso   1.00
C172   C     0.97835   0.17161   0.29082   0.00000  Uiso   1.00
C173   C     0.97823   0.16385   0.20906   0.00000  Uiso   1.00
C174   C     0.68843   0.16949   0.29095   0.00000  Uiso   1.00
C175   C     0.95734   0.16854   0.24989   0.00000  Uiso   1.00
C176   C     0.70933   0.16480   0.25012   0.00000  Uiso   1.00
C177   C     0.85711   0.02442   0.27991   0.00000  Uiso   1.00
C178   C     0.80956   0.30891   0.22009   0.00000  Uiso   1.00
C179   C     0.80955   0.02355   0.22010   0.00000  Uiso   1.00
C180   C     0.85711   0.30978   0.27990   0.00000  Uiso   1.00
H181   H     0.87612   0.04295   0.30381   0.00000  Uiso   1.00
H182   H     0.79054   0.29038   0.19619   0.00000  Uiso   1.00
H183   H     0.79054   0.04139   0.19620   0.00000  Uiso   1.00
H184   H     0.87613   0.29194   0.30380   0.00000  Uiso   1.00
N185   N     0.83333   0.28573   0.25000   0.00000  Uiso   1.00
N186   N     0.83333   0.04760   0.25000   0.00000  Uiso   1.00
N187   N     0.71108   0.15841   0.16795   0.00000  Uiso   1.00
O188   O     0.73685   0.12533   0.16150   0.00000  Uiso   1.00
O189   O     0.70443   0.18706   0.13588   0.00000  Uiso   1.00
N190   N     0.95559   0.17492   0.33205   0.00000  Uiso   1.00
O191   O     0.92980   0.20799   0.33850   0.00000  Uiso   1.00
O192   O     0.96226   0.14628   0.36413   0.00000  Uiso   1.00
N193   N     0.95535   0.16026   0.16792   0.00000  Uiso   1.00
O194   O     0.92946   0.19178   0.15643   0.00000  Uiso   1.00
O195   O     0.96207   0.12683   0.14073   0.00000  Uiso   1.00
N196   N     0.71132   0.17308   0.33208   0.00000  Uiso   1.00
O197   O     0.73721   0.14157   0.34358   0.00000  Uiso   1.00
O198   O     0.70460   0.20653   0.35927   0.00000  Uiso   1.00
O199   O     0.10559   0.53821   0.24999   0.00000  Uiso   1.00
O200   O     0.22774   0.46179   0.25000   0.00000  Uiso   1.00
O201   O     0.22774   0.53821   0.25000   0.00000  Uiso   1.00
O202   O     0.10559   0.46179   0.24999   0.00000  Uiso   1.00
C203   C     0.08680   0.49954   0.24994   0.00000  Uiso   1.00
C204   C     0.24654   0.50046   0.25006   0.00000  Uiso   1.00
O205   O     0.16666   0.53823   0.18392   0.00000  Uiso   1.00
O206   O     0.16667   0.46177   0.31607   0.00000  Uiso   1.00
O207   O     0.16667   0.53823   0.31607   0.00000  Uiso   1.00
O208   O     0.16666   0.46177   0.18392   0.00000  Uiso   1.00
C209   C     0.16643   0.50000   0.16327   0.00000  Uiso   1.00
C210   C     0.16690   0.50000   0.33673   0.00000  Uiso   1.00
Zn211  Zn    0.16667   0.55104   0.25000   0.00000  Uiso   1.00
Zn212  Zn    0.16667   0.44896   0.25000   0.00000  Uiso   1.00
C213   C     0.16649   0.54127   0.40757   0.00000  Uiso   1.00
C214   C     0.16685   0.45873   0.09243   0.00000  Uiso   1.00
C215   C     0.16709   0.50001   0.38468   0.00000  Uiso   1.00
C216   C     0.16624   0.49999   0.11532   0.00000  Uiso   1.00
C217   C     0.16772   0.45875   0.40758   0.00000  Uiso   1.00
C218   C     0.16561   0.54125   0.09242   0.00000  Uiso   1.00
C219   C     0.16754   0.45843   0.45366   0.00000  Uiso   1.00
C220   C     0.16579   0.54157   0.04634   0.00000  Uiso   1.00
C221   C     0.16680   0.50000   0.47682   0.00000  Uiso   1.00
C222   C     0.16653   0.50000   0.02317   0.00000  Uiso   1.00
C223   C     0.16631   0.54158   0.45365   0.00000  Uiso   1.00
C224   C     0.16702   0.45842   0.04635   0.00000  Uiso   1.00
C225   C     0.16801   0.41729   0.47687   0.00000  Uiso   1.00
C226   C     0.16532   0.58271   0.02313   0.00000  Uiso   1.00
C227   C     0.16775   0.41729   0.02316   0.00000  Uiso   1.00
C228   C     0.16559   0.58271   0.47684   0.00000  Uiso   1.00
H229   H     0.16605   0.57317   0.38963   0.00000  Uiso   1.00
H230   H     0.16728   0.42683   0.11037   0.00000  Uiso   1.00
H231   H     0.16826   0.42686   0.38965   0.00000  Uiso   1.00
H232   H     0.16508   0.57314   0.11035   0.00000  Uiso   1.00
H233   H     0.16857   0.38525   0.45926   0.00000  Uiso   1.00
H234   H     0.16476   0.61475   0.04074   0.00000  Uiso   1.00
H235   H     0.16812   0.38524   0.04079   0.00000  Uiso   1.00
H236   H     0.16521   0.61476   0.45921   0.00000  Uiso   1.00
C237   C     0.02165   0.49506   0.20918   0.00000  Uiso   1.00
C238   C     0.31169   0.50494   0.29082   0.00000  Uiso   1.00
C239   C     0.31157   0.49718   0.20906   0.00000  Uiso   1.00
C240   C     0.02177   0.50282   0.29095   0.00000  Uiso   1.00
C241   C     0.29067   0.50187   0.24989   0.00000  Uiso   1.00
C242   C     0.04267   0.49813   0.25012   0.00000  Uiso   1.00
C243   C     0.19044   0.35775   0.27991   0.00000  Uiso   1.00
C244   C     0.14289   0.64225   0.22009   0.00000  Uiso   1.00
C245   C     0.14289   0.35689   0.22010   0.00000  Uiso   1.00
C246   C     0.19045   0.64311   0.27990   0.00000  Uiso   1.00
H247   H     0.20946   0.37629   0.30381   0.00000  Uiso   1.00
H248   H     0.12388   0.62371   0.19619   0.00000  Uiso   1.00
H249   H     0.12387   0.37473   0.19620   0.00000  Uiso   1.00
H250   H     0.20946   0.62527   0.30380   0.00000  Uiso   1.00
N251   N     0.16667   0.61907   0.25000   0.00000  Uiso   1.00
N252   N     0.16667   0.38093   0.25000   0.00000  Uiso   1.00
N253   N     0.04441   0.49174   0.16795   0.00000  Uiso   1.00
O254   O     0.07018   0.45867   0.16150   0.00000  Uiso   1.00
O255   O     0.03776   0.52039   0.13588   0.00000  Uiso   1.00
N256   N     0.28892   0.50826   0.33205   0.00000  Uiso   1.00
O257   O     0.26314   0.54132   0.33850   0.00000  Uiso   1.00
O258   O     0.29559   0.47962   0.36413   0.00000  Uiso   1.00
N259   N     0.28868   0.49359   0.16792   0.00000  Uiso   1.00
O260   O     0.26279   0.52511   0.15643   0.00000  Uiso   1.00
O261   O     0.29541   0.46016   0.14073   0.00000  Uiso   1.00
N262   N     0.04465   0.50642   0.33208   0.00000  Uiso   1.00
O263   O     0.07054   0.47490   0.34358   0.00000  Uiso   1.00
O264   O     0.03793   0.53986   0.35927   0.00000  Uiso   1.00
O265   O     0.43892   0.53821   0.24999   0.00000  Uiso   1.00
O266   O     0.56108   0.46179   0.25000   0.00000  Uiso   1.00
O267   O     0.56108   0.53821   0.25000   0.00000  Uiso   1.00
O268   O     0.43892   0.46179   0.24999   0.00000  Uiso   1.00
C269   C     0.42013   0.49954   0.24994   0.00000  Uiso   1.00
C270   C     0.57987   0.50046   0.25006   0.00000  Uiso   1.00
O271   O     0.49999   0.53823   0.18392   0.00000  Uiso   1.00
O272   O     0.50001   0.46177   0.31607   0.00000  Uiso   1.00
O273   O     0.50001   0.53823   0.31607   0.00000  Uiso   1.00
O274   O     0.49999   0.46177   0.18392   0.00000  Uiso   1.00
C275   C     0.49977   0.50000   0.16327   0.00000  Uiso   1.00
C276   C     0.50023   0.50000   0.33673   0.00000  Uiso   1.00
Zn277  Zn    0.50000   0.55104   0.25000   0.00000  Uiso   1.00
Zn278  Zn    0.50000   0.44896   0.25000   0.00000  Uiso   1.00
C279   C     0.49982   0.54127   0.40757   0.00000  Uiso   1.00
C280   C     0.50018   0.45873   0.09243   0.00000  Uiso   1.00
C281   C     0.50043   0.50001   0.38468   0.00000  Uiso   1.00
C282   C     0.49957   0.49999   0.11532   0.00000  Uiso   1.00
C283   C     0.50105   0.45875   0.40758   0.00000  Uiso   1.00
C284   C     0.49895   0.54125   0.09242   0.00000  Uiso   1.00
C285   C     0.50087   0.45843   0.45366   0.00000  Uiso   1.00
C286   C     0.49913   0.54157   0.04634   0.00000  Uiso   1.00
C287   C     0.50013   0.50000   0.47682   0.00000  Uiso   1.00
C288   C     0.49987   0.50000   0.02317   0.00000  Uiso   1.00
C289   C     0.49965   0.54158   0.45365   0.00000  Uiso   1.00
C290   C     0.50035   0.45842   0.04635   0.00000  Uiso   1.00
C291   C     0.50135   0.41729   0.47687   0.00000  Uiso   1.00
C292   C     0.49865   0.58271   0.02313   0.00000  Uiso   1.00
C293   C     0.50108   0.41729   0.02316   0.00000  Uiso   1.00
C294   C     0.49892   0.58271   0.47684   0.00000  Uiso   1.00
H295   H     0.49938   0.57317   0.38963   0.00000  Uiso   1.00
H296   H     0.50062   0.42683   0.11037   0.00000  Uiso   1.00
H297   H     0.50159   0.42686   0.38965   0.00000  Uiso   1.00
H298   H     0.49841   0.57314   0.11035   0.00000  Uiso   1.00
H299   H     0.50190   0.38525   0.45926   0.00000  Uiso   1.00
H300   H     0.49810   0.61475   0.04074   0.00000  Uiso   1.00
H301   H     0.50146   0.38524   0.04079   0.00000  Uiso   1.00
H302   H     0.49854   0.61476   0.45921   0.00000  Uiso   1.00
C303   C     0.35498   0.49506   0.20918   0.00000  Uiso   1.00
C304   C     0.64502   0.50494   0.29082   0.00000  Uiso   1.00
C305   C     0.64490   0.49718   0.20906   0.00000  Uiso   1.00
C306   C     0.35510   0.50282   0.29095   0.00000  Uiso   1.00
C307   C     0.62400   0.50187   0.24989   0.00000  Uiso   1.00
C308   C     0.37600   0.49813   0.25012   0.00000  Uiso   1.00
C309   C     0.52378   0.35775   0.27991   0.00000  Uiso   1.00
C310   C     0.47622   0.64225   0.22009   0.00000  Uiso   1.00
C311   C     0.47622   0.35689   0.22010   0.00000  Uiso   1.00
C312   C     0.52378   0.64311   0.27990   0.00000  Uiso   1.00
H313   H     0.54279   0.37629   0.30381   0.00000  Uiso   1.00
H314   H     0.45721   0.62371   0.19619   0.00000  Uiso   1.00
H315   H     0.45720   0.37473   0.19620   0.00000  Uiso   1.00
H316   H     0.54280   0.62527   0.30380   0.00000  Uiso   1.00
N317   N     0.50000   0.61907   0.25000   0.00000  Uiso   1.00
N318   N     0.50000   0.38093   0.25000   0.00000  Uiso   1.00
N319   N     0.37775   0.49174   0.16795   0.00000  Uiso   1.00
O320   O     0.40352   0.45867   0.16150   0.00000  Uiso   1.00
O321   O     0.37109   0.52039   0.13588   0.00000  Uiso   1.00
N322   N     0.62225   0.50826   0.33205   0.00000  Uiso   1.00
O323   O     0.59647   0.54132   0.33850   0.00000  Uiso   1.00
O324   O     0.62892   0.47962   0.36413   0.00000  Uiso   1.00
N325   N     0.62201   0.49359   0.16792   0.00000  Uiso   1.00
O326   O     0.59613   0.52511   0.15643   0.00000  Uiso   1.00
O327   O     0.62874   0.46016   0.14073   0.00000  Uiso   1.00
N328   N     0.37799   0.50642   0.33208   0.00000  Uiso   1.00
O329   O     0.40387   0.47490   0.34358   0.00000  Uiso   1.00
O330   O     0.37127   0.53986   0.35927   0.00000  Uiso   1.00
O331   O     0.77226   0.53821   0.24999   0.00000  Uiso   1.00
O332   O     0.89441   0.46179   0.25000   0.00000  Uiso   1.00
O333   O     0.89441   0.53821   0.25000   0.00000  Uiso   1.00
O334   O     0.77226   0.46179   0.24999   0.00000  Uiso   1.00
C335   C     0.75346   0.49954   0.24994   0.00000  Uiso   1.00
C336   C     0.91320   0.50046   0.25006   0.00000  Uiso   1.00
O337   O     0.83333   0.53823   0.18392   0.00000  Uiso   1.00
O338   O     0.83334   0.46177   0.31607   0.00000  Uiso   1.00
O339   O     0.83334   0.53823   0.31607   0.00000  Uiso   1.00
O340   O     0.83333   0.46177   0.18392   0.00000  Uiso   1.00
C341   C     0.83310   0.50000   0.16327   0.00000  Uiso   1.00
C342   C     0.83357   0.50000   0.33673   0.00000  Uiso   1.00
Zn343  Zn    0.83333   0.55104   0.25000   0.00000  Uiso   1.00
Zn344  Zn    0.83333   0.44896   0.25000   0.00000  Uiso   1.00
C345   C     0.83315   0.54127   0.40757   0.00000  Uiso   1.00
C346   C     0.83351   0.45873   0.09243   0.00000  Uiso   1.00
C347   C     0.83376   0.50001   0.38468   0.00000  Uiso   1.00
C348   C     0.83291   0.49999   0.11532   0.00000  Uiso   1.00
C349   C     0.83439   0.45875   0.40758   0.00000  Uiso   1.00
C350   C     0.83228   0.54125   0.09242   0.00000  Uiso   1.00
C351   C     0.83421   0.45843   0.45366   0.00000  Uiso   1.00
C352   C     0.83246   0.54157   0.04634   0.00000  Uiso   1.00
C353   C     0.83347   0.50000   0.47682   0.00000  Uiso   1.00
C354   C     0.83320   0.50000   0.02317   0.00000  Uiso   1.00
C355   C     0.83298   0.54158   0.45365   0.00000  Uiso   1.00
C356   C     0.83369   0.45842   0.04635   0.00000  Uiso   1.00
C357   C     0.83468   0.41729   0.47687   0.00000  Uiso   1.00
C358   C     0.83199   0.58271   0.02313   0.00000  Uiso   1.00
C359   C     0.83441   0.41729   0.02316   0.00000  Uiso   1.00
C360   C     0.83225   0.58271   0.47684   0.00000  Uiso   1.00
H361   H     0.83272   0.57317   0.38963   0.00000  Uiso   1.00
H362   H     0.83395   0.42683   0.11037   0.00000  Uiso   1.00
H363   H     0.83492   0.42686   0.38965   0.00000  Uiso   1.00
H364   H     0.83174   0.57314   0.11035   0.00000  Uiso   1.00
H365   H     0.83524   0.38525   0.45926   0.00000  Uiso   1.00
H366   H     0.83143   0.61475   0.04074   0.00000  Uiso   1.00
H367   H     0.83479   0.38524   0.04079   0.00000  Uiso   1.00
H368   H     0.83188   0.61476   0.45921   0.00000  Uiso   1.00
C369   C     0.68831   0.49506   0.20918   0.00000  Uiso   1.00
C370   C     0.97835   0.50494   0.29082   0.00000  Uiso   1.00
C371   C     0.97823   0.49718   0.20906   0.00000  Uiso   1.00
C372   C     0.68843   0.50282   0.29095   0.00000  Uiso   1.00
C373   C     0.95734   0.50187   0.24989   0.00000  Uiso   1.00
C374   C     0.70933   0.49813   0.25012   0.00000  Uiso   1.00
C375   C     0.85711   0.35775   0.27991   0.00000  Uiso   1.00
C376   C     0.80956   0.64225   0.22009   0.00000  Uiso   1.00
C377   C     0.80955   0.35689   0.22010   0.00000  Uiso   1.00
C378   C     0.85711   0.64311   0.27990   0.00000  Uiso   1.00
H379   H     0.87612   0.37629   0.30381   0.00000  Uiso   1.00
H380   H     0.79054   0.62371   0.19619   0.00000  Uiso   1.00
H381   H     0.79054   0.37473   0.19620   0.00000  Uiso   1.00
H382   H     0.87613   0.62527   0.30380   0.00000  Uiso   1.00
N383   N     0.83333   0.61907   0.25000   0.00000  Uiso   1.00
N384   N     0.83333   0.38093   0.25000   0.00000  Uiso   1.00
N385   N     0.71108   0.49174   0.16795   0.00000  Uiso   1.00
O386   O     0.73685   0.45867   0.16150   0.00000  Uiso   1.00
O387   O     0.70443   0.52039   0.13588   0.00000  Uiso   1.00
N388   N     0.95559   0.50826   0.33205   0.00000  Uiso   1.00
O389   O     0.92980   0.54132   0.33850   0.00000  Uiso   1.00
O390   O     0.96226   0.47962   0.36413   0.00000  Uiso   1.00
N391   N     0.95535   0.49359   0.16792   0.00000  Uiso   1.00
O392   O     0.92946   0.52511   0.15643   0.00000  Uiso   1.00
O393   O     0.96207   0.46016   0.14073   0.00000  Uiso   1.00
N394   N     0.71132   0.50642   0.33208   0.00000  Uiso   1.00
O395   O     0.73721   0.47490   0.34358   0.00000  Uiso   1.00
O396   O     0.70460   0.53986   0.35927   0.00000  Uiso   1.00
O397   O     0.10559   0.87154   0.24999   0.00000  Uiso   1.00
O398   O     0.22774   0.79513   0.25000   0.00000  Uiso   1.00
O399   O     0.22774   0.87154   0.25000   0.00000  Uiso   1.00
O400   O     0.10559   0.79513   0.24999   0.00000  Uiso   1.00
C401   C     0.08680   0.83288   0.24994   0.00000  Uiso   1.00
C402   C     0.24654   0.83379   0.25006   0.00000  Uiso   1.00
O403   O     0.16666   0.87156   0.18392   0.00000  Uiso   1.00
O404   O     0.16667   0.79511   0.31607   0.00000  Uiso   1.00
O405   O     0.16667   0.87156   0.31607   0.00000  Uiso   1.00
O406   O     0.16666   0.79511   0.18392   0.00000  Uiso   1.00
C407   C     0.16643   0.83333   0.16327   0.00000  Uiso   1.00
C408   C     0.16690   0.83334   0.33673   0.00000  Uiso   1.00
Zn409  Zn    0.16667   0.88437   0.25000   0.00000  Uiso   1.00
Zn410  Zn    0.16667   0.78229   0.25000   0.00000  Uiso   1.00
C411   C     0.16649   0.87460   0.40757   0.00000  Uiso   1.00
C412   C     0.16685   0.79206   0.09243   0.00000  Uiso   1.00
C413   C     0.16709   0.83334   0.38468   0.00000  Uiso   1.00
C414   C     0.16624   0.83332   0.11532   0.00000  Uiso   1.00
C415   C     0.16772   0.79208   0.40758   0.00000  Uiso   1.00
C416   C     0.16561   0.87458   0.09242   0.00000  Uiso   1.00
C417   C     0.16754   0.79176   0.45366   0.00000  Uiso   1.00
C418   C     0.16579   0.87490   0.04634   0.00000  Uiso   1.00
C419   C     0.16680   0.83334   0.47682   0.00000  Uiso   1.00
C420   C     0.16653   0.83333   0.02317   0.00000  Uiso   1.00
C421   C     0.16631   0.87492   0.45365   0.00000  Uiso   1.00
C422   C     0.16702   0.79175   0.04635   0.00000  Uiso   1.00
C423   C     0.16801   0.75063   0.47687   0.00000  Uiso   1.00
C424   C     0.16532   0.91604   0.02313   0.00000  Uiso   1.00
C425   C     0.16775   0.75062   0.02316   0.00000  Uiso   1.00
C426   C     0.16559   0.91605   0.47684   0.00000  Uiso   1.00
H427   H     0.16605   0.90650   0.38963   0.00000  Uiso   1.00
H428   H     0.16728   0.76017   0.11037   0.00000  Uiso   1.00
H429   H     0.16826   0.76019   0.38965   0.00000  Uiso   1.00
H430   H     0.16508   0.90648   0.11035   0.00000  Uiso   1.00
H431   H     0.16857   0.71858   0.45926   0.00000  Uiso   1.00
H432   H     0.16476   0.94809   0.04074   0.00000  Uiso   1.00
H433   H     0.16812   0.71857   0.04079   0.00000  Uiso   1.00
H434   H     0.16521   0.94810   0.45921   0.00000  Uiso   1.00
C435   C     0.02165   0.82839   0.20918   0.00000  Uiso   1.00
C436   C     0.31169   0.83827   0.29082   0.00000  Uiso   1.00
C437   C     0.31157   0.83052   0.20906   0.00000  Uiso   1.00
C438   C     0.02177   0.83615   0.29095   0.00000  Uiso   1.00
C439   C     0.29067   0.83520   0.24989   0.00000  Uiso   1.00
C440   C     0.04267   0.83146   0.25012   0.00000  Uiso   1.00
C441   C     0.19044   0.69109   0.27991   0.00000  Uiso   1.00
C442   C     0.14289   0.97558   0.22009   0.00000  Uiso   1.00
C443   C     0.14289   0.69022   0.22010   0.00000  Uiso   1.00
C444   C     0.19045   0.97645   0.27990   0.00000  Uiso   1.00
H445   H     0.20946   0.70962   0.30381   0.00000  Uiso   1.00
H446   H     0.12388   0.95705   0.19619   0.00000  Uiso   1.00
H447   H     0.12387   0.70806   0.19620   0.00000  Uiso   1.00
H448   H     0.20946   0.95861   0.30380   0.00000  Uiso   1.00
N449   N     0.16667   0.95240   0.25000   0.00000  Uiso   1.00
N450   N     0.16667   0.71427   0.25000   0.00000  Uiso   1.00
N451   N     0.04441   0.82507   0.16795   0.00000  Uiso   1.00
O452   O     0.07018   0.79200   0.16150   0.00000  Uiso   1.00
O453   O     0.03776   0.85373   0.13588   0.00000  Uiso   1.00
N454   N     0.28892   0.84159   0.33205   0.00000  Uiso   1.00
O455   O     0.26314   0.87465   0.33850   0.00000  Uiso   1.00
O456   O     0.29559   0.81295   0.36413   0.00000  Uiso   1.00
N457   N     0.28868   0.82693   0.16792   0.00000  Uiso   1.00
O458   O     0.26279   0.85844   0.15643   0.00000  Uiso   1.00
O459   O     0.29541   0.79349   0.14073   0.00000  Uiso   1.00
N460   N     0.04465   0.83975   0.33208   0.00000  Uiso   1.00
O461   O     0.07054   0.80823   0.34358   0.00000  Uiso   1.00
O462   O     0.03793   0.87319   0.35927   0.00000  Uiso   1.00
O463   O     0.43892   0.87154   0.24999   0.00000  Uiso   1.00
O464   O     0.56108   0.79513   0.25000   0.00000  Uiso   1.00
O465   O     0.56108   0.87154   0.25000   0.00000  Uiso   1.00
O466   O     0.43892   0.79513   0.24999   0.00000  Uiso   1.00
C467   C     0.42013   0.83288   0.24994   0.00000  Uiso   1.00
C468   C     0.57987   0.83379   0.25006   0.00000  Uiso   1.00
O469   O     0.49999   0.87156   0.18392   0.00000  Uiso   1.00
O470   O     0.50001   0.79511   0.31607   0.00000  Uiso   1.00
O471   O     0.50001   0.87156   0.31607   0.00000  Uiso   1.00
O472   O     0.49999   0.79511   0.18392   0.00000  Uiso   1.00
C473   C     0.49977   0.83333   0.16327   0.00000  Uiso   1.00
C474   C     0.50023   0.83334   0.33673   0.00000  Uiso   1.00
Zn475  Zn    0.50000   0.88437   0.25000   0.00000  Uiso   1.00
Zn476  Zn    0.50000   0.78229   0.25000   0.00000  Uiso   1.00
C477   C     0.49982   0.87460   0.40757   0.00000  Uiso   1.00
C478   C     0.50018   0.79206   0.09243   0.00000  Uiso   1.00
C479   C     0.50043   0.83334   0.38468   0.00000  Uiso   1.00
C480   C     0.49957   0.83332   0.11532   0.00000  Uiso   1.00
C481   C     0.50105   0.79208   0.40758   0.00000  Uiso   1.00
C482   C     0.49895   0.87458   0.09242   0.00000  Uiso   1.00
C483   C     0.50087   0.79176   0.45366   0.00000  Uiso   1.00
C484   C     0.49913   0.87490   0.04634   0.00000  Uiso   1.00
C485   C     0.50013   0.83334   0.47682   0.00000  Uiso   1.00
C486   C     0.49987   0.83333   0.02317   0.00000  Uiso   1.00
C487   C     0.49965   0.87492   0.45365   0.00000  Uiso   1.00
C488   C     0.50035   0.79175   0.04635   0.00000  Uiso   1.00
C489   C     0.50135   0.75063   0.47687   0.00000  Uiso   1.00
C490   C     0.49865   0.91604   0.02313   0.00000  Uiso   1.00
C491   C     0.50108   0.75062   0.02316   0.00000  Uiso   1.00
C492   C     0.49892   0.91605   0.47684   0.00000  Uiso   1.00
H493   H     0.49938   0.90650   0.38963   0.00000  Uiso   1.00
H494   H     0.50062   0.76017   0.11037   0.00000  Uiso   1.00
H495   H     0.50159   0.76019   0.38965   0.00000  Uiso   1.00
H496   H     0.49841   0.90648   0.11035   0.00000  Uiso   1.00
H497   H     0.50190   0.71858   0.45926   0.00000  Uiso   1.00
H498   H     0.49810   0.94809   0.04074   0.00000  Uiso   1.00
H499   H     0.50146   0.71857   0.04079   0.00000  Uiso   1.00
H500   H     0.49854   0.94810   0.45921   0.00000  Uiso   1.00
C501   C     0.35498   0.82839   0.20918   0.00000  Uiso   1.00
C502   C     0.64502   0.83827   0.29082   0.00000  Uiso   1.00
C503   C     0.64490   0.83052   0.20906   0.00000  Uiso   1.00
C504   C     0.35510   0.83615   0.29095   0.00000  Uiso   1.00
C505   C     0.62400   0.83520   0.24989   0.00000  Uiso   1.00
C506   C     0.37600   0.83146   0.25012   0.00000  Uiso   1.00
C507   C     0.52378   0.69109   0.27991   0.00000  Uiso   1.00
C508   C     0.47622   0.97558   0.22009   0.00000  Uiso   1.00
C509   C     0.47622   0.69022   0.22010   0.00000  Uiso   1.00
C510   C     0.52378   0.97645   0.27990   0.00000  Uiso   1.00
H511   H     0.54279   0.70962   0.30381   0.00000  Uiso   1.00
H512   H     0.45721   0.95705   0.19619   0.00000  Uiso   1.00
H513   H     0.45720   0.70806   0.19620   0.00000  Uiso   1.00
H514   H     0.54280   0.95861   0.30380   0.00000  Uiso   1.00
N515   N     0.50000   0.95240   0.25000   0.00000  Uiso   1.00
N516   N     0.50000   0.71427   0.25000   0.00000  Uiso   1.00
N517   N     0.37775   0.82507   0.16795   0.00000  Uiso   1.00
O518   O     0.40352   0.79200   0.16150   0.00000  Uiso   1.00
O519   O     0.37109   0.85373   0.13588   0.00000  Uiso   1.00
N520   N     0.62225   0.84159   0.33205   0.00000  Uiso   1.00
O521   O     0.59647   0.87465   0.33850   0.00000  Uiso   1.00
O522   O     0.62892   0.81295   0.36413   0.00000  Uiso   1.00
N523   N     0.62201   0.82693   0.16792   0.00000  Uiso   1.00
O524   O     0.59613   0.85844   0.15643   0.00000  Uiso   1.00
O525   O     0.62874   0.79349   0.14073   0.00000  Uiso   1.00
N526   N     0.37799   0.83975   0.33208   0.00000  Uiso   1.00
O527   O     0.40387   0.80823   0.34358   0.00000  Uiso   1.00
O528   O     0.37127   0.87319   0.35927   0.00000  Uiso   1.00
O529   O     0.77226   0.87154   0.24999   0.00000  Uiso   1.00
O530   O     0.89441   0.79513   0.25000   0.00000  Uiso   1.00
O531   O     0.89441   0.87154   0.25000   0.00000  Uiso   1.00
O532   O     0.77226   0.79513   0.24999   0.00000  Uiso   1.00
C533   C     0.75346   0.83288   0.24994   0.00000  Uiso   1.00
C534   C     0.91320   0.83379   0.25006   0.00000  Uiso   1.00
O535   O     0.83333   0.87156   0.18392   0.00000  Uiso   1.00
O536   O     0.83334   0.79511   0.31607   0.00000  Uiso   1.00
O537   O     0.83334   0.87156   0.31607   0.00000  Uiso   1.00
O538   O     0.83333   0.79511   0.18392   0.00000  Uiso   1.00
C539   C     0.83310   0.83333   0.16327   0.00000  Uiso   1.00
C540   C     0.83357   0.83334   0.33673   0.00000  Uiso   1.00
Zn541  Zn    0.83333   0.88437   0.25000   0.00000  Uiso   1.00
Zn542  Zn    0.83333   0.78229   0.25000   0.00000  Uiso   1.00
C543   C     0.83315   0.87460   0.40757   0.00000  Uiso   1.00
C544   C     0.83351   0.79206   0.09243   0.00000  Uiso   1.00
C545   C     0.83376   0.83334   0.38468   0.00000  Uiso   1.00
C546   C     0.83291   0.83332   0.11532   0.00000  Uiso   1.00
C547   C     0.83439   0.79208   0.40758   0.00000  Uiso   1.00
C548   C     0.83228   0.87458   0.09242   0.00000  Uiso   1.00
C549   C     0.83421   0.79176   0.45366   0.00000  Uiso   1.00
C550   C     0.83246   0.87490   0.04634   0.00000  Uiso   1.00
C551   C     0.83347   0.83334   0.47682   0.00000  Uiso   1.00
C552   C     0.83320   0.83333   0.02317   0.00000  Uiso   1.00
C553   C     0.83298   0.87492   0.45365   0.00000  Uiso   1.00
C554   C     0.83369   0.79175   0.04635   0.00000  Uiso   1.00
C555   C     0.83468   0.75063   0.47687   0.00000  Uiso   1.00
C556   C     0.83199   0.91604   0.02313   0.00000  Uiso   1.00
C557   C     0.83441   0.75062   0.02316   0.00000  Uiso   1.00
C558   C     0.83225   0.91605   0.47684   0.00000  Uiso   1.00
H559   H     0.83272   0.90650   0.38963   0.00000  Uiso   1.00
H560   H     0.83395   0.76017   0.11037   0.00000  Uiso   1.00
H561   H     0.83492   0.76019   0.38965   0.00000  Uiso   1.00
H562   H     0.83174   0.90648   0.11035   0.00000  Uiso   1.00
H563   H     0.83524   0.71858   0.45926   0.00000  Uiso   1.00
H564   H     0.83143   0.94809   0.04074   0.00000  Uiso   1.00
H565   H     0.83479   0.71857   0.04079   0.00000  Uiso   1.00
H566   H     0.83188   0.94810   0.45921   0.00000  Uiso   1.00
C567   C     0.68831   0.82839   0.20918   0.00000  Uiso   1.00
C568   C     0.97835   0.83827   0.29082   0.00000  Uiso   1.00
C569   C     0.97823   0.83052   0.20906   0.00000  Uiso   1.00
C570   C     0.68843   0.83615   0.29095   0.00000  Uiso   1.00
C571   C     0.95734   0.83520   0.24989   0.00000  Uiso   1.00
C572   C     0.70933   0.83146   0.25012   0.00000  Uiso   1.00
C573   C     0.85711   0.69109   0.27991   0.00000  Uiso   1.00
C574   C     0.80956   0.97558   0.22009   0.00000  Uiso   1.00
C575   C     0.80955   0.69022   0.22010   0.00000  Uiso   1.00
C576   C     0.85711   0.97645   0.27990   0.00000  Uiso   1.00
H577   H     0.87612   0.70962   0.30381   0.00000  Uiso   1.00
H578   H     0.79054   0.95705   0.19619   0.00000  Uiso   1.00
H579   H     0.79054   0.70806   0.19620   0.00000  Uiso   1.00
H580   H     0.87613   0.95861   0.30380   0.00000  Uiso   1.00
N581   N     0.83333   0.95240   0.25000   0.00000  Uiso   1.00
N582   N     0.83333   0.71427   0.25000   0.00000  Uiso   1.00
N583   N     0.71108   0.82507   0.16795   0.00000  Uiso   1.00
O584   O     0.73685   0.79200   0.16150   0.00000  Uiso   1.00
O585   O     0.70443   0.85373   0.13588   0.00000  Uiso   1.00
N586   N     0.95559   0.84159   0.33205   0.00000  Uiso   1.00
O587   O     0.92980   0.87465   0.33850   0.00000  Uiso   1.00
O588   O     0.96226   0.81295   0.36413   0.00000  Uiso   1.00
N589   N     0.95535   0.82693   0.16792   0.00000  Uiso   1.00
O590   O     0.92946   0.85844   0.15643   0.00000  Uiso   1.00
O591   O     0.96207   0.79349   0.14073   0.00000  Uiso   1.00
N592   N     0.71132   0.83975   0.33208   0.00000  Uiso   1.00
O593   O     0.73721   0.80823   0.34358   0.00000  Uiso   1.00
O594   O     0.70460   0.87319   0.35927   0.00000  Uiso   1.00
O595   O     0.10559   0.20487   0.74999   0.00000  Uiso   1.00
O596   O     0.22774   0.12846   0.75000   0.00000  Uiso   1.00
O597   O     0.22774   0.20487   0.75000   0.00000  Uiso   1.00
O598   O     0.10559   0.12846   0.74999   0.00000  Uiso   1.00
C599   C     0.08680   0.16621   0.74994   0.00000  Uiso   1.00
C600   C     0.24654   0.16712   0.75006   0.00000  Uiso   1.00
O601   O     0.16666   0.20489   0.68392   0.00000  Uiso   1.00
O602   O     0.16667   0.12844   0.81607   0.00000  Uiso   1.00
O603   O     0.16667   0.20489   0.81607   0.00000  Uiso   1.00
O604   O     0.16666   0.12844   0.68392   0.00000  Uiso   1.00
C605   C     0.16643   0.16666   0.66327   0.00000  Uiso   1.00
C606   C     0.16690   0.16667   0.83673   0.00000  Uiso   1.00
Zn607  Zn    0.16667   0.21771   0.75000   0.00000  Uiso   1.00
Zn608  Zn    0.16667   0.11563   0.75000   0.00000  Uiso   1.00
C609   C     0.16649   0.20794   0.90757   0.00000  Uiso   1.00
C610   C     0.16685   0.12540   0.59243   0.00000  Uiso   1.00
C611   C     0.16709   0.16668   0.88468   0.00000  Uiso   1.00
C612   C     0.16624   0.16666   0.61532   0.00000  Uiso   1.00
C613   C     0.16772   0.12542   0.90758   0.00000  Uiso   1.00
C614   C     0.16561   0.20792   0.59242   0.00000  Uiso   1.00
C615   C     0.16754   0.12510   0.95366   0.00000  Uiso   1.00
C616   C     0.16579   0.20824   0.54634   0.00000  Uiso   1.00
C617   C     0.16680   0.16667   0.97682   0.00000  Uiso   1.00
C618   C     0.16653   0.16666   0.52317   0.00000  Uiso   1.00
C619   C     0.16631   0.20825   0.95365   0.00000  Uiso   1.00
C620   C     0.16702   0.12509   0.54635   0.00000  Uiso   1.00
C621   C     0.16801   0.08396   0.97687   0.00000  Uiso   1.00
C622   C     0.16532   0.24937   0.52313   0.00000  Uiso   1.00
C623   C     0.16775   0.08395   0.52316   0.00000  Uiso   1.00
C624   C     0.16559   0.24938   0.97684   0.00000  Uiso   1.00
H625   H     0.16605   0.23983   0.88963   0.00000  Uiso   1.00
H626   H     0.16728   0.09350   0.61037   0.00000  Uiso   1.00
H627   H     0.16826   0.09352   0.88965   0.00000  Uiso   1.00
H628   H     0.16508   0.23981   0.61035   0.00000  Uiso   1.00
H629   H     0.16857   0.05191   0.95926   0.00000  Uiso   1.00
H630   H     0.16476   0.28142   0.54074   0.00000  Uiso   1.00
H631   H     0.16812   0.05190   0.54079   0.00000  Uiso   1.00
H632   H     0.16521   0.28143   0.95921   0.00000  Uiso   1.00
C633   C     0.02165   0.16173   0.70918   0.00000  Uiso   1.00
C634   C     0.31169   0.17161   0.79082   0.00000  Uiso   1.00
C635   C     0.31157   0.16385   0.70906   0.00000  Uiso   1.00
C636   C     0.02177   0.16949   0.79095   0.00000  Uiso   1.00
C637   C     0.29067   0.16854   0.74989   0.00000  Uiso   1.00
C638   C     0.04267   0.16480   0.75012   0.00000  Uiso   1.00
C639   C     0.19044   0.02442   0.77991   0.00000  Uiso   1.00
C640   C     0.14289   0.30891   0.72009   0.00000  Uiso   1.00
C641   C     0.14289   0.02355   0.72010   0.00000  Uiso   1.00
C642   C     0.19045   0.30978   0.77990   0.00000  Uiso   1.00
H643   H     0.20946   0.04295   0.80381   0.00000  Uiso   1.00
H644   H     0.12388   0.29038   0.69619   0.00000  Uiso   1.00
H645   H     0.12387   0.04139   0.69620   0.00000  Uiso   1.00
H646   H     0.20946   0.29194   0.80380   0.00000  Uiso   1.00
N647   N     0.16667   0.28573   0.75000   0.00000  Uiso   1.00
N648   N     0.16667   0.04760   0.75000   0.00000  Uiso   1.00
N649   N     0.04441   0.15841   0.66795   0.00000  Uiso   1.00
O650   O     0.07018   0.12533   0.66150   0.00000  Uiso   1.00
O651   O     0.03776   0.18706   0.63588   0.00000  Uiso   1.00
N652   N     0.28892   0.17492   0.83205   0.00000  Uiso   1.00
O653   O     0.26314   0.20799   0.83850   0.00000  Uiso   1.00
O654   O     0.29559   0.14628   0.86413   0.00000  Uiso   1.00
N655   N     0.28868   0.16026   0.66792   0.00000  Uiso   1.00
O656   O     0.26279   0.19178   0.65643   0.00000  Uiso   1.00
O657   O     0.29541   0.12683   0.64073   0.00000  Uiso   1.00
N658   N     0.04465   0.17308   0.83208   0.00000  Uiso   1.00
O659   O     0.07054   0.14157   0.84358   0.00000  Uiso   1.00
O660   O     0.03793   0.20653   0.85927   0.00000  Uiso   1.00
O661   O     0.43892   0.20487   0.74999   0.00000  Uiso   1.00
O662   O     0.56108   0.12846   0.75000   0.00000  Uiso   1.00
O663   O     0.56108   0.20487   0.75000   0.00000  Uiso   1.00
O664   O     0.43892   0.12846   0.74999   0.00000  Uiso   1.00
C665   C     0.42013   0.16621   0.74994   0.00000  Uiso   1.00
C666   C     0.57987   0.16712   0.75006   0.00000  Uiso   1.00
O667   O     0.49999   0.20489   0.68392   0.00000  Uiso   1.00
O668   O     0.50001   0.12844   0.81607   0.00000  Uiso   1.00
O669   O     0.50001   0.20489   0.81607   0.00000  Uiso   1.00
O670   O     0.49999   0.12844   0.68392   0.00000  Uiso   1.00
C671   C     0.49977   0.16666   0.66327   0.00000  Uiso   1.00
C672   C     0.50023   0.16667   0.83673   0.00000  Uiso   1.00
Zn673  Zn    0.50000   0.21771   0.75000   0.00000  Uiso   1.00
Zn674  Zn    0.50000   0.11563   0.75000   0.00000  Uiso   1.00
C675   C     0.49982   0.20794   0.90757   0.00000  Uiso   1.00
C676   C     0.50018   0.12540   0.59243   0.00000  Uiso   1.00
C677   C     0.50043   0.16668   0.88468   0.00000  Uiso   1.00
C678   C     0.49957   0.16666   0.61532   0.00000  Uiso   1.00
C679   C     0.50105   0.12542   0.90758   0.00000  Uiso   1.00
C680   C     0.49895   0.20792   0.59242   0.00000  Uiso   1.00
C681   C     0.50087   0.12510   0.95366   0.00000  Uiso   1.00
C682   C     0.49913   0.20824   0.54634   0.00000  Uiso   1.00
C683   C     0.50013   0.16667   0.97682   0.00000  Uiso   1.00
C684   C     0.49987   0.16666   0.52317   0.00000  Uiso   1.00
C685   C     0.49965   0.20825   0.95365   0.00000  Uiso   1.00
C686   C     0.50035   0.12509   0.54635   0.00000  Uiso   1.00
C687   C     0.50135   0.08396   0.97687   0.00000  Uiso   1.00
C688   C     0.49865   0.24937   0.52313   0.00000  Uiso   1.00
C689   C     0.50108   0.08395   0.52316   0.00000  Uiso   1.00
C690   C     0.49892   0.24938   0.97684   0.00000  Uiso   1.00
H691   H     0.49938   0.23983   0.88963   0.00000  Uiso   1.00
H692   H     0.50062   0.09350   0.61037   0.00000  Uiso   1.00
H693   H     0.50159   0.09352   0.88965   0.00000  Uiso   1.00
H694   H     0.49841   0.23981   0.61035   0.00000  Uiso   1.00
H695   H     0.50190   0.05191   0.95926   0.00000  Uiso   1.00
H696   H     0.49810   0.28142   0.54074   0.00000  Uiso   1.00
H697   H     0.50146   0.05190   0.54079   0.00000  Uiso   1.00
H698   H     0.49854   0.28143   0.95921   0.00000  Uiso   1.00
C699   C     0.35498   0.16173   0.70918   0.00000  Uiso   1.00
C700   C     0.64502   0.17161   0.79082   0.00000  Uiso   1.00
C701   C     0.64490   0.16385   0.70906   0.00000  Uiso   1.00
C702   C     0.35510   0.16949   0.79095   0.00000  Uiso   1.00
C703   C     0.62400   0.16854   0.74989   0.00000  Uiso   1.00
C704   C     0.37600   0.16480   0.75012   0.00000  Uiso   1.00
C705   C     0.52378   0.02442   0.77991   0.00000  Uiso   1.00
C706   C     0.47622   0.30891   0.72009   0.00000  Uiso   1.00
C707   C     0.47622   0.02355   0.72010   0.00000  Uiso   1.00
C708   C     0.52378   0.30978   0.77990   0.00000  Uiso   1.00
H709   H     0.54279   0.04295   0.80381   0.00000  Uiso   1.00
H710   H     0.45721   0.29038   0.69619   0.00000  Uiso   1.00
H711   H     0.45720   0.04139   0.69620   0.00000  Uiso   1.00
H712   H     0.54280   0.29194   0.80380   0.00000  Uiso   1.00
N713   N     0.50000   0.28573   0.75000   0.00000  Uiso   1.00
N714   N     0.50000   0.04760   0.75000   0.00000  Uiso   1.00
N715   N     0.37775   0.15841   0.66795   0.00000  Uiso   1.00
O716   O     0.40352   0.12533   0.66150   0.00000  Uiso   1.00
O717   O     0.37109   0.18706   0.63588   0.00000  Uiso   1.00
N718   N     0.62225   0.17492   0.83205   0.00000  Uiso   1.00
O719   O     0.59647   0.20799   0.83850   0.00000  Uiso   1.00
O720   O     0.62892   0.14628   0.86413   0.00000  Uiso   1.00
N721   N     0.62201   0.16026   0.66792   0.00000  Uiso   1.00
O722   O     0.59613   0.19178   0.65643   0.00000  Uiso   1.00
O723   O     0.62874   0.12683   0.64073   0.00000  Uiso   1.00
N724   N     0.37799   0.17308   0.83208   0.00000  Uiso   1.00
O725   O     0.40387   0.14157   0.84358   0.00000  Uiso   1.00
O726   O     0.37127   0.20653   0.85927   0.00000  Uiso   1.00
O727   O     0.77226   0.20487   0.74999   0.00000  Uiso   1.00
O728   O     0.89441   0.12846   0.75000   0.00000  Uiso   1.00
O729   O     0.89441   0.20487   0.75000   0.00000  Uiso   1.00
O730   O     0.77226   0.12846   0.74999   0.00000  Uiso   1.00
C731   C     0.75346   0.16621   0.74994   0.00000  Uiso   1.00
C732   C     0.91320   0.16712   0.75006   0.00000  Uiso   1.00
O733   O     0.83333   0.20489   0.68392   0.00000  Uiso   1.00
O734   O     0.83334   0.12844   0.81607   0.00000  Uiso   1.00
O735   O     0.83334   0.20489   0.81607   0.00000  Uiso   1.00
O736   O     0.83333   0.12844   0.68392   0.00000  Uiso   1.00
C737   C     0.83310   0.16666   0.66327   0.00000  Uiso   1.00
C738   C     0.83357   0.16667   0.83673   0.00000  Uiso   1.00
Zn739  Zn    0.83333   0.21771   0.75000   0.00000  Uiso   1.00
Zn740  Zn    0.83333   0.11563   0.75000   0.00000  Uiso   1.00
C741   C     0.83315   0.20794   0.90757   0.00000  Uiso   1.00
C742   C     0.83351   0.12540   0.59243   0.00000  Uiso   1.00
C743   C     0.83376   0.16668   0.88468   0.00000  Uiso   1.00
C744   C     0.83291   0.16666   0.61532   0.00000  Uiso   1.00
C745   C     0.83439   0.12542   0.90758   0.00000  Uiso   1.00
C746   C     0.83228   0.20792   0.59242   0.00000  Uiso   1.00
C747   C     0.83421   0.12510   0.95366   0.00000  Uiso   1.00
C748   C     0.83246   0.20824   0.54634   0.00000  Uiso   1.00
C749   C     0.83347   0.16667   0.97682   0.00000  Uiso   1.00
C750   C     0.83320   0.16666   0.52317   0.00000  Uiso   1.00
C751   C     0.83298   0.20825   0.95365   0.00000  Uiso   1.00
C752   C     0.83369   0.12509   0.54635   0.00000  Uiso   1.00
C753   C     0.83468   0.08396   0.97687   0.00000  Uiso   1.00
C754   C     0.83199   0.24937   0.52313   0.00000  Uiso   1.00
C755   C     0.83441   0.08395   0.52316   0.00000  Uiso   1.00
C756   C     0.83225   0.24938   0.97684   0.00000  Uiso   1.00
H757   H     0.83272   0.23983   0.88963   0.00000  Uiso   1.00
H758   H     0.83395   0.09350   0.61037   0.00000  Uiso   1.00
H759   H     0.83492   0.09352   0.88965   0.00000  Uiso   1.00
H760   H     0.83174   0.23981   0.61035   0.00000  Uiso   1.00
H761   H     0.83524   0.05191   0.95926   0.00000  Uiso   1.00
H762   H     0.83143   0.28142   0.54074   0.00000  Uiso   1.00
H763   H     0.83479   0.05190   0.54079   0.00000  Uiso   1.00
H764   H     0.83188   0.28143   0.95921   0.00000  Uiso   1.00
C765   C     0.68831   0.16173   0.70918   0.00000  Uiso   1.00
C766   C     0.97835   0.17161   0.79082   0.00000  Uiso   1.00
C767   C     0.97823   0.16385   0.70906   0.00000  Uiso   1.00
C768   C     0.68843   0.16949   0.79095   0.00000  Uiso   1.00
C769   C     0.95734   0.16854   0.74989   0.00000  Uiso   1.00
C770   C     0.70933   0.16480   0.75012   0.00000  Uiso   1.00
C771   C     0.85711   0.02442   0.77991   0.00000  Uiso   1.00
C772   C     0.80956   0.30891   0.72009   0.00000  Uiso   1.00
C773   C     0.80955   0.02355   0.72010   0.00000  Uiso   1.00
C774   C     0.85711   0.30978   0.77990   0.00000  Uiso   1.00
H775   H     0.87612   0.04295   0.80381   0.00000  Uiso   1.00
H776   H     0.79054   0.29038   0.69619   0.00000  Uiso   1.00
H777   H     0.79054   0.04139   0.69620   0.00000  Uiso   1.00
H778   H     0.87613   0.29194   0.80380   0.00000  Uiso   1.00
N779   N     0.83333   0.28573   0.75000   0.00000  Uiso   1.00
N780   N     0.83333   0.04760   0.75000   0.00000  Uiso   1.00
N781   N     0.71108   0.15841   0.66795   0.00000  Uiso   1.00
O782   O     0.73685   0.12533   0.66150   0.00000  Uiso   1.00
O783   O     0.70443   0.18706   0.63588   0.00000  Uiso   1.00
N784   N     0.95559   0.17492   0.83205   0.00000  Uiso   1.00
O785   O     0.92980   0.20799   0.83850   0.00000  Uiso   1.00
O786   O     0.96226   0.14628   0.86413   0.00000  Uiso   1.00
N787   N     0.95535   0.16026   0.66792   0.00000  Uiso   1.00
O788   O     0.92946   0.19178   0.65643   0.00000  Uiso   1.00
O789   O     0.96207   0.12683   0.64073   0.00000  Uiso   1.00
N790   N     0.71132   0.17308   0.83208   0.00000  Uiso   1.00
O791   O     0.73721   0.14157   0.84358   0.00000  Uiso   1.00
O792   O     0.70460   0.20653   0.85927   0.00000  Uiso   1.00
O793   O     0.10559   0.53821   0.74999   0.00000  Uiso   1.00
O794   O     0.22774   0.46179   0.75000   0.00000  Uiso   1.00
O795   O     0.22774   0.53821   0.75000   0.00000  Uiso   1.00
O796   O     0.10559   0.46179   0.74999   0.00000  Uiso   1.00
C797   C     0.08680   0.49954   0.74994   0.00000  Uiso   1.00
C798   C     0.24654   0.50046   0.75006   0.00000  Uiso   1.00
O799   O     0.16666   0.53823   0.68392   0.00000  Uiso   1.00
O800   O     0.16667   0.46177   0.81607   0.00000  Uiso   1.00
O801   O     0.16667   0.53823   0.81607   0.00000  Uiso   1.00
O802   O     0.16666   0.46177   0.68392   0.00000  Uiso   1.00
C803   C     0.16643   0.50000   0.66327   0.00000  Uiso   1.00
C804   C     0.16690   0.50000   0.83673   0.00000  Uiso   1.00
Zn805  Zn    0.16667   0.55104   0.75000   0.00000  Uiso   1.00
Zn806  Zn    0.16667   0.44896   0.75000   0.00000  Uiso   1.00
C807   C     0.16649   0.54127   0.90757   0.00000  Uiso   1.00
C808   C     0.16685   0.45873   0.59243   0.00000  Uiso   1.00
C809   C     0.16709   0.50001   0.88468   0.00000  Uiso   1.00
C810   C     0.16624   0.49999   0.61532   0.00000  Uiso   1.00
C811   C     0.16772   0.45875   0.90758   0.00000  Uiso   1.00
C812   C     0.16561   0.54125   0.59242   0.00000  Uiso   1.00
C813   C     0.16754   0.45843   0.95366   0.00000  Uiso   1.00
C814   C     0.16579   0.54157   0.54634   0.00000  Uiso   1.00
C815   C     0.16680   0.50000   0.97682   0.00000  Uiso   1.00
C816   C     0.16653   0.50000   0.52317   0.00000  Uiso   1.00
C817   C     0.16631   0.54158   0.95365   0.00000  Uiso   1.00
C818   C     0.16702   0.45842   0.54635   0.00000  Uiso   1.00
C819   C     0.16801   0.41729   0.97687   0.00000  Uiso   1.00
C820   C     0.16532   0.58271   0.52313   0.00000  Uiso   1.00
C821   C     0.16775   0.41729   0.52316   0.00000  Uiso   1.00
C822   C     0.16559   0.58271   0.97684   0.00000  Uiso   1.00
H823   H     0.16605   0.57317   0.88963   0.00000  Uiso   1.00
H824   H     0.16728   0.42683   0.61037   0.00000  Uiso   1.00
H825   H     0.16826   0.42686   0.88965   0.00000  Uiso   1.00
H826   H     0.16508   0.57314   0.61035   0.00000  Uiso   1.00
H827   H     0.16857   0.38525   0.95926   0.00000  Uiso   1.00
H828   H     0.16476   0.61475   0.54074   0.00000  Uiso   1.00
H829   H     0.16812   0.38524   0.54079   0.00000  Uiso   1.00
H830   H     0.16521   0.61476   0.95921   0.00000  Uiso   1.00
C831   C     0.02165   0.49506   0.70918   0.00000  Uiso   1.00
C832   C     0.31169   0.50494   0.79082   0.00000  Uiso   1.00
C833   C     0.31157   0.49718   0.70906   0.00000  Uiso   1.00
C834   C     0.02177   0.50282   0.79095   0.00000  Uiso   1.00
C835   C     0.29067   0.50187   0.74989   0.00000  Uiso   1.00
C836   C     0.04267   0.49813   0.75012   0.00000  Uiso   1.00
C837   C     0.19044   0.35775   0.77991   0.00000  Uiso   1.00
C838   C     0.14289   0.64225   0.72009   0.00000  Uiso   1.00
C839   C     0.14289   0.35689   0.72010   0.00000  Uiso   1.00
C840   C     0.19045   0.64311   0.77990   0.00000  Uiso   1.00
H841   H     0.20946   0.37629   0.80381   0.00000  Uiso   1.00
H842   H     0.12388   0.62371   0.69619   0.00000  Uiso   1.00
H843   H     0.12387   0.37473   0.69620   0.00000  Uiso   1.00
H844   H     0.20946   0.62527   0.80380   0.00000  Uiso   1.00
N845   N     0.16667   0.61907   0.75000   0.00000  Uiso   1.00
N846   N     0.16667   0.38093   0.75000   0.00000  Uiso   1.00
N847   N     0.04441   0.49174   0.66795   0.00000  Uiso   1.00
O848   O     0.07018   0.45867   0.66150   0.00000  Uiso   1.00
O849   O     0.03776   0.52039   0.63588   0.00000  Uiso   1.00
N850   N     0.28892   0.50826   0.83205   0.00000  Uiso   1.00
O851   O     0.26314   0.54132   0.83850   0.00000  Uiso   1.00
O852   O     0.29559   0.47962   0.86413   0.00000  Uiso   1.00
N853   N     0.28868   0.49359   0.66792   0.00000  Uiso   1.00
O854   O     0.26279   0.52511   0.65643   0.00000  Uiso   1.00
O855   O     0.29541   0.46016   0.64073   0.00000  Uiso   1.00
N856   N     0.04465   0.50642   0.83208   0.00000  Uiso   1.00
O857   O     0.07054   0.47490   0.84358   0.00000  Uiso   1.00
O858   O     0.03793   0.53986   0.85927   0.00000  Uiso   1.00
O859   O     0.43892   0.53821   0.74999   0.00000  Uiso   1.00
O860   O     0.56108   0.46179   0.75000   0.00000  Uiso   1.00
O861   O     0.56108   0.53821   0.75000   0.00000  Uiso   1.00
O862   O     0.43892   0.46179   0.74999   0.00000  Uiso   1.00
C863   C     0.42013   0.49954   0.74994   0.00000  Uiso   1.00
C864   C     0.57987   0.50046   0.75006   0.00000  Uiso   1.00
O865   O     0.49999   0.53823   0.68392   0.00000  Uiso   1.00
O866   O     0.50001   0.46177   0.81607   0.00000  Uiso   1.00
O867   O     0.50001   0.53823   0.81607   0.00000  Uiso   1.00
O868   O     0.49999   0.46177   0.68392   0.00000  Uiso   1.00
C869   C     0.49977   0.50000   0.66327   0.00000  Uiso   1.00
C870   C     0.50023   0.50000   0.83673   0.00000  Uiso   1.00
Zn871  Zn    0.50000   0.55104   0.75000   0.00000  Uiso   1.00
Zn872  Zn    0.50000   0.44896   0.75000   0.00000  Uiso   1.00
C873   C     0.49982   0.54127   0.90757   0.00000  Uiso   1.00
C874   C     0.50018   0.45873   0.59243   0.00000  Uiso   1.00
C875   C     0.50043   0.50001   0.88468   0.00000  Uiso   1.00
C876   C     0.49957   0.49999   0.61532   0.00000  Uiso   1.00
C877   C     0.50105   0.45875   0.90758   0.00000  Uiso   1.00
C878   C     0.49895   0.54125   0.59242   0.00000  Uiso   1.00
C879   C     0.50087   0.45843   0.95366   0.00000  Uiso   1.00
C880   C     0.49913   0.54157   0.54634   0.00000  Uiso   1.00
C881   C     0.50013   0.50000   0.97682   0.00000  Uiso   1.00
C882   C     0.49987   0.50000   0.52317   0.00000  Uiso   1.00
C883   C     0.49965   0.54158   0.95365   0.00000  Uiso   1.00
C884   C     0.50035   0.45842   0.54635   0.00000  Uiso   1.00
C885   C     0.50135   0.41729   0.97687   0.00000  Uiso   1.00
C886   C     0.49865   0.58271   0.52313   0.00000  Uiso   1.00
C887   C     0.50108   0.41729   0.52316   0.00000  Uiso   1.00
C888   C     0.49892   0.58271   0.97684   0.00000  Uiso   1.00
H889   H     0.49938   0.57317   0.88963   0.00000  Uiso   1.00
H890   H     0.50062   0.42683   0.61037   0.00000  Uiso   1.00
H891   H     0.50159   0.42686   0.88965   0.00000  Uiso   1.00
H892   H     0.49841   0.57314   0.61035   0.00000  Uiso   1.00
H893   H     0.50190   0.38525   0.95926   0.00000  Uiso   1.00
H894   H     0.49810   0.61475   0.54074   0.00000  Uiso   1.00
H895   H     0.50146   0.38524   0.54079   0.00000  Uiso   1.00
H896   H     0.49854   0.61476   0.95921   0.00000  Uiso   1.00
C897   C     0.35498   0.49506   0.70918   0.00000  Uiso   1.00
C898   C     0.64502   0.50494   0.79082   0.00000  Uiso   1.00
C899   C     0.64490   0.49718   0.70906   0.00000  Uiso   1.00
C900   C     0.35510   0.50282   0.79095   0.00000  Uiso   1.00
C901   C     0.62400   0.50187   0.74989   0.00000  Uiso   1.00
C902   C     0.37600   0.49813   0.75012   0.00000  Uiso   1.00
C903   C     0.52378   0.35775   0.77991   0.00000  Uiso   1.00
C904   C     0.47622   0.64225   0.72009   0.00000  Uiso   1.00
C905   C     0.47622   0.35689   0.72010   0.00000  Uiso   1.00
C906   C     0.52378   0.64311   0.77990   0.00000  Uiso   1.00
H907   H     0.54279   0.37629   0.80381   0.00000  Uiso   1.00
H908   H     0.45721   0.62371   0.69619   0.00000  Uiso   1.00
H909   H     0.45720   0.37473   0.69620   0.00000  Uiso   1.00
H910   H     0.54280   0.62527   0.80380   0.00000  Uiso   1.00
N911   N     0.50000   0.61907   0.75000   0.00000  Uiso   1.00
N912   N     0.50000   0.38093   0.75000   0.00000  Uiso   1.00
N913   N     0.37775   0.49174   0.66795   0.00000  Uiso   1.00
O914   O     0.40352   0.45867   0.66150   0.00000  Uiso   1.00
O915   O     0.37109   0.52039   0.63588   0.00000  Uiso   1.00
N916   N     0.62225   0.50826   0.83205   0.00000  Uiso   1.00
O917   O     0.59647   0.54132   0.83850   0.00000  Uiso   1.00
O918   O     0.62892   0.47962   0.86413   0.00000  Uiso   1.00
N919   N     0.62201   0.49359   0.66792   0.00000  Uiso   1.00
O920   O     0.59613   0.52511   0.65643   0.00000  Uiso   1.00
O921   O     0.62874   0.46016   0.64073   0.00000  Uiso   1.00
N922   N     0.37799   0.50642   0.83208   0.00000  Uiso   1.00
O923   O     0.40387   0.47490   0.84358   0.00000  Uiso   1.00
O924   O     0.37127   0.53986   0.85927   0.00000  Uiso   1.00
O925   O     0.77226   0.53821   0.74999   0.00000  Uiso   1.00
O926   O     0.89441   0.46179   0.75000   0.00000  Uiso   1.00
O927   O     0.89441   0.53821   0.75000   0.00000  Uiso   1.00
O928   O     0.77226   0.46179   0.74999   0.00000  Uiso   1.00
C929   C     0.75346   0.49954   0.74994   0.00000  Uiso   1.00
C930   C     0.91320   0.50046   0.75006   0.00000  Uiso   1.00
O931   O     0.83333   0.53823   0.68392   0.00000  Uiso   1.00
O932   O     0.83334   0.46177   0.81607   0.00000  Uiso   1.00
O933   O     0.83334   0.53823   0.81607   0.00000  Uiso   1.00
O934   O     0.83333   0.46177   0.68392   0.00000  Uiso   1.00
C935   C     0.83310   0.50000   0.66327   0.00000  Uiso   1.00
C936   C     0.83357   0.50000   0.83673   0.00000  Uiso   1.00
Zn937  Zn    0.83333   0.55104   0.75000   0.00000  Uiso   1.00
Zn938  Zn    0.83333   0.44896   0.75000   0.00000  Uiso   1.00
C939   C     0.83315   0.54127   0.90757   0.00000  Uiso   1.00
C940   C     0.83351   0.45873   0.59243   0.00000  Uiso   1.00
C941   C     0.83376   0.50001   0.88468   0.00000  Uiso   1.00
C942   C     0.83291   0.49999   0.61532   0.00000  Uiso   1.00
C943   C     0.83439   0.45875   0.90758   0.00000  Uiso   1.00
C944   C     0.83228   0.54125   0.59242   0.00000  Uiso   1.00
C945   C     0.83421   0.45843   0.95366   0.00000  Uiso   1.00
C946   C     0.83246   0.54157   0.54634   0.00000  Uiso   1.00
C947   C     0.83347   0.50000   0.97682   0.00000  Uiso   1.00
C948   C     0.83320   0.50000   0.52317   0.00000  Uiso   1.00
C949   C     0.83298   0.54158   0.95365   0.00000  Uiso   1.00
C950   C     0.83369   0.45842   0.54635   0.00000  Uiso   1.00
C951   C     0.83468   0.41729   0.97687   0.00000  Uiso   1.00
C952   C     0.83199   0.58271   0.52313   0.00000  Uiso   1.00
C953   C     0.83441   0.41729   0.52316   0.00000  Uiso   1.00
C954   C     0.83225   0.58271   0.97684   0.00000  Uiso   1.00
H955   H     0.83272   0.57317   0.88963   0.00000  Uiso   1.00
H956   H     0.83395   0.42683   0.61037   0.00000  Uiso   1.00
H957   H     0.83492   0.42686   0.88965   0.00000  Uiso   1.00
H958   H     0.83174   0.57314   0.61035   0.00000  Uiso   1.00
H959   H     0.83524   0.38525   0.95926   0.00000  Uiso   1.00
H960   H     0.83143   0.61475   0.54074   0.00000  Uiso   1.00
H961   H     0.83479   0.38524   0.54079   0.00000  Uiso   1.00
H962   H     0.83188   0.61476   0.95921   0.00000  Uiso   1.00
C963   C     0.68831   0.49506   0.70918   0.00000  Uiso   1.00
C964   C     0.97835   0.50494   0.79082   0.00000  Uiso   1.00
C965   C     0.97823   0.49718   0.70906   0.00000  Uiso   1.00
C966   C     0.68843   0.50282   0.79095   0.00000  Uiso   1.00
C967   C     0.95734   0.50187   0.74989   0.00000  Uiso   1.00
C968   C     0.70933   0.49813   0.75012   0.00000  Uiso   1.00
C969   C     0.85711   0.35775   0.77991   0.00000  Uiso   1.00
C970   C     0.80956   0.64225   0.72009   0.00000  Uiso   1.00
C971   C     0.80955   0.35689   0.72010   0.00000  Uiso   1.00
C972   C     0.85711   0.64311   0.77990   0.00000  Uiso   1.00
H973   H     0.87612   0.37629   0.80381   0.00000  Uiso   1.00
H974   H     0.79054   0.62371   0.69619   0.00000  Uiso   1.00
H975   H     0.79054   0.37473   0.69620   0.00000  Uiso   1.00
H976   H     0.87613   0.62527   0.80380   0.00000  Uiso   1.00
N977   N     0.83333   0.61907   0.75000   0.00000  Uiso   1.00
N978   N     0.83333   0.38093   0.75000   0.00000  Uiso   1.00
N979   N     0.71108   0.49174   0.66795   0.00000  Uiso   1.00
O980   O     0.73685   0.45867   0.66150   0.00000  Uiso   1.00
O981   O     0.70443   0.52039   0.63588   0.00000  Uiso   1.00
N982   N     0.95559   0.50826   0.83205   0.00000  Uiso   1.00
O983   O     0.92980   0.54132   0.83850   0.00000  Uiso   1.00
O984   O     0.96226   0.47962   0.86413   0.00000  Uiso   1.00
N985   N     0.95535   0.49359   0.66792   0.00000  Uiso   1.00
O986   O     0.92946   0.52511   0.65643   0.00000  Uiso   1.00
O987   O     0.96207   0.46016   0.64073   0.00000  Uiso   1.00
N988   N     0.71132   0.50642   0.83208   0.00000  Uiso   1.00
O989   O     0.73721   0.47490   0.84358   0.00000  Uiso   1.00
O990   O     0.70460   0.53986   0.85927   0.00000  Uiso   1.00
O991   O     0.10559   0.87154   0.74999   0.00000  Uiso   1.00
O992   O     0.22774   0.79513   0.75000   0.00000  Uiso   1.00
O993   O     0.22774   0.87154   0.75000   0.00000  Uiso   1.00
O994   O     0.10559   0.79513   0.74999   0.00000  Uiso   1.00
C995   C     0.08680   0.83288   0.74994   0.00000  Uiso   1.00
C996   C     0.24654   0.83379   0.75006   0.00000  Uiso   1.00
O997   O     0.16666   0.87156   0.68392   0.00000  Uiso   1.00
O998   O     0.16667   0.79511   0.81607   0.00000  Uiso   1.00
O999   O     0.16667   0.87156   0.81607   0.00000  Uiso   1.00
O1000  O     0.16666   0.79511   0.68392   0.00000  Uiso   1.00
C1001  C     0.16643   0.83333   0.66327   0.00000  Uiso   1.00
C1002  C     0.16690   0.83334   0.83673   0.00000  Uiso   1.00
Zn1003 Zn    0.16667   0.88437   0.75000   0.00000  Uiso   1.00
Zn1004 Zn    0.16667   0.78229   0.75000   0.00000  Uiso   1.00
C1005  C     0.16649   0.87460   0.90757   0.00000  Uiso   1.00
C1006  C     0.16685   0.79206   0.59243   0.00000  Uiso   1.00
C1007  C     0.16709   0.83334   0.88468   0.00000  Uiso   1.00
C1008  C     0.16624   0.83332   0.61532   0.00000  Uiso   1.00
C1009  C     0.16772   0.79208   0.90758   0.00000  Uiso   1.00
C1010  C     0.16561   0.87458   0.59242   0.00000  Uiso   1.00
C1011  C     0.16754   0.79176   0.95366   0.00000  Uiso   1.00
C1012  C     0.16579   0.87490   0.54634   0.00000  Uiso   1.00
C1013  C     0.16680   0.83334   0.97682   0.00000  Uiso   1.00
C1014  C     0.16653   0.83333   0.52317   0.00000  Uiso   1.00
C1015  C     0.16631   0.87492   0.95365   0.00000  Uiso   1.00
C1016  C     0.16702   0.79175   0.54635   0.00000  Uiso   1.00
C1017  C     0.16801   0.75063   0.97687   0.00000  Uiso   1.00
C1018  C     0.16532   0.91604   0.52313   0.00000  Uiso   1.00
C1019  C     0.16775   0.75062   0.52316   0.00000  Uiso   1.00
C1020  C     0.16559   0.91605   0.97684   0.00000  Uiso   1.00
H1021  H     0.16605   0.90650   0.88963   0.00000  Uiso   1.00
H1022  H     0.16728   0.76017   0.61037   0.00000  Uiso   1.00
H1023  H     0.16826   0.76019   0.88965   0.00000  Uiso   1.00
H1024  H     0.16508   0.90648   0.61035   0.00000  Uiso   1.00
H1025  H     0.16857   0.71858   0.95926   0.00000  Uiso   1.00
H1026  H     0.16476   0.94809   0.54074   0.00000  Uiso   1.00
H1027  H     0.16812   0.71857   0.54079   0.00000  Uiso   1.00
H1028  H     0.16521   0.94810   0.95921   0.00000  Uiso   1.00
C1029  C     0.02165   0.82839   0.70918   0.00000  Uiso   1.00
C1030  C     0.31169   0.83827   0.79082   0.00000  Uiso   1.00
C1031  C     0.31157   0.83052   0.70906   0.00000  Uiso   1.00
C1032  C     0.02177   0.83615   0.79095   0.00000  Uiso   1.00
C1033  C     0.29067   0.83520   0.74989   0.00000  Uiso   1.00
C1034  C     0.04267   0.83146   0.75012   0.00000  Uiso   1.00
C1035  C     0.19044   0.69109   0.77991   0.00000  Uiso   1.00
C1036  C     0.14289   0.97558   0.72009   0.00000  Uiso   1.00
C1037  C     0.14289   0.69022   0.72010   0.00000  Uiso   1.00
C1038  C     0.19045   0.97645   0.77990   0.00000  Uiso   1.00
H1039  H     0.20946   0.70962   0.80381   0.00000  Uiso   1.00
H1040  H     0.12388   0.95705   0.69619   0.00000  Uiso   1.00
H1041  H     0.12387   0.70806   0.69620   0.00000  Uiso   1.00
H1042  H     0.20946   0.95861   0.80380   0.00000  Uiso   1.00
N1043  N     0.16667   0.95240   0.75000   0.00000  Uiso   1.00
N1044  N     0.16667   0.71427   0.75000   0.00000  Uiso   1.00
N1045  N     0.04441   0.82507   0.66795   0.00000  Uiso   1.00
O1046  O     0.07018   0.79200   0.66150   0.00000  Uiso   1.00
O1047  O     0.03776   0.85373   0.63588   0.00000  Uiso   1.00
N1048  N     0.28892   0.84159   0.83205   0.00000  Uiso   1.00
O1049  O     0.26314   0.87465   0.83850   0.00000  Uiso   1.00
O1050  O     0.29559   0.81295   0.86413   0.00000  Uiso   1.00
N1051  N     0.28868   0.82693   0.66792   0.00000  Uiso   1.00
O1052  O     0.26279   0.85844   0.65643   0.00000  Uiso   1.00
O1053  O     0.29541   0.79349   0.64073   0.00000  Uiso   1.00
N1054  N     0.04465   0.83975   0.83208   0.00000  Uiso   1.00
O1055  O     0.07054   0.80823   0.84358   0.00000  Uiso   1.00
O1056  O     0.03793   0.87319   0.85927   0.00000  Uiso   1.00
O1057  O     0.43892   0.87154   0.74999   0.00000  Uiso   1.00
O1058  O     0.56108   0.79513   0.75000   0.00000  Uiso   1.00
O1059  O     0.56108   0.87154   0.75000   0.00000  Uiso   1.00
O1060  O     0.43892   0.79513   0.74999   0.00000  Uiso   1.00
C1061  C     0.42013   0.83288   0.74994   0.00000  Uiso   1.00
C1062  C     0.57987   0.83379   0.75006   0.00000  Uiso   1.00
O1063  O     0.49999   0.87156   0.68392   0.00000  Uiso   1.00
O1064  O     0.50001   0.79511   0.81607   0.00000  Uiso   1.00
O1065  O     0.50001   0.87156   0.81607   0.00000  Uiso   1.00
O1066  O     0.49999   0.79511   0.68392   0.00000  Uiso   1.00
C1067  C     0.49977   0.83333   0.66327   0.00000  Uiso   1.00
C1068  C     0.50023   0.83334   0.83673   0.00000  Uiso   1.00
Zn1069 Zn    0.50000   0.88437   0.75000   0.00000  Uiso   1.00
Zn1070 Zn    0.50000   0.78229   0.75000   0.00000  Uiso   1.00
C1071  C     0.49982   0.87460   0.90757   0.00000  Uiso   1.00
C1072  C     0.50018   0.79206   0.59243   0.00000  Uiso   1.00
C1073  C     0.50043   0.83334   0.88468   0.00000  Uiso   1.00
C1074  C     0.49957   0.83332   0.61532   0.00000  Uiso   1.00
C1075  C     0.50105   0.79208   0.90758   0.00000  Uiso   1.00
C1076  C     0.49895   0.87458   0.59242   0.00000  Uiso   1.00
C1077  C     0.50087   0.79176   0.95366   0.00000  Uiso   1.00
C1078  C     0.49913   0.87490   0.54634   0.00000  Uiso   1.00
C1079  C     0.50013   0.83334   0.97682   0.00000  Uiso   1.00
C1080  C     0.49987   0.83333   0.52317   0.00000  Uiso   1.00
C1081  C     0.49965   0.87492   0.95365   0.00000  Uiso   1.00
C1082  C     0.50035   0.79175   0.54635   0.00000  Uiso   1.00
C1083  C     0.50135   0.75063   0.97687   0.00000  Uiso   1.00
C1084  C     0.49865   0.91604   0.52313   0.00000  Uiso   1.00
C1085  C     0.50108   0.75062   0.52316   0.00000  Uiso   1.00
C1086  C     0.49892   0.91605   0.97684   0.00000  Uiso   1.00
H1087  H     0.49938   0.90650   0.88963   0.00000  Uiso   1.00
H1088  H     0.50062   0.76017   0.61037   0.00000  Uiso   1.00
H1089  H     0.50159   0.76019   0.88965   0.00000  Uiso   1.00
H1090  H     0.49841   0.90648   0.61035   0.00000  Uiso   1.00
H1091  H     0.50190   0.71858   0.95926   0.00000  Uiso   1.00
H1092  H     0.49810   0.94809   0.54074   0.00000  Uiso   1.00
H1093  H     0.50146   0.71857   0.54079   0.00000  Uiso   1.00
H1094  H     0.49854   0.94810   0.95921   0.00000  Uiso   1.00
C1095  C     0.35498   0.82839   0.70918   0.00000  Uiso   1.00
C1096  C     0.64502   0.83827   0.79082   0.00000  Uiso   1.00
C1097  C     0.64490   0.83052   0.70906   0.00000  Uiso   1.00
C1098  C     0.35510   0.83615   0.79095   0.00000  Uiso   1.00
C1099  C     0.62400   0.83520   0.74989   0.00000  Uiso   1.00
C1100  C     0.37600   0.83146   0.75012   0.00000  Uiso   1.00
C1101  C     0.52378   0.69109   0.77991   0.00000  Uiso   1.00
C1102  C     0.47622   0.97558   0.72009   0.00000  Uiso   1.00
C1103  C     0.47622   0.69022   0.72010   0.00000  Uiso   1.00
C1104  C     0.52378   0.97645   0.77990   0.00000  Uiso   1.00
H1105  H     0.54279   0.70962   0.80381   0.00000  Uiso   1.00
H1106  H     0.45721   0.95705   0.69619   0.00000  Uiso   1.00
H1107  H     0.45720   0.70806   0.69620   0.00000  Uiso   1.00
H1108  H     0.54280   0.95861   0.80380   0.00000  Uiso   1.00
N1109  N     0.50000   0.95240   0.75000   0.00000  Uiso   1.00
N1110  N     0.50000   0.71427   0.75000   0.00000  Uiso   1.00
N1111  N     0.37775   0.82507   0.66795   0.00000  Uiso   1.00
O1112  O     0.40352   0.79200   0.66150   0.00000  Uiso   1.00
O1113  O     0.37109   0.85373   0.63588   0.00000  Uiso   1.00
N1114  N     0.62225   0.84159   0.83205   0.00000  Uiso   1.00
O1115  O     0.59647   0.87465   0.83850   0.00000  Uiso   1.00
O1116  O     0.62892   0.81295   0.86413   0.00000  Uiso   1.00
N1117  N     0.62201   0.82693   0.66792   0.00000  Uiso   1.00
O1118  O     0.59613   0.85844   0.65643   0.00000  Uiso   1.00
O1119  O     0.62874   0.79349   0.64073   0.00000  Uiso   1.00
N1120  N     0.37799   0.83975   0.83208   0.00000  Uiso   1.00
O1121  O     0.40387   0.80823   0.84358   0.00000  Uiso   1.00
O1122  O     0.37127   0.87319   0.85927   0.00000  Uiso   1.00
O1123  O     0.77226   0.87154   0.74999   0.00000  Uiso   1.00
O1124  O     0.89441   0.79513   0.75000   0.00000  Uiso   1.00
O1125  O     0.89441   0.87154   0.75000   0.00000  Uiso   1.00
O1126  O     0.77226   0.79513   0.74999   0.00000  Uiso   1.00
C1127  C     0.75346   0.83288   0.74994   0.00000  Uiso   1.00
C1128  C     0.91320   0.83379   0.75006   0.00000  Uiso   1.00
O1129  O     0.83333   0.87156   0.68392   0.00000  Uiso   1.00
O1130  O     0.83334   0.79511   0.81607   0.00000  Uiso   1.00
O1131  O     0.83334   0.87156   0.81607   0.00000  Uiso   1.00
O1132  O     0.83333   0.79511   0.68392   0.00000  Uiso   1.00
C1133  C     0.83310   0.83333   0.66327   0.00000  Uiso   1.00
C1134  C     0.83357   0.83334   0.83673   0.00000  Uiso   1.00
Zn1135 Zn    0.83333   0.88437   0.75000   0.00000  Uiso   1.00
Zn1136 Zn    0.83333   0.78229   0.75000   0.00000  Uiso   1.00
C1137  C     0.83315   0.87460   0.90757   0.00000  Uiso   1.00
C1138  C     0.83351   0.79206   0.59243   0.00000  Uiso   1.00
C1139  C     0.83376   0.83334   0.88468   0.00000  Uiso   1.00
C1140  C     0.83291   0.83332   0.61532   0.00000  Uiso   1.00
C1141  C     0.83439   0.79208   0.90758   0.00000  Uiso   1.00
C1142  C     0.83228   0.87458   0.59242   0.00000  Uiso   1.00
C1143  C     0.83421   0.79176   0.95366   0.00000  Uiso   1.00
C1144  C     0.83246   0.87490   0.54634   0.00000  Uiso   1.00
C1145  C     0.83347   0.83334   0.97682   0.00000  Uiso   1.00
C1146  C     0.83320   0.83333   0.52317   0.00000  Uiso   1.00
C1147  C     0.83298   0.87492   0.95365   0.00000  Uiso   1.00
C1148  C     0.83369   0.79175   0.54635   0.00000  Uiso   1.00
C1149  C     0.83468   0.75063   0.97687   0.00000  Uiso   1.00
C1150  C     0.83199   0.91604   0.52313   0.00000  Uiso   1.00
C1151  C     0.83441   0.75062   0.52316   0.00000  Uiso   1.00
C1152  C     0.83225   0.91605   0.97684   0.00000  Uiso   1.00
H1153  H     0.83272   0.90650   0.88963   0.00000  Uiso   1.00
H1154  H     0.83395   0.76017   0.61037   0.00000  Uiso   1.00
H1155  H     0.83492   0.76019   0.88965   0.00000  Uiso   1.00
H1156  H     0.83174   0.90648   0.61035   0.00000  Uiso   1.00
H1157  H     0.83524   0.71858   0.95926   0.00000  Uiso   1.00
H1158  H     0.83143   0.94809   0.54074   0.00000  Uiso   1.00
H1159  H     0.83479   0.71857   0.54079   0.00000  Uiso   1.00
H1160  H     0.83188   0.94810   0.95921   0.00000  Uiso   1.00
C1161  C     0.68831   0.82839   0.70918   0.00000  Uiso   1.00
C1162  C     0.97835   0.83827   0.79082   0.00000  Uiso   1.00
C1163  C     0.97823   0.83052   0.70906   0.00000  Uiso   1.00
C1164  C     0.68843   0.83615   0.79095   0.00000  Uiso   1.00
C1165  C     0.95734   0.83520   0.74989   0.00000  Uiso   1.00
C1166  C     0.70933   0.83146   0.75012   0.00000  Uiso   1.00
C1167  C     0.85711   0.69109   0.77991   0.00000  Uiso   1.00
C1168  C     0.80956   0.97558   0.72009   0.00000  Uiso   1.00
C1169  C     0.80955   0.69022   0.72010   0.00000  Uiso   1.00
C1170  C     0.85711   0.97645   0.77990   0.00000  Uiso   1.00
H1171  H     0.87612   0.70962   0.80381   0.00000  Uiso   1.00
H1172  H     0.79054   0.95705   0.69619   0.00000  Uiso   1.00
H1173  H     0.79054   0.70806   0.69620   0.00000  Uiso   1.00
H1174  H     0.87613   0.95861   0.80380   0.00000  Uiso   1.00
N1175  N     0.83333   0.95240   0.75000   0.00000  Uiso   1.00
N1176  N     0.83333   0.71427   0.75000   0.00000  Uiso   1.00
N1177  N     0.71108   0.82507   0.66795   0.00000  Uiso   1.00
O1178  O     0.73685   0.79200   0.66150   0.00000  Uiso   1.00
O1179  O     0.70443   0.85373   0.63588   0.00000  Uiso   1.00
N1180  N     0.95559   0.84159   0.83205   0.00000  Uiso   1.00
O1181  O     0.92980   0.87465   0.83850   0.00000  Uiso   1.00
O1182  O     0.96226   0.81295   0.86413   0.00000  Uiso   1.00
N1183  N     0.95535   0.82693   0.66792   0.00000  Uiso   1.00
O1184  O     0.92946   0.85844   0.65643   0.00000  Uiso   1.00
O1185  O     0.96207   0.79349   0.64073   0.00000  Uiso   1.00
N1186  N     0.71132   0.83975   0.83208   0.00000  Uiso   1.00
O1187  O     0.73721   0.80823   0.84358   0.00000  Uiso   1.00
O1188  O     0.70460   0.87319   0.85927   0.00000  Uiso   1.00
loop_
_geom_bond_atom_site_label_1
_geom_bond_atom_site_label_2
_geom_bond_distance
_geom_bond_site_symmetry_2
_ccdc_geom_bond_type
O1     Zn13    1.976   .     S
O1     C5      1.280   .     A
O2     C6      1.280   .     A
O2     Zn14    1.976   .     S
O3     Zn13    1.989   .     S
O3     C6      1.274   .     A
O4     Zn14    1.989   .     S
O4     C5      1.274   .     A
C5     C44     1.406   .     S
C6     C43     1.406   .     S
O7     C11     1.287   .     A
O7     Zn13    2.019   .     S
O8     C12     1.287   .     A
O8     Zn14    2.019   .     S
O9     C12     1.287   .     A
O9     Zn13    2.019   .     S
O10    C11     1.287   .     A
O10    Zn14    2.019   .     S
C11    C18     1.439   .     S
C12    C17     1.439   .     S
Zn13   N53     2.008   .     S
Zn14   N54     2.008   .     S
C15    C17     1.399   .     A
C15    C25     1.383   .     A
C15    H31     1.085   .     S
C16    H32     1.085   .     S
C16    C18     1.399   .     A
C16    C26     1.383   .     A
C17    C19     1.399   .     A
C18    C20     1.399   .     A
C19    H33     1.085   .     S
C19    C21     1.383   .     A
C20    H34     1.085   .     S
C20    C22     1.383   .     A
C21    C27     1.400   .     A
C21    C23     1.411   .     A
C22    C28     1.400   .     A
C22    C24     1.411   .     A
C23    C25     1.411   .     A
C23    C618    1.391   .     S
C24    C26     1.411   .     A
C24    C617    1.391   1_554 S
C25    C30     1.400   .     A
C26    C29     1.400   .     A
C27    H35     1.084   .     S
C27    C623    1.389   .     S
C28    H36     1.084   .     S
C28    C624    1.389   1_554 S
C29    H37     1.084   .     S
C29    C621    1.389   1_554 S
C30    H38     1.084   .     S
C30    C622    1.389   .     S
C39    C44     1.402   .     A
C39    N55     1.438   .     S
C39    C173    1.386   1_455 S
C40    N58     1.438   .     S
C40    C43     1.402   .     A
C40    C108    1.386   .     S
C41    N61     1.438   .     S
C41    C43     1.402   .     A
C41    C105    1.386   .     S
C42    C44     1.402   .     A
C42    N64     1.438   .     S
C42    C172    1.386   1_455 S
C45    H49     1.082   .     S
C45    N54     1.366   .     A
C45    C444    1.416   1_545 S
C46    H50     1.082   .     S
C46    N53     1.366   .     A
C46    C245    1.416   .     S
C47    H51     1.082   .     S
C47    N54     1.366   .     A
C47    C442    1.416   1_545 S
C48    N53     1.366   .     A
C48    H52     1.082   .     S
C48    C243    1.416   .     S
N55    O56     1.301   .     A
N55    O57     1.301   .     A
N58    O60     1.301   .     A
N58    O59     1.301   .     A
N61    O62     1.301   .     A
N61    O63     1.301   .     A
N64    O65     1.301   .     A
N64    O66     1.301   .     A
O67    Zn79    1.976   .     S
O67    C71     1.280   .     A
O68    C72     1.280   .     A
O68    Zn80    1.976   .     S
O69    Zn79    1.989   .     S
O69    C72     1.274   .     A
O70    Zn80    1.989   .     S
O70    C71     1.274   .     A
C71    C110    1.406   .     S
C72    C109    1.406   .     S
O73    C77     1.287   .     A
O73    Zn79    2.019   .     S
O74    C78     1.287   .     A
O74    Zn80    2.019   .     S
O75    C78     1.287   .     A
O75    Zn79    2.019   .     S
O76    C77     1.287   .     A
O76    Zn80    2.019   .     S
C77    C84     1.439   .     S
C78    C83     1.439   .     S
Zn79   N119    2.008   .     S
Zn80   N120    2.008   .     S
C81    C83     1.399   .     A
C81    C91     1.383   .     A
C81    H97     1.085   .     S
C82    H98     1.085   .     S
C82    C84     1.399   .     A
C82    C92     1.383   .     A
C83    C85     1.399   .     A
C84    C86     1.399   .     A
C85    H99     1.085   .     S
C85    C87     1.383   .     A
C86    H100    1.085   .     S
C86    C88     1.383   .     A
C87    C93     1.400   .     A
C87    C89     1.411   .     A
C88    C94     1.400   .     A
C88    C90     1.411   .     A
C89    C91     1.411   .     A
C89    C684    1.391   .     S
C90    C92     1.411   .     A
C90    C683    1.391   1_554 S
C91    C96     1.400   .     A
C92    C95     1.400   .     A
C93    H101    1.084   .     S
C93    C689    1.389   .     S
C94    H102    1.084   .     S
C94    C690    1.389   1_554 S
C95    H103    1.084   .     S
C95    C687    1.389   1_554 S
C96    H104    1.084   .     S
C96    C688    1.389   .     S
C105   C110    1.402   .     A
C105   N121    1.438   .     S
C106   N124    1.438   .     S
C106   C109    1.402   .     A
C106   C174    1.386   .     S
C107   N127    1.438   .     S
C107   C109    1.402   .     A
C107   C171    1.386   .     S
C108   C110    1.402   .     A
C108   N130    1.438   .     S
C111   H115    1.082   .     S
C111   N120    1.366   .     A
C111   C510    1.416   1_545 S
C112   H116    1.082   .     S
C112   N119    1.366   .     A
C112   C311    1.416   .     S
C113   H117    1.082   .     S
C113   N120    1.366   .     A
C113   C508    1.416   1_545 S
C114   N119    1.366   .     A
C114   H118    1.082   .     S
C114   C309    1.416   .     S
N121   O122    1.301   .     A
N121   O123    1.301   .     A
N124   O126    1.301   .     A
N124   O125    1.301   .     A
N127   O128    1.301   .     A
N127   O129    1.301   .     A
N130   O131    1.301   .     A
N130   O132    1.301   .     A
O133   Zn145   1.976   .     S
O133   C137    1.280   .     A
O134   C138    1.280   .     A
O134   Zn146   1.976   .     S
O135   Zn145   1.989   .     S
O135   C138    1.274   .     A
O136   Zn146   1.989   .     S
O136   C137    1.274   .     A
C137   C176    1.406   .     S
C138   C175    1.406   .     S
O139   C143    1.287   .     A
O139   Zn145   2.019   .     S
O140   C144    1.287   .     A
O140   Zn146   2.019   .     S
O141   C144    1.287   .     A
O141   Zn145   2.019   .     S
O142   C143    1.287   .     A
O142   Zn146   2.019   .     S
C143   C150    1.439   .     S
C144   C149    1.439   .     S
Zn145  N185    2.008   .     S
Zn146  N186    2.008   .     S
C147   C149    1.399   .     A
C147   C157    1.383   .     A
C147   H163    1.085   .     S
C148   H164    1.085   .     S
C148   C150    1.399   .     A
C148   C158    1.383   .     A
C149   C151    1.399   .     A
C150   C152    1.399   .     A
C151   H165    1.085   .     S
C151   C153    1.383   .     A
C152   H166    1.085   .     S
C152   C154    1.383   .     A
C153   C159    1.400   .     A
C153   C155    1.411   .     A
C154   C160    1.400   .     A
C154   C156    1.411   .     A
C155   C157    1.411   .     A
C155   C750    1.391   .     S
C156   C158    1.411   .     A
C156   C749    1.391   1_554 S
C157   C162    1.400   .     A
C158   C161    1.400   .     A
C159   H167    1.084   .     S
C159   C755    1.389   .     S
C160   H168    1.084   .     S
C160   C756    1.389   1_554 S
C161   H169    1.084   .     S
C161   C753    1.389   1_554 S
C162   H170    1.084   .     S
C162   C754    1.389   .     S
C171   C176    1.402   .     A
C171   N187    1.438   .     S
C172   N190    1.438   .     S
C172   C175    1.402   .     A
C172   C42     1.386   1_655 S
C173   N193    1.438   .     S
C173   C175    1.402   .     A
C173   C39     1.386   1_655 S
C174   C176    1.402   .     A
C174   N196    1.438   .     S
C177   H181    1.082   .     S
C177   N186    1.366   .     A
C177   C576    1.416   1_545 S
C178   H182    1.082   .     S
C178   N185    1.366   .     A
C178   C377    1.416   .     S
C179   H183    1.082   .     S
C179   N186    1.366   .     A
C179   C574    1.416   1_545 S
C180   N185    1.366   .     A
C180   H184    1.082   .     S
C180   C375    1.416   .     S
N187   O188    1.301   .     A
N187   O189    1.301   .     A
N190   O192    1.301   .     A
N190   O191    1.301   .     A
N193   O194    1.301   .     A
N193   O195    1.301   .     A
N196   O197    1.301   .     A
N196   O198    1.301   .     A
O199   Zn211   1.976   .     S
O199   C203    1.280   .     A
O200   C204    1.280   .     A
O200   Zn212   1.976   .     S
O201   Zn211   1.989   .     S
O201   C204    1.274   .     A
O202   Zn212   1.989   .     S
O202   C203    1.274   .     A
C203   C242    1.406   .     S
C204   C241    1.406   .     S
O205   C209    1.287   .     A
O205   Zn211   2.019   .     S
O206   C210    1.287   .     A
O206   Zn212   2.019   .     S
O207   C210    1.287   .     A
O207   Zn211   2.019   .     S
O208   C209    1.287   .     A
O208   Zn212   2.019   .     S
C209   C216    1.439   .     S
C210   C215    1.439   .     S
Zn211  N251    2.008   .     S
Zn212  N252    2.008   .     S
C213   C215    1.399   .     A
C213   C223    1.383   .     A
C213   H229    1.085   .     S
C214   H230    1.085   .     S
C214   C216    1.399   .     A
C214   C224    1.383   .     A
C215   C217    1.399   .     A
C216   C218    1.399   .     A
C217   H231    1.085   .     S
C217   C219    1.383   .     A
C218   H232    1.085   .     S
C218   C220    1.383   .     A
C219   C225    1.400   .     A
C219   C221    1.411   .     A
C220   C226    1.400   .     A
C220   C222    1.411   .     A
C221   C223    1.411   .     A
C221   C816    1.391   .     S
C222   C224    1.411   .     A
C222   C815    1.391   1_554 S
C223   C228    1.400   .     A
C224   C227    1.400   .     A
C225   H233    1.084   .     S
C225   C821    1.389   .     S
C226   H234    1.084   .     S
C226   C822    1.389   1_554 S
C227   H235    1.084   .     S
C227   C819    1.389   1_554 S
C228   H236    1.084   .     S
C228   C820    1.389   .     S
C237   C242    1.402   .     A
C237   N253    1.438   .     S
C237   C371    1.386   1_455 S
C238   N256    1.438   .     S
C238   C241    1.402   .     A
C238   C306    1.386   .     S
C239   N259    1.438   .     S
C239   C241    1.402   .     A
C239   C303    1.386   .     S
C240   C242    1.402   .     A
C240   N262    1.438   .     S
C240   C370    1.386   1_455 S
C243   H247    1.082   .     S
C243   N252    1.366   .     A
C244   H248    1.082   .     S
C244   N251    1.366   .     A
C244   C443    1.416   .     S
C245   H249    1.082   .     S
C245   N252    1.366   .     A
C246   N251    1.366   .     A
C246   H250    1.082   .     S
C246   C441    1.416   .     S
N253   O254    1.301   .     A
N253   O255    1.301   .     A
N256   O258    1.301   .     A
N256   O257    1.301   .     A
N259   O260    1.301   .     A
N259   O261    1.301   .     A
N262   O263    1.301   .     A
N262   O264    1.301   .     A
O265   Zn277   1.976   .     S
O265   C269    1.280   .     A
O266   C270    1.280   .     A
O266   Zn278   1.976   .     S
O267   Zn277   1.989   .     S
O267   C270    1.274   .     A
O268   Zn278   1.989   .     S
O268   C269    1.274   .     A
C269   C308    1.406   .     S
C270   C307    1.406   .     S
O271   C275    1.287   .     A
O271   Zn277   2.019   .     S
O272   C276    1.287   .     A
O272   Zn278   2.019   .     S
O273   C276    1.287   .     A
O273   Zn277   2.019   .     S
O274   C275    1.287   .     A
O274   Zn278   2.019   .     S
C275   C282    1.439   .     S
C276   C281    1.439   .     S
Zn277  N317    2.008   .     S
Zn278  N318    2.008   .     S
C279   C281    1.399   .     A
C279   C289    1.383   .     A
C279   H295    1.085   .     S
C280   H296    1.085   .     S
C280   C282    1.399   .     A
C280   C290    1.383   .     A
C281   C283    1.399   .     A
C282   C284    1.399   .     A
C283   H297    1.085   .     S
C283   C285    1.383   .     A
C284   H298    1.085   .     S
C284   C286    1.383   .     A
C285   C291    1.400   .     A
C285   C287    1.411   .     A
C286   C292    1.400   .     A
C286   C288    1.411   .     A
C287   C289    1.411   .     A
C287   C882    1.391   .     S
C288   C290    1.411   .     A
C288   C881    1.391   1_554 S
C289   C294    1.400   .     A
C290   C293    1.400   .     A
C291   H299    1.084   .     S
C291   C887    1.389   .     S
C292   H300    1.084   .     S
C292   C888    1.389   1_554 S
C293   H301    1.084   .     S
C293   C885    1.389   1_554 S
C294   H302    1.084   .     S
C294   C886    1.389   .     S
C303   C308    1.402   .     A
C303   N319    1.438   .     S
C304   N322    1.438   .     S
C304   C307    1.402   .     A
C304   C372    1.386   .     S
C305   N325    1.438   .     S
C305   C307    1.402   .     A
C305   C369    1.386   .     S
C306   C308    1.402   .     A
C306   N328    1.438   .     S
C309   H313    1.082   .     S
C309   N318    1.366   .     A
C310   H314    1.082   .     S
C310   N317    1.366   .     A
C310   C509    1.416   .     S
C311   H315    1.082   .     S
C311   N318    1.366   .     A
C312   N317    1.366   .     A
C312   H316    1.082   .     S
C312   C507    1.416   .     S
N319   O320    1.301   .     A
N319   O321    1.301   .     A
N322   O324    1.301   .     A
N322   O323    1.301   .     A
N325   O326    1.301   .     A
N325   O327    1.301   .     A
N328   O329    1.301   .     A
N328   O330    1.301   .     A
O331   Zn343   1.976   .     S
O331   C335    1.280   .     A
O332   C336    1.280   .     A
O332   Zn344   1.976   .     S
O333   Zn343   1.989   .     S
O333   C336    1.274   .     A
O334   Zn344   1.989   .     S
O334   C335    1.274   .     A
C335   C374    1.406   .     S
C336   C373    1.406   .     S
O337   C341    1.287   .     A
O337   Zn343   2.019   .     S
O338   C342    1.287   .     A
O338   Zn344   2.019   .     S
O339   C342    1.287   .     A
O339   Zn343   2.019   .     S
O340   C341    1.287   .     A
O340   Zn344   2.019   .     S
C341   C348    1.439   .     S
C342   C347    1.439   .     S
Zn343  N383    2.008   .     S
Zn344  N384    2.008   .     S
C345   C347    1.399   .     A
C345   C355    1.383   .     A
C345   H361    1.085   .     S
C346   H362    1.085   .     S
C346   C348    1.399   .     A
C346   C356    1.383   .     A
C347   C349    1.399   .     A
C348   C350    1.399   .     A
C349   H363    1.085   .     S
C349   C351    1.383   .     A
C350   H364    1.085   .     S
C350   C352    1.383   .     A
C351   C357    1.400   .     A
C351   C353    1.411   .     A
C352   C358    1.400   .     A
C352   C354    1.411   .     A
C353   C355    1.411   .     A
C353   C948    1.391   .     S
C354   C356    1.411   .     A
C354   C947    1.391   1_554 S
C355   C360    1.400   .     A
C356   C359    1.400   .     A
C357   H365    1.084   .     S
C357   C953    1.389   .     S
C358   H366    1.084   .     S
C358   C954    1.389   1_554 S
C359   H367    1.084   .     S
C359   C951    1.389   1_554 S
C360   H368    1.084   .     S
C360   C952    1.389   .     S
C369   C374    1.402   .     A
C369   N385    1.438   .     S
C370   N388    1.438   .     S
C370   C373    1.402   .     A
C370   C240    1.386   1_655 S
C371   N391    1.438   .     S
C371   C373    1.402   .     A
C371   C237    1.386   1_655 S
C372   C374    1.402   .     A
C372   N394    1.438   .     S
C375   H379    1.082   .     S
C375   N384    1.366   .     A
C376   H380    1.082   .     S
C376   N383    1.366   .     A
C376   C575    1.416   .     S
C377   H381    1.082   .     S
C377   N384    1.366   .     A
C378   N383    1.366   .     A
C378   H382    1.082   .     S
C378   C573    1.416   .     S
N385   O386    1.301   .     A
N385   O387    1.301   .     A
N388   O390    1.301   .     A
N388   O389    1.301   .     A
N391   O392    1.301   .     A
N391   O393    1.301   .     A
N394   O395    1.301   .     A
N394   O396    1.301   .     A
O397   Zn409   1.976   .     S
O397   C401    1.280   .     A
O398   C402    1.280   .     A
O398   Zn410   1.976   .     S
O399   Zn409   1.989   .     S
O399   C402    1.274   .     A
O400   Zn410   1.989   .     S
O400   C401    1.274   .     A
C401   C440    1.406   .     S
C402   C439    1.406   .     S
O403   C407    1.287   .     A
O403   Zn409   2.019   .     S
O404   C408    1.287   .     A
O404   Zn410   2.019   .     S
O405   C408    1.287   .     A
O405   Zn409   2.019   .     S
O406   C407    1.287   .     A
O406   Zn410   2.019   .     S
C407   C414    1.439   .     S
C408   C413    1.439   .     S
Zn409  N449    2.008   .     S
Zn410  N450    2.008   .     S
C411   C413    1.399   .     A
C411   C421    1.383   .     A
C411   H427    1.085   .     S
C412   H428    1.085   .     S
C412   C414    1.399   .     A
C412   C422    1.383   .     A
C413   C415    1.399   .     A
C414   C416    1.399   .     A
C415   H429    1.085   .     S
C415   C417    1.383   .     A
C416   H430    1.085   .     S
C416   C418    1.383   .     A
C417   C423    1.400   .     A
C417   C419    1.411   .     A
C418   C424    1.400   .     A
C418   C420    1.411   .     A
C419   C421    1.411   .     A
C419   C1014   1.391   .     S
C420   C422    1.411   .     A
C420   C1013   1.391   1_554 S
C421   C426    1.400   .     A
C422   C425    1.400   .     A
C423   H431    1.084   .     S
C423   C1019   1.389   .     S
C424   H432    1.084   .     S
C424   C1020   1.389   1_554 S
C425   H433    1.084   .     S
C425   C1017   1.389   1_554 S
C426   H434    1.084   .     S
C426   C1018   1.389   .     S
C435   C440    1.402   .     A
C435   N451    1.438   .     S
C435   C569    1.386   1_455 S
C436   N454    1.438   .     S
C436   C439    1.402   .     A
C436   C504    1.386   .     S
C437   N457    1.438   .     S
C437   C439    1.402   .     A
C437   C501    1.386   .     S
C438   C440    1.402   .     A
C438   N460    1.438   .     S
C438   C568    1.386   1_455 S
C441   H445    1.082   .     S
C441   N450    1.366   .     A
C442   H446    1.082   .     S
C442   N449    1.366   .     A
C442   C47     1.416   1_565 S
C443   H447    1.082   .     S
C443   N450    1.366   .     A
C444   N449    1.366   .     A
C444   H448    1.082   .     S
C444   C45     1.416   1_565 S
N451   O452    1.301   .     A
N451   O453    1.301   .     A
N454   O456    1.301   .     A
N454   O455    1.301   .     A
N457   O458    1.301   .     A
N457   O459    1.301   .     A
N460   O461    1.301   .     A
N460   O462    1.301   .     A
O463   Zn475   1.976   .     S
O463   C467    1.280   .     A
O464   C468    1.280   .     A
O464   Zn476   1.976   .     S
O465   Zn475   1.989   .     S
O465   C468    1.274   .     A
O466   Zn476   1.989   .     S
O466   C467    1.274   .     A
C467   C506    1.406   .     S
C468   C505    1.406   .     S
O469   C473    1.287   .     A
O469   Zn475   2.019   .     S
O470   C474    1.287   .     A
O470   Zn476   2.019   .     S
O471   C474    1.287   .     A
O471   Zn475   2.019   .     S
O472   C473    1.287   .     A
O472   Zn476   2.019   .     S
C473   C480    1.439   .     S
C474   C479    1.439   .     S
Zn475  N515    2.008   .     S
Zn476  N516    2.008   .     S
C477   C479    1.399   .     A
C477   C487    1.383   .     A
C477   H493    1.085   .     S
C478   H494    1.085   .     S
C478   C480    1.399   .     A
C478   C488    1.383   .     A
C479   C481    1.399   .     A
C480   C482    1.399   .     A
C481   H495    1.085   .     S
C481   C483    1.383   .     A
C482   H496    1.085   .     S
C482   C484    1.383   .     A
C483   C489    1.400   .     A
C483   C485    1.411   .     A
C484   C490    1.400   .     A
C484   C486    1.411   .     A
C485   C487    1.411   .     A
C485   C1080   1.391   .     S
C486   C488    1.411   .     A
C486   C1079   1.391   1_554 S
C487   C492    1.400   .     A
C488   C491    1.400   .     A
C489   H497    1.084   .     S
C489   C1085   1.389   .     S
C490   H498    1.084   .     S
C490   C1086   1.389   1_554 S
C491   H499    1.084   .     S
C491   C1083   1.389   1_554 S
C492   H500    1.084   .     S
C492   C1084   1.389   .     S
C501   C506    1.402   .     A
C501   N517    1.438   .     S
C502   N520    1.438   .     S
C502   C505    1.402   .     A
C502   C570    1.386   .     S
C503   N523    1.438   .     S
C503   C505    1.402   .     A
C503   C567    1.386   .     S
C504   C506    1.402   .     A
C504   N526    1.438   .     S
C507   H511    1.082   .     S
C507   N516    1.366   .     A
C508   H512    1.082   .     S
C508   N515    1.366   .     A
C508   C113    1.416   1_565 S
C509   H513    1.082   .     S
C509   N516    1.366   .     A
C510   N515    1.366   .     A
C510   H514    1.082   .     S
C510   C111    1.416   1_565 S
N517   O518    1.301   .     A
N517   O519    1.301   .     A
N520   O522    1.301   .     A
N520   O521    1.301   .     A
N523   O524    1.301   .     A
N523   O525    1.301   .     A
N526   O527    1.301   .     A
N526   O528    1.301   .     A
O529   Zn541   1.976   .     S
O529   C533    1.280   .     A
O530   C534    1.280   .     A
O530   Zn542   1.976   .     S
O531   Zn541   1.989   .     S
O531   C534    1.274   .     A
O532   Zn542   1.989   .     S
O532   C533    1.274   .     A
C533   C572    1.406   .     S
C534   C571    1.406   .     S
O535   C539    1.287   .     A
O535   Zn541   2.019   .     S
O536   C540    1.287   .     A
O536   Zn542   2.019   .     S
O537   C540    1.287   .     A
O537   Zn541   2.019   .     S
O538   C539    1.287   .     A
O538   Zn542   2.019   .     S
C539   C546    1.439   .     S
C540   C545    1.439   .     S
Zn541  N581    2.008   .     S
Zn542  N582    2.008   .     S
C543   C545    1.399   .     A
C543   C553    1.383   .     A
C543   H559    1.085   .     S
C544   H560    1.085   .     S
C544   C546    1.399   .     A
C544   C554    1.383   .     A
C545   C547    1.399   .     A
C546   C548    1.399   .     A
C547   H561    1.085   .     S
C547   C549    1.383   .     A
C548   H562    1.085   .     S
C548   C550    1.383   .     A
C549   C555    1.400   .     A
C549   C551    1.411   .     A
C550   C556    1.400   .     A
C550   C552    1.411   .     A
C551   C553    1.411   .     A
C551   C1146   1.391   .     S
C552   C554    1.411   .     A
C552   C1145   1.391   1_554 S
C553   C558    1.400   .     A
C554   C557    1.400   .     A
C555   H563    1.084   .     S
C555   C1151   1.389   .     S
C556   H564    1.084   .     S
C556   C1152   1.389   1_554 S
C557   H565    1.084   .     S
C557   C1149   1.389   1_554 S
C558   H566    1.084   .     S
C558   C1150   1.389   .     S
C567   C572    1.402   .     A
C567   N583    1.438   .     S
C568   N586    1.438   .     S
C568   C571    1.402   .     A
C568   C438    1.386   1_655 S
C569   N589    1.438   .     S
C569   C571    1.402   .     A
C569   C435    1.386   1_655 S
C570   C572    1.402   .     A
C570   N592    1.438   .     S
C573   H577    1.082   .     S
C573   N582    1.366   .     A
C574   H578    1.082   .     S
C574   N581    1.366   .     A
C574   C179    1.416   1_565 S
C575   H579    1.082   .     S
C575   N582    1.366   .     A
C576   N581    1.366   .     A
C576   H580    1.082   .     S
C576   C177    1.416   1_565 S
N583   O584    1.301   .     A
N583   O585    1.301   .     A
N586   O588    1.301   .     A
N586   O587    1.301   .     A
N589   O590    1.301   .     A
N589   O591    1.301   .     A
N592   O593    1.301   .     A
N592   O594    1.301   .     A
O595   Zn607   1.976   .     S
O595   C599    1.280   .     A
O596   C600    1.280   .     A
O596   Zn608   1.976   .     S
O597   Zn607   1.989   .     S
O597   C600    1.274   .     A
O598   Zn608   1.989   .     S
O598   C599    1.274   .     A
C599   C638    1.406   .     S
C600   C637    1.406   .     S
O601   C605    1.287   .     A
O601   Zn607   2.019   .     S
O602   C606    1.287   .     A
O602   Zn608   2.019   .     S
O603   C606    1.287   .     A
O603   Zn607   2.019   .     S
O604   C605    1.287   .     A
O604   Zn608   2.019   .     S
C605   C612    1.439   .     S
C606   C611    1.439   .     S
Zn607  N647    2.008   .     S
Zn608  N648    2.008   .     S
C609   C611    1.399   .     A
C609   C619    1.383   .     A
C609   H625    1.085   .     S
C610   H626    1.085   .     S
C610   C612    1.399   .     A
C610   C620    1.383   .     A
C611   C613    1.399   .     A
C612   C614    1.399   .     A
C613   H627    1.085   .     S
C613   C615    1.383   .     A
C614   H628    1.085   .     S
C614   C616    1.383   .     A
C615   C621    1.400   .     A
C615   C617    1.411   .     A
C616   C622    1.400   .     A
C616   C618    1.411   .     A
C617   C619    1.411   .     A
C617   C24     1.391   1_556 S
C618   C620    1.411   .     A
C619   C624    1.400   .     A
C620   C623    1.400   .     A
C621   H629    1.084   .     S
C621   C29     1.389   1_556 S
C622   H630    1.084   .     S
C623   H631    1.084   .     S
C624   H632    1.084   .     S
C624   C28     1.389   1_556 S
C633   C638    1.402   .     A
C633   N649    1.438   .     S
C633   C767    1.386   1_455 S
C634   N652    1.438   .     S
C634   C637    1.402   .     A
C634   C702    1.386   .     S
C635   N655    1.438   .     S
C635   C637    1.402   .     A
C635   C699    1.386   .     S
C636   C638    1.402   .     A
C636   N658    1.438   .     S
C636   C766    1.386   1_455 S
C639   H643    1.082   .     S
C639   N648    1.366   .     A
C639   C1038   1.416   1_545 S
C640   H644    1.082   .     S
C640   N647    1.366   .     A
C640   C839    1.416   .     S
C641   H645    1.082   .     S
C641   N648    1.366   .     A
C641   C1036   1.416   1_545 S
C642   N647    1.366   .     A
C642   H646    1.082   .     S
C642   C837    1.416   .     S
N649   O650    1.301   .     A
N649   O651    1.301   .     A
N652   O654    1.301   .     A
N652   O653    1.301   .     A
N655   O656    1.301   .     A
N655   O657    1.301   .     A
N658   O659    1.301   .     A
N658   O660    1.301   .     A
O661   Zn673   1.976   .     S
O661   C665    1.280   .     A
O662   C666    1.280   .     A
O662   Zn674   1.976   .     S
O663   Zn673   1.989   .     S
O663   C666    1.274   .     A
O664   Zn674   1.989   .     S
O664   C665    1.274   .     A
C665   C704    1.406   .     S
C666   C703    1.406   .     S
O667   C671    1.287   .     A
O667   Zn673   2.019   .     S
O668   C672    1.287   .     A
O668   Zn674   2.019   .     S
O669   C672    1.287   .     A
O669   Zn673   2.019   .     S
O670   C671    1.287   .     A
O670   Zn674   2.019   .     S
C671   C678    1.439   .     S
C672   C677    1.439   .     S
Zn673  N713    2.008   .     S
Zn674  N714    2.008   .     S
C675   C677    1.399   .     A
C675   C685    1.383   .     A
C675   H691    1.085   .     S
C676   H692    1.085   .     S
C676   C678    1.399   .     A
C676   C686    1.383   .     A
C677   C679    1.399   .     A
C678   C680    1.399   .     A
C679   H693    1.085   .     S
C679   C681    1.383   .     A
C680   H694    1.085   .     S
C680   C682    1.383   .     A
C681   C687    1.400   .     A
C681   C683    1.411   .     A
C682   C688    1.400   .     A
C682   C684    1.411   .     A
C683   C685    1.411   .     A
C683   C90     1.391   1_556 S
C684   C686    1.411   .     A
C685   C690    1.400   .     A
C686   C689    1.400   .     A
C687   H695    1.084   .     S
C687   C95     1.389   1_556 S
C688   H696    1.084   .     S
C689   H697    1.084   .     S
C690   H698    1.084   .     S
C690   C94     1.389   1_556 S
C699   C704    1.402   .     A
C699   N715    1.438   .     S
C700   N718    1.438   .     S
C700   C703    1.402   .     A
C700   C768    1.386   .     S
C701   N721    1.438   .     S
C701   C703    1.402   .     A
C701   C765    1.386   .     S
C702   C704    1.402   .     A
C702   N724    1.438   .     S
C705   H709    1.082   .     S
C705   N714    1.366   .     A
C705   C1104   1.416   1_545 S
C706   H710    1.082   .     S
C706   N713    1.366   .     A
C706   C905    1.416   .     S
C707   H711    1.082   .     S
C707   N714    1.366   .     A
C707   C1102   1.416   1_545 S
C708   N713    1.366   .     A
C708   H712    1.082   .     S
C708   C903    1.416   .     S
N715   O716    1.301   .     A
N715   O717    1.301   .     A
N718   O720    1.301   .     A
N718   O719    1.301   .     A
N721   O722    1.301   .     A
N721   O723    1.301   .     A
N724   O725    1.301   .     A
N724   O726    1.301   .     A
O727   Zn739   1.976   .     S
O727   C731    1.280   .     A
O728   C732    1.280   .     A
O728   Zn740   1.976   .     S
O729   Zn739   1.989   .     S
O729   C732    1.274   .     A
O730   Zn740   1.989   .     S
O730   C731    1.274   .     A
C731   C770    1.406   .     S
C732   C769    1.406   .     S
O733   C737    1.287   .     A
O733   Zn739   2.019   .     S
O734   C738    1.287   .     A
O734   Zn740   2.019   .     S
O735   C738    1.287   .     A
O735   Zn739   2.019   .     S
O736   C737    1.287   .     A
O736   Zn740   2.019   .     S
C737   C744    1.439   .     S
C738   C743    1.439   .     S
Zn739  N779    2.008   .     S
Zn740  N780    2.008   .     S
C741   C743    1.399   .     A
C741   C751    1.383   .     A
C741   H757    1.085   .     S
C742   H758    1.085   .     S
C742   C744    1.399   .     A
C742   C752    1.383   .     A
C743   C745    1.399   .     A
C744   C746    1.399   .     A
C745   H759    1.085   .     S
C745   C747    1.383   .     A
C746   H760    1.085   .     S
C746   C748    1.383   .     A
C747   C753    1.400   .     A
C747   C749    1.411   .     A
C748   C754    1.400   .     A
C748   C750    1.411   .     A
C749   C751    1.411   .     A
C749   C156    1.391   1_556 S
C750   C752    1.411   .     A
C751   C756    1.400   .     A
C752   C755    1.400   .     A
C753   H761    1.084   .     S
C753   C161    1.389   1_556 S
C754   H762    1.084   .     S
C755   H763    1.084   .     S
C756   H764    1.084   .     S
C756   C160    1.389   1_556 S
C765   C770    1.402   .     A
C765   N781    1.438   .     S
C766   N784    1.438   .     S
C766   C769    1.402   .     A
C766   C636    1.386   1_655 S
C767   N787    1.438   .     S
C767   C769    1.402   .     A
C767   C633    1.386   1_655 S
C768   C770    1.402   .     A
C768   N790    1.438   .     S
C771   H775    1.082   .     S
C771   N780    1.366   .     A
C771   C1170   1.416   1_545 S
C772   H776    1.082   .     S
C772   N779    1.366   .     A
C772   C971    1.416   .     S
C773   H777    1.082   .     S
C773   N780    1.366   .     A
C773   C1168   1.416   1_545 S
C774   N779    1.366   .     A
C774   H778    1.082   .     S
C774   C969    1.416   .     S
N781   O782    1.301   .     A
N781   O783    1.301   .     A
N784   O786    1.301   .     A
N784   O785    1.301   .     A
N787   O788    1.301   .     A
N787   O789    1.301   .     A
N790   O791    1.301   .     A
N790   O792    1.301   .     A
O793   Zn805   1.976   .     S
O793   C797    1.280   .     A
O794   C798    1.280   .     A
O794   Zn806   1.976   .     S
O795   Zn805   1.989   .     S
O795   C798    1.274   .     A
O796   Zn806   1.989   .     S
O796   C797    1.274   .     A
C797   C836    1.406   .     S
C798   C835    1.406   .     S
O799   C803    1.287   .     A
O799   Zn805   2.019   .     S
O800   C804    1.287   .     A
O800   Zn806   2.019   .     S
O801   C804    1.287   .     A
O801   Zn805   2.019   .     S
O802   C803    1.287   .     A
O802   Zn806   2.019   .     S
C803   C810    1.439   .     S
C804   C809    1.439   .     S
Zn805  N845    2.008   .     S
Zn806  N846    2.008   .     S
C807   C809    1.399   .     A
C807   C817    1.383   .     A
C807   H823    1.085   .     S
C808   H824    1.085   .     S
C808   C810    1.399   .     A
C808   C818    1.383   .     A
C809   C811    1.399   .     A
C810   C812    1.399   .     A
C811   H825    1.085   .     S
C811   C813    1.383   .     A
C812   H826    1.085   .     S
C812   C814    1.383   .     A
C813   C819    1.400   .     A
C813   C815    1.411   .     A
C814   C820    1.400   .     A
C814   C816    1.411   .     A
C815   C817    1.411   .     A
C815   C222    1.391   1_556 S
C816   C818    1.411   .     A
C817   C822    1.400   .     A
C818   C821    1.400   .     A
C819   H827    1.084   .     S
C819   C227    1.389   1_556 S
C820   H828    1.084   .     S
C821   H829    1.084   .     S
C822   H830    1.084   .     S
C822   C226    1.389   1_556 S
C831   C836    1.402   .     A
C831   N847    1.438   .     S
C831   C965    1.386   1_455 S
C832   N850    1.438   .     S
C832   C835    1.402   .     A
C832   C900    1.386   .     S
C833   N853    1.438   .     S
C833   C835    1.402   .     A
C833   C897    1.386   .     S
C834   C836    1.402   .     A
C834   N856    1.438   .     S
C834   C964    1.386   1_455 S
C837   H841    1.082   .     S
C837   N846    1.366   .     A
C838   H842    1.082   .     S
C838   N845    1.366   .     A
C838   C1037   1.416   .     S
C839   H843    1.082   .     S
C839   N846    1.366   .     A
C840   N845    1.366   .     A
C840   H844    1.082   .     S
C840   C1035   1.416   .     S
N847   O848    1.301   .     A
N847   O849    1.301   .     A
N850   O852    1.301   .     A
N850   O851    1.301   .     A
N853   O854    1.301   .     A
N853   O855    1.301   .     A
N856   O857    1.301   .     A
N856   O858    1.301   .     A
O859   Zn871   1.976   .     S
O859   C863    1.280   .     A
O860   C864    1.280   .     A
O860   Zn872   1.976   .     S
O861   Zn871   1.989   .     S
O861   C864    1.274   .     A
O862   Zn872   1.989   .     S
O862   C863    1.274   .     A
C863   C902    1.406   .     S
C864   C901    1.406   .     S
O865   C869    1.287   .     A
O865   Zn871   2.019   .     S
O866   C870    1.287   .     A
O866   Zn872   2.019   .     S
O867   C870    1.287   .     A
O867   Zn871   2.019   .     S
O868   C869    1.287   .     A
O868   Zn872   2.019   .     S
C869   C876    1.439   .     S
C870   C875    1.439   .     S
Zn871  N911    2.008   .     S
Zn872  N912    2.008   .     S
C873   C875    1.399   .     A
C873   C883    1.383   .     A
C873   H889    1.085   .     S
C874   H890    1.085   .     S
C874   C876    1.399   .     A
C874   C884    1.383   .     A
C875   C877    1.399   .     A
C876   C878    1.399   .     A
C877   H891    1.085   .     S
C877   C879    1.383   .     A
C878   H892    1.085   .     S
C878   C880    1.383   .     A
C879   C885    1.400   .     A
C879   C881    1.411   .     A
C880   C886    1.400   .     A
C880   C882    1.411   .     A
C881   C883    1.411   .     A
C881   C288    1.391   1_556 S
C882   C884    1.411   .     A
C883   C888    1.400   .     A
C884   C887    1.400   .     A
C885   H893    1.084   .     S
C885   C293    1.389   1_556 S
C886   H894    1.084   .     S
C887   H895    1.084   .     S
C888   H896    1.084   .     S
C888   C292    1.389   1_556 S
C897   C902    1.402   .     A
C897   N913    1.438   .     S
C898   N916    1.438   .     S
C898   C901    1.402   .     A
C898   C966    1.386   .     S
C899   N919    1.438   .     S
C899   C901    1.402   .     A
C899   C963    1.386   .     S
C900   C902    1.402   .     A
C900   N922    1.438   .     S
C903   H907    1.082   .     S
C903   N912    1.366   .     A
C904   H908    1.082   .     S
C904   N911    1.366   .     A
C904   C1103   1.416   .     S
C905   H909    1.082   .     S
C905   N912    1.366   .     A
C906   N911    1.366   .     A
C906   H910    1.082   .     S
C906   C1101   1.416   .     S
N913   O914    1.301   .     A
N913   O915    1.301   .     A
N916   O918    1.301   .     A
N916   O917    1.301   .     A
N919   O920    1.301   .     A
N919   O921    1.301   .     A
N922   O923    1.301   .     A
N922   O924    1.301   .     A
O925   Zn937   1.976   .     S
O925   C929    1.280   .     A
O926   C930    1.280   .     A
O926   Zn938   1.976   .     S
O927   Zn937   1.989   .     S
O927   C930    1.274   .     A
O928   Zn938   1.989   .     S
O928   C929    1.274   .     A
C929   C968    1.406   .     S
C930   C967    1.406   .     S
O931   C935    1.287   .     A
O931   Zn937   2.019   .     S
O932   C936    1.287   .     A
O932   Zn938   2.019   .     S
O933   C936    1.287   .     A
O933   Zn937   2.019   .     S
O934   C935    1.287   .     A
O934   Zn938   2.019   .     S
C935   C942    1.439   .     S
C936   C941    1.439   .     S
Zn937  N977    2.008   .     S
Zn938  N978    2.008   .     S
C939   C941    1.399   .     A
C939   C949    1.383   .     A
C939   H955    1.085   .     S
C940   H956    1.085   .     S
C940   C942    1.399   .     A
C940   C950    1.383   .     A
C941   C943    1.399   .     A
C942   C944    1.399   .     A
C943   H957    1.085   .     S
C943   C945    1.383   .     A
C944   H958    1.085   .     S
C944   C946    1.383   .     A
C945   C951    1.400   .     A
C945   C947    1.411   .     A
C946   C952    1.400   .     A
C946   C948    1.411   .     A
C947   C949    1.411   .     A
C947   C354    1.391   1_556 S
C948   C950    1.411   .     A
C949   C954    1.400   .     A
C950   C953    1.400   .     A
C951   H959    1.084   .     S
C951   C359    1.389   1_556 S
C952   H960    1.084   .     S
C953   H961    1.084   .     S
C954   H962    1.084   .     S
C954   C358    1.389   1_556 S
C963   C968    1.402   .     A
C963   N979    1.438   .     S
C964   N982    1.438   .     S
C964   C967    1.402   .     A
C964   C834    1.386   1_655 S
C965   N985    1.438   .     S
C965   C967    1.402   .     A
C965   C831    1.386   1_655 S
C966   C968    1.402   .     A
C966   N988    1.438   .     S
C969   H973    1.082   .     S
C969   N978    1.366   .     A
C970   H974    1.082   .     S
C970   N977    1.366   .     A
C970   C1169   1.416   .     S
C971   H975    1.082   .     S
C971   N978    1.366   .     A
C972   N977    1.366   .     A
C972   H976    1.082   .     S
C972   C1167   1.416   .     S
N979   O980    1.301   .     A
N979   O981    1.301   .     A
N982   O984    1.301   .     A
N982   O983    1.301   .     A
N985   O986    1.301   .     A
N985   O987    1.301   .     A
N988   O989    1.301   .     A
N988   O990    1.301   .     A
O991   Zn1003  1.976   .     S
O991   C995    1.280   .     A
O992   C996    1.280   .     A
O992   Zn1004  1.976   .     S
O993   Zn1003  1.989   .     S
O993   C996    1.274   .     A
O994   Zn1004  1.989   .     S
O994   C995    1.274   .     A
C995   C1034   1.406   .     S
C996   C1033   1.406   .     S
O997   C1001   1.287   .     A
O997   Zn1003  2.019   .     S
O998   C1002   1.287   .     A
O998   Zn1004  2.019   .     S
O999   C1002   1.287   .     A
O999   Zn1003  2.019   .     S
O1000  C1001   1.287   .     A
O1000  Zn1004  2.019   .     S
C1001  C1008   1.439   .     S
C1002  C1007   1.439   .     S
Zn1003 N1043   2.008   .     S
Zn1004 N1044   2.008   .     S
C1005  C1007   1.399   .     A
C1005  C1015   1.383   .     A
C1005  H1021   1.085   .     S
C1006  H1022   1.085   .     S
C1006  C1008   1.399   .     A
C1006  C1016   1.383   .     A
C1007  C1009   1.399   .     A
C1008  C1010   1.399   .     A
C1009  H1023   1.085   .     S
C1009  C1011   1.383   .     A
C1010  H1024   1.085   .     S
C1010  C1012   1.383   .     A
C1011  C1017   1.400   .     A
C1011  C1013   1.411   .     A
C1012  C1018   1.400   .     A
C1012  C1014   1.411   .     A
C1013  C1015   1.411   .     A
C1013  C420    1.391   1_556 S
C1014  C1016   1.411   .     A
C1015  C1020   1.400   .     A
C1016  C1019   1.400   .     A
C1017  H1025   1.084   .     S
C1017  C425    1.389   1_556 S
C1018  H1026   1.084   .     S
C1019  H1027   1.084   .     S
C1020  H1028   1.084   .     S
C1020  C424    1.389   1_556 S
C1029  C1034   1.402   .     A
C1029  N1045   1.438   .     S
C1029  C1163   1.386   1_455 S
C1030  N1048   1.438   .     S
C1030  C1033   1.402   .     A
C1030  C1098   1.386   .     S
C1031  N1051   1.438   .     S
C1031  C1033   1.402   .     A
C1031  C1095   1.386   .     S
C1032  C1034   1.402   .     A
C1032  N1054   1.438   .     S
C1032  C1162   1.386   1_455 S
C1035  H1039   1.082   .     S
C1035  N1044   1.366   .     A
C1036  H1040   1.082   .     S
C1036  N1043   1.366   .     A
C1036  C641    1.416   1_565 S
C1037  H1041   1.082   .     S
C1037  N1044   1.366   .     A
C1038  N1043   1.366   .     A
C1038  H1042   1.082   .     S
C1038  C639    1.416   1_565 S
N1045  O1046   1.301   .     A
N1045  O1047   1.301   .     A
N1048  O1050   1.301   .     A
N1048  O1049   1.301   .     A
N1051  O1052   1.301   .     A
N1051  O1053   1.301   .     A
N1054  O1055   1.301   .     A
N1054  O1056   1.301   .     A
O1057  Zn1069  1.976   .     S
O1057  C1061   1.280   .     A
O1058  C1062   1.280   .     A
O1058  Zn1070  1.976   .     S
O1059  Zn1069  1.989   .     S
O1059  C1062   1.274   .     A
O1060  Zn1070  1.989   .     S
O1060  C1061   1.274   .     A
C1061  C1100   1.406   .     S
C1062  C1099   1.406   .     S
O1063  C1067   1.287   .     A
O1063  Zn1069  2.019   .     S
O1064  C1068   1.287   .     A
O1064  Zn1070  2.019   .     S
O1065  C1068   1.287   .     A
O1065  Zn1069  2.019   .     S
O1066  C1067   1.287   .     A
O1066  Zn1070  2.019   .     S
C1067  C1074   1.439   .     S
C1068  C1073   1.439   .     S
Zn1069 N1109   2.008   .     S
Zn1070 N1110   2.008   .     S
C1071  C1073   1.399   .     A
C1071  C1081   1.383   .     A
C1071  H1087   1.085   .     S
C1072  H1088   1.085   .     S
C1072  C1074   1.399   .     A
C1072  C1082   1.383   .     A
C1073  C1075   1.399   .     A
C1074  C1076   1.399   .     A
C1075  H1089   1.085   .     S
C1075  C1077   1.383   .     A
C1076  H1090   1.085   .     S
C1076  C1078   1.383   .     A
C1077  C1083   1.400   .     A
C1077  C1079   1.411   .     A
C1078  C1084   1.400   .     A
C1078  C1080   1.411   .     A
C1079  C1081   1.411   .     A
C1079  C486    1.391   1_556 S
C1080  C1082   1.411   .     A
C1081  C1086   1.400   .     A
C1082  C1085   1.400   .     A
C1083  H1091   1.084   .     S
C1083  C491    1.389   1_556 S
C1084  H1092   1.084   .     S
C1085  H1093   1.084   .     S
C1086  H1094   1.084   .     S
C1086  C490    1.389   1_556 S
C1095  C1100   1.402   .     A
C1095  N1111   1.438   .     S
C1096  N1114   1.438   .     S
C1096  C1099   1.402   .     A
C1096  C1164   1.386   .     S
C1097  N1117   1.438   .     S
C1097  C1099   1.402   .     A
C1097  C1161   1.386   .     S
C1098  C1100   1.402   .     A
C1098  N1120   1.438   .     S
C1101  H1105   1.082   .     S
C1101  N1110   1.366   .     A
C1102  H1106   1.082   .     S
C1102  N1109   1.366   .     A
C1102  C707    1.416   1_565 S
C1103  H1107   1.082   .     S
C1103  N1110   1.366   .     A
C1104  N1109   1.366   .     A
C1104  H1108   1.082   .     S
C1104  C705    1.416   1_565 S
N1111  O1112   1.301   .     A
N1111  O1113   1.301   .     A
N1114  O1116   1.301   .     A
N1114  O1115   1.301   .     A
N1117  O1118   1.301   .     A
N1117  O1119   1.301   .     A
N1120  O1121   1.301   .     A
N1120  O1122   1.301   .     A
O1123  Zn1135  1.976   .     S
O1123  C1127   1.280   .     A
O1124  C1128   1.280   .     A
O1124  Zn1136  1.976   .     S
O1125  Zn1135  1.989   .     S
O1125  C1128   1.274   .     A
O1126  Zn1136  1.989   .     S
O1126  C1127   1.274   .     A
C1127  C1166   1.406   .     S
C1128  C1165   1.406   .     S
O1129  C1133   1.287   .     A
O1129  Zn1135  2.019   .     S
O1130  C1134   1.287   .     A
O1130  Zn1136  2.019   .     S
O1131  C1134   1.287   .     A
O1131  Zn1135  2.019   .     S
O1132  C1133   1.287   .     A
O1132  Zn1136  2.019   .     S
C1133  C1140   1.439   .     S
C1134  C1139   1.439   .     S
Zn1135 N1175   2.008   .     S
Zn1136 N1176   2.008   .     S
C1137  C1139   1.399   .     A
C1137  C1147   1.383   .     A
C1137  H1153   1.085   .     S
C1138  H1154   1.085   .     S
C1138  C1140   1.399   .     A
C1138  C1148   1.383   .     A
C1139  C1141   1.399   .     A
C1140  C1142   1.399   .     A
C1141  H1155   1.085   .     S
C1141  C1143   1.383   .     A
C1142  H1156   1.085   .     S
C1142  C1144   1.383   .     A
C1143  C1149   1.400   .     A
C1143  C1145   1.411   .     A
C1144  C1150   1.400   .     A
C1144  C1146   1.411   .     A
C1145  C1147   1.411   .     A
C1145  C552    1.391   1_556 S
C1146  C1148   1.411   .     A
C1147  C1152   1.400   .     A
C1148  C1151   1.400   .     A
C1149  H1157   1.084   .     S
C1149  C557    1.389   1_556 S
C1150  H1158   1.084   .     S
C1151  H1159   1.084   .     S
C1152  H1160   1.084   .     S
C1152  C556    1.389   1_556 S
C1161  C1166   1.402   .     A
C1161  N1177   1.438   .     S
C1162  N1180   1.438   .     S
C1162  C1165   1.402   .     A
C1162  C1032   1.386   1_655 S
C1163  N1183   1.438   .     S
C1163  C1165   1.402   .     A
C1163  C1029   1.386   1_655 S
C1164  C1166   1.402   .     A
C1164  N1186   1.438   .     S
C1167  H1171   1.082   .     S
C1167  N1176   1.366   .     A
C1168  H1172   1.082   .     S
C1168  N1175   1.366   .     A
C1168  C773    1.416   1_565 S
C1169  H1173   1.082   .     S
C1169  N1176   1.366   .     A
C1170  N1175   1.366   .     A
C1170  H1174   1.082   .     S
C1170  C771    1.416   1_565 S
N1177  O1178   1.301   .     A
N1177  O1179   1.301   .     A
N1180  O1182   1.301   .     A
N1180  O1181   1.301   .     A
N1183  O1184   1.301   .     A
N1183  O1185   1.301   .     A
N1186  O1187   1.301   .     A
N1186  O1188   1.301   .     A
