data_str_m3_o1_o2_pcu_sym.21
_audit_creation_date              2020-01-03
_audit_creation_method            'Materials Studio'
_symmetry_space_group_name_H-M    'P1'
_symmetry_Int_Tables_number       1
_symmetry_cell_setting            triclinic
loop_
_symmetry_equiv_pos_as_xyz
  x,y,z
_cell_length_a                    31.9501
_cell_length_b                    30.2211
_cell_length_c                    29.6730
_cell_angle_alpha                 90.5326
_cell_angle_beta                  93.2935
_cell_angle_gamma                 90.7306
loop_
_atom_site_label
_atom_site_type_symbol
_atom_site_fract_x
_atom_site_fract_y
_atom_site_fract_z
_atom_site_U_iso_or_equiv
_atom_site_adp_type
_atom_site_occupancy
C1     C     0.08693   0.16637   0.25006   0.00000  Uiso   1.00
C2     C     0.31393   0.19886   0.27515   0.00000  Uiso   1.00
C3     C     0.31008   0.13329   0.22660   0.00000  Uiso   1.00
C4     C     0.02350   0.19820   0.27570   0.00000  Uiso   1.00
C5     C     0.12558   0.19688   0.04857   0.00000  Uiso   1.00
C6     C     0.13385   0.12724   0.44844   0.00000  Uiso   1.00
C7     C     0.15153   0.20556   0.45405   0.00000  Uiso   1.00
C8     C     0.16743   0.13044   0.04411   0.00000  Uiso   1.00
C9     C     0.13381   0.19831   0.09481   0.00000  Uiso   1.00
C10    C     0.14092   0.12780   0.40293   0.00000  Uiso   1.00
C11    C     0.15837   0.20611   0.40851   0.00000  Uiso   1.00
C12    C     0.24645   0.16684   0.25013   0.00000  Uiso   1.00
C13    C     0.17545   0.13177   0.09036   0.00000  Uiso   1.00
C14    C     0.15901   0.16595   0.11563   0.00000  Uiso   1.00
C15    C     0.15523   0.16679   0.38322   0.00000  Uiso   1.00
C16    C     0.14289   0.16330   0.02310   0.00000  Uiso   1.00
C17    C     0.14071   0.16575   0.47436   0.00000  Uiso   1.00
C18    C     0.29075   0.16674   0.25025   0.00000  Uiso   1.00
C19    C     0.04276   0.16567   0.25093   0.00000  Uiso   1.00
C20    C     0.20716   0.04450   0.32679   0.00000  Uiso   1.00
C21    C     0.24817   0.07080   0.32356   0.00000  Uiso   1.00
C22    C     0.10299   0.28646   0.19584   0.00000  Uiso   1.00
C23    C     0.16565   0.16649   0.16397   0.00000  Uiso   1.00
C24    C     0.06317   0.29266   0.22112   0.00000  Uiso   1.00
C25    C     0.14216   0.03907   0.16790   0.00000  Uiso   1.00
C26    C     0.10108   0.06244   0.15550   0.00000  Uiso   1.00
C27    C     0.23737   0.29237   0.29285   0.00000  Uiso   1.00
C28    C     0.23783   0.26740   0.33746   0.00000  Uiso   1.00
C29    C     0.16433   0.16678   0.33589   0.00000  Uiso   1.00
C30    C     0.18937   0.02385   0.28263   0.00000  Uiso   1.00
C31    C     0.13984   0.30915   0.22139   0.00000  Uiso   1.00
C32    C     0.14597   0.02253   0.21599   0.00000  Uiso   1.00
C33    C     0.19497   0.31053   0.27700   0.00000  Uiso   1.00
C34    C     0.01972   0.13269   0.22703   0.00000  Uiso   1.00
H35    H     0.10657   0.22237   0.03255   0.00000  Uiso   1.00
H36    H     0.29924   0.22367   0.29489   0.00000  Uiso   1.00
H37    H     0.29200   0.10812   0.20754   0.00000  Uiso   1.00
H38    H     0.04159   0.22254   0.29582   0.00000  Uiso   1.00
H39    H     0.26210   0.06540   0.29056   0.00000  Uiso   1.00
H40    H     0.24312   0.10653   0.32949   0.00000  Uiso   1.00
H41    H     0.27153   0.06004   0.35028   0.00000  Uiso   1.00
H42    H     0.18303   0.06247   0.34382   0.00000  Uiso   1.00
H43    H     0.21365   0.01833   0.35196   0.00000  Uiso   1.00
H44    H     0.03730   0.27210   0.20505   0.00000  Uiso   1.00
H45    H     0.06845   0.28289   0.25690   0.00000  Uiso   1.00
H46    H     0.12454   0.09651   0.46379   0.00000  Uiso   1.00
H47    H     0.05367   0.32786   0.22039   0.00000  Uiso   1.00
H48    H     0.09711   0.29898   0.16122   0.00000  Uiso   1.00
H49    H     0.10857   0.25130   0.19033   0.00000  Uiso   1.00
H50    H     0.07382   0.04002   0.15922   0.00000  Uiso   1.00
H51    H     0.09747   0.09201   0.17674   0.00000  Uiso   1.00
H52    H     0.10085   0.07311   0.11978   0.00000  Uiso   1.00
H53    H     0.17026   0.05854   0.16080   0.00000  Uiso   1.00
H54    H     0.14517   0.01139   0.14349   0.00000  Uiso   1.00
H55    H     0.21160   0.27758   0.35773   0.00000  Uiso   1.00
H56    H     0.23666   0.23124   0.33180   0.00000  Uiso   1.00
H57    H     0.15692   0.23565   0.47378   0.00000  Uiso   1.00
H58    H     0.26754   0.27480   0.35758   0.00000  Uiso   1.00
H59    H     0.25116   0.27402   0.26536   0.00000  Uiso   1.00
H60    H     0.26054   0.31987   0.29761   0.00000  Uiso   1.00
H61    H     0.18187   0.10496   0.02457   0.00000  Uiso   1.00
H62    H     0.12024   0.22442   0.11423   0.00000  Uiso   1.00
H63    H     0.13528   0.09771   0.38345   0.00000  Uiso   1.00
H64    H     0.16692   0.23704   0.39359   0.00000  Uiso   1.00
H65    H     0.19528   0.10688   0.10617   0.00000  Uiso   1.00
H66    H     0.03471   0.10712   0.20827   0.00000  Uiso   1.00
N67    N     0.16667   0.28573   0.25000   0.00000  Uiso   1.00
N68    N     0.16667   0.04760   0.25000   0.00000  Uiso   1.00
O69    O     0.10559   0.20487   0.25000   0.00000  Uiso   1.00
O70    O     0.22774   0.12846   0.25001   0.00000  Uiso   1.00
O71    O     0.22774   0.20487   0.25001   0.00000  Uiso   1.00
O72    O     0.10559   0.12846   0.25000   0.00000  Uiso   1.00
O73    O     0.16666   0.20489   0.18453   0.00000  Uiso   1.00
O74    O     0.16667   0.12845   0.31547   0.00000  Uiso   1.00
O75    O     0.16667   0.20489   0.31547   0.00000  Uiso   1.00
O76    O     0.16666   0.12845   0.18453   0.00000  Uiso   1.00
Zn77   Zn    0.16667   0.21771   0.25000   0.00000  Uiso   1.00
Zn78   Zn    0.16667   0.11563   0.25000   0.00000  Uiso   1.00
C79    C     0.42027   0.16637   0.25006   0.00000  Uiso   1.00
C80    C     0.64726   0.19886   0.27515   0.00000  Uiso   1.00
C81    C     0.64342   0.13329   0.22660   0.00000  Uiso   1.00
C82    C     0.35683   0.19820   0.27570   0.00000  Uiso   1.00
C83    C     0.45892   0.19688   0.04857   0.00000  Uiso   1.00
C84    C     0.46719   0.12724   0.44844   0.00000  Uiso   1.00
C85    C     0.48486   0.20556   0.45405   0.00000  Uiso   1.00
C86    C     0.50076   0.13044   0.04411   0.00000  Uiso   1.00
C87    C     0.46714   0.19831   0.09481   0.00000  Uiso   1.00
C88    C     0.47425   0.12780   0.40293   0.00000  Uiso   1.00
C89    C     0.49170   0.20611   0.40851   0.00000  Uiso   1.00
C90    C     0.57978   0.16684   0.25013   0.00000  Uiso   1.00
C91    C     0.50879   0.13177   0.09036   0.00000  Uiso   1.00
C92    C     0.49235   0.16595   0.11563   0.00000  Uiso   1.00
C93    C     0.48856   0.16679   0.38322   0.00000  Uiso   1.00
C94    C     0.47623   0.16330   0.02310   0.00000  Uiso   1.00
C95    C     0.47405   0.16575   0.47436   0.00000  Uiso   1.00
C96    C     0.62409   0.16674   0.25025   0.00000  Uiso   1.00
C97    C     0.37610   0.16567   0.25093   0.00000  Uiso   1.00
C98    C     0.54050   0.04450   0.32679   0.00000  Uiso   1.00
C99    C     0.58150   0.07080   0.32356   0.00000  Uiso   1.00
C100   C     0.43632   0.28646   0.19584   0.00000  Uiso   1.00
C101   C     0.49898   0.16649   0.16397   0.00000  Uiso   1.00
C102   C     0.39650   0.29266   0.22112   0.00000  Uiso   1.00
C103   C     0.47549   0.03907   0.16790   0.00000  Uiso   1.00
C104   C     0.43441   0.06244   0.15550   0.00000  Uiso   1.00
C105   C     0.57071   0.29237   0.29285   0.00000  Uiso   1.00
C106   C     0.57117   0.26740   0.33746   0.00000  Uiso   1.00
C107   C     0.49766   0.16678   0.33589   0.00000  Uiso   1.00
C108   C     0.52270   0.02385   0.28263   0.00000  Uiso   1.00
C109   C     0.47317   0.30915   0.22139   0.00000  Uiso   1.00
C110   C     0.47930   0.02253   0.21599   0.00000  Uiso   1.00
C111   C     0.52830   0.31053   0.27700   0.00000  Uiso   1.00
C112   C     0.35305   0.13269   0.22703   0.00000  Uiso   1.00
H113   H     0.43991   0.22237   0.03255   0.00000  Uiso   1.00
H114   H     0.63257   0.22367   0.29489   0.00000  Uiso   1.00
H115   H     0.62533   0.10812   0.20754   0.00000  Uiso   1.00
H116   H     0.37492   0.22254   0.29582   0.00000  Uiso   1.00
H117   H     0.59543   0.06540   0.29056   0.00000  Uiso   1.00
H118   H     0.57645   0.10653   0.32949   0.00000  Uiso   1.00
H119   H     0.60486   0.06004   0.35028   0.00000  Uiso   1.00
H120   H     0.51636   0.06247   0.34382   0.00000  Uiso   1.00
H121   H     0.54698   0.01833   0.35196   0.00000  Uiso   1.00
H122   H     0.37063   0.27210   0.20505   0.00000  Uiso   1.00
H123   H     0.40179   0.28289   0.25690   0.00000  Uiso   1.00
H124   H     0.45788   0.09651   0.46379   0.00000  Uiso   1.00
H125   H     0.38700   0.32786   0.22039   0.00000  Uiso   1.00
H126   H     0.43044   0.29898   0.16122   0.00000  Uiso   1.00
H127   H     0.44190   0.25130   0.19033   0.00000  Uiso   1.00
H128   H     0.40715   0.04002   0.15922   0.00000  Uiso   1.00
H129   H     0.43081   0.09201   0.17674   0.00000  Uiso   1.00
H130   H     0.43418   0.07311   0.11978   0.00000  Uiso   1.00
H131   H     0.50359   0.05854   0.16080   0.00000  Uiso   1.00
H132   H     0.47851   0.01139   0.14349   0.00000  Uiso   1.00
H133   H     0.54493   0.27758   0.35773   0.00000  Uiso   1.00
H134   H     0.56999   0.23124   0.33180   0.00000  Uiso   1.00
H135   H     0.49025   0.23565   0.47378   0.00000  Uiso   1.00
H136   H     0.60087   0.27480   0.35758   0.00000  Uiso   1.00
H137   H     0.58449   0.27402   0.26536   0.00000  Uiso   1.00
H138   H     0.59387   0.31987   0.29761   0.00000  Uiso   1.00
H139   H     0.51521   0.10496   0.02457   0.00000  Uiso   1.00
H140   H     0.45358   0.22442   0.11423   0.00000  Uiso   1.00
H141   H     0.46861   0.09771   0.38345   0.00000  Uiso   1.00
H142   H     0.50026   0.23704   0.39359   0.00000  Uiso   1.00
H143   H     0.52861   0.10688   0.10617   0.00000  Uiso   1.00
H144   H     0.36804   0.10712   0.20827   0.00000  Uiso   1.00
N145   N     0.50000   0.28573   0.25000   0.00000  Uiso   1.00
N146   N     0.50000   0.04760   0.25000   0.00000  Uiso   1.00
O147   O     0.43892   0.20487   0.25000   0.00000  Uiso   1.00
O148   O     0.56108   0.12846   0.25001   0.00000  Uiso   1.00
O149   O     0.56108   0.20487   0.25001   0.00000  Uiso   1.00
O150   O     0.43892   0.12846   0.25000   0.00000  Uiso   1.00
O151   O     0.50000   0.20489   0.18453   0.00000  Uiso   1.00
O152   O     0.50000   0.12845   0.31547   0.00000  Uiso   1.00
O153   O     0.50000   0.20489   0.31547   0.00000  Uiso   1.00
O154   O     0.50000   0.12845   0.18453   0.00000  Uiso   1.00
Zn155  Zn    0.50000   0.21771   0.25000   0.00000  Uiso   1.00
Zn156  Zn    0.50000   0.11563   0.25000   0.00000  Uiso   1.00
C157   C     0.75360   0.16637   0.25006   0.00000  Uiso   1.00
C158   C     0.98060   0.19886   0.27515   0.00000  Uiso   1.00
C159   C     0.97675   0.13329   0.22660   0.00000  Uiso   1.00
C160   C     0.69016   0.19820   0.27570   0.00000  Uiso   1.00
C161   C     0.79225   0.19688   0.04857   0.00000  Uiso   1.00
C162   C     0.80052   0.12724   0.44844   0.00000  Uiso   1.00
C163   C     0.81819   0.20556   0.45405   0.00000  Uiso   1.00
C164   C     0.83410   0.13044   0.04411   0.00000  Uiso   1.00
C165   C     0.80048   0.19831   0.09481   0.00000  Uiso   1.00
C166   C     0.80759   0.12780   0.40293   0.00000  Uiso   1.00
C167   C     0.82504   0.20611   0.40851   0.00000  Uiso   1.00
C168   C     0.91312   0.16684   0.25013   0.00000  Uiso   1.00
C169   C     0.84212   0.13177   0.09036   0.00000  Uiso   1.00
C170   C     0.82568   0.16595   0.11563   0.00000  Uiso   1.00
C171   C     0.82189   0.16679   0.38322   0.00000  Uiso   1.00
C172   C     0.80956   0.16330   0.02310   0.00000  Uiso   1.00
C173   C     0.80738   0.16575   0.47436   0.00000  Uiso   1.00
C174   C     0.95742   0.16674   0.25025   0.00000  Uiso   1.00
C175   C     0.70943   0.16567   0.25093   0.00000  Uiso   1.00
C176   C     0.87383   0.04450   0.32679   0.00000  Uiso   1.00
C177   C     0.91483   0.07080   0.32356   0.00000  Uiso   1.00
C178   C     0.76966   0.28646   0.19584   0.00000  Uiso   1.00
C179   C     0.83232   0.16649   0.16397   0.00000  Uiso   1.00
C180   C     0.72983   0.29266   0.22112   0.00000  Uiso   1.00
C181   C     0.80883   0.03907   0.16790   0.00000  Uiso   1.00
C182   C     0.76774   0.06244   0.15550   0.00000  Uiso   1.00
C183   C     0.90404   0.29237   0.29285   0.00000  Uiso   1.00
C184   C     0.90450   0.26740   0.33746   0.00000  Uiso   1.00
C185   C     0.83099   0.16678   0.33589   0.00000  Uiso   1.00
C186   C     0.85604   0.02385   0.28263   0.00000  Uiso   1.00
C187   C     0.80650   0.30915   0.22139   0.00000  Uiso   1.00
C188   C     0.81263   0.02253   0.21599   0.00000  Uiso   1.00
C189   C     0.86164   0.31053   0.27700   0.00000  Uiso   1.00
C190   C     0.68638   0.13269   0.22703   0.00000  Uiso   1.00
H191   H     0.77324   0.22237   0.03255   0.00000  Uiso   1.00
H192   H     0.96591   0.22367   0.29489   0.00000  Uiso   1.00
H193   H     0.95867   0.10812   0.20754   0.00000  Uiso   1.00
H194   H     0.70825   0.22254   0.29582   0.00000  Uiso   1.00
H195   H     0.92877   0.06540   0.29056   0.00000  Uiso   1.00
H196   H     0.90978   0.10653   0.32949   0.00000  Uiso   1.00
H197   H     0.93820   0.06004   0.35028   0.00000  Uiso   1.00
H198   H     0.84969   0.06247   0.34382   0.00000  Uiso   1.00
H199   H     0.88031   0.01833   0.35196   0.00000  Uiso   1.00
H200   H     0.70396   0.27210   0.20505   0.00000  Uiso   1.00
H201   H     0.73512   0.28289   0.25690   0.00000  Uiso   1.00
H202   H     0.79121   0.09651   0.46379   0.00000  Uiso   1.00
H203   H     0.72033   0.32786   0.22039   0.00000  Uiso   1.00
H204   H     0.76377   0.29898   0.16122   0.00000  Uiso   1.00
H205   H     0.77524   0.25130   0.19033   0.00000  Uiso   1.00
H206   H     0.74048   0.04002   0.15922   0.00000  Uiso   1.00
H207   H     0.76414   0.09201   0.17674   0.00000  Uiso   1.00
H208   H     0.76752   0.07311   0.11978   0.00000  Uiso   1.00
H209   H     0.83692   0.05854   0.16080   0.00000  Uiso   1.00
H210   H     0.81184   0.01139   0.14349   0.00000  Uiso   1.00
H211   H     0.87826   0.27758   0.35773   0.00000  Uiso   1.00
H212   H     0.90332   0.23124   0.33180   0.00000  Uiso   1.00
H213   H     0.82359   0.23565   0.47378   0.00000  Uiso   1.00
H214   H     0.93420   0.27480   0.35758   0.00000  Uiso   1.00
H215   H     0.91783   0.27402   0.26536   0.00000  Uiso   1.00
H216   H     0.92721   0.31987   0.29761   0.00000  Uiso   1.00
H217   H     0.84854   0.10496   0.02457   0.00000  Uiso   1.00
H218   H     0.78691   0.22442   0.11423   0.00000  Uiso   1.00
H219   H     0.80194   0.09771   0.38345   0.00000  Uiso   1.00
H220   H     0.83359   0.23704   0.39359   0.00000  Uiso   1.00
H221   H     0.86194   0.10688   0.10617   0.00000  Uiso   1.00
H222   H     0.70137   0.10712   0.20827   0.00000  Uiso   1.00
N223   N     0.83333   0.28573   0.25000   0.00000  Uiso   1.00
N224   N     0.83333   0.04760   0.25000   0.00000  Uiso   1.00
O225   O     0.77226   0.20487   0.25000   0.00000  Uiso   1.00
O226   O     0.89441   0.12846   0.25001   0.00000  Uiso   1.00
O227   O     0.89441   0.20487   0.25001   0.00000  Uiso   1.00
O228   O     0.77226   0.12846   0.25000   0.00000  Uiso   1.00
O229   O     0.83333   0.20489   0.18453   0.00000  Uiso   1.00
O230   O     0.83334   0.12845   0.31547   0.00000  Uiso   1.00
O231   O     0.83334   0.20489   0.31547   0.00000  Uiso   1.00
O232   O     0.83333   0.12845   0.18453   0.00000  Uiso   1.00
Zn233  Zn    0.83333   0.21771   0.25000   0.00000  Uiso   1.00
Zn234  Zn    0.83333   0.11563   0.25000   0.00000  Uiso   1.00
C235   C     0.08693   0.49970   0.25006   0.00000  Uiso   1.00
C236   C     0.31393   0.53219   0.27515   0.00000  Uiso   1.00
C237   C     0.31008   0.46662   0.22660   0.00000  Uiso   1.00
C238   C     0.02350   0.53153   0.27570   0.00000  Uiso   1.00
C239   C     0.12558   0.53021   0.04857   0.00000  Uiso   1.00
C240   C     0.13385   0.46057   0.44844   0.00000  Uiso   1.00
C241   C     0.15153   0.53889   0.45405   0.00000  Uiso   1.00
C242   C     0.16743   0.46378   0.04411   0.00000  Uiso   1.00
C243   C     0.13381   0.53165   0.09481   0.00000  Uiso   1.00
C244   C     0.14092   0.46113   0.40293   0.00000  Uiso   1.00
C245   C     0.15837   0.53945   0.40851   0.00000  Uiso   1.00
C246   C     0.24645   0.50017   0.25013   0.00000  Uiso   1.00
C247   C     0.17545   0.46510   0.09036   0.00000  Uiso   1.00
C248   C     0.15901   0.49929   0.11563   0.00000  Uiso   1.00
C249   C     0.15523   0.50013   0.38322   0.00000  Uiso   1.00
C250   C     0.14289   0.49664   0.02310   0.00000  Uiso   1.00
C251   C     0.14071   0.49908   0.47436   0.00000  Uiso   1.00
C252   C     0.29075   0.50007   0.25025   0.00000  Uiso   1.00
C253   C     0.04276   0.49900   0.25093   0.00000  Uiso   1.00
C254   C     0.20716   0.37784   0.32679   0.00000  Uiso   1.00
C255   C     0.24817   0.40414   0.32356   0.00000  Uiso   1.00
C256   C     0.10299   0.61979   0.19584   0.00000  Uiso   1.00
C257   C     0.16565   0.49982   0.16397   0.00000  Uiso   1.00
C258   C     0.06317   0.62600   0.22112   0.00000  Uiso   1.00
C259   C     0.14216   0.37240   0.16790   0.00000  Uiso   1.00
C260   C     0.10108   0.39578   0.15550   0.00000  Uiso   1.00
C261   C     0.23737   0.62571   0.29285   0.00000  Uiso   1.00
C262   C     0.23783   0.60073   0.33746   0.00000  Uiso   1.00
C263   C     0.16433   0.50011   0.33589   0.00000  Uiso   1.00
C264   C     0.18937   0.35719   0.28263   0.00000  Uiso   1.00
C265   C     0.13984   0.64248   0.22139   0.00000  Uiso   1.00
C266   C     0.14597   0.35586   0.21599   0.00000  Uiso   1.00
C267   C     0.19497   0.64387   0.27700   0.00000  Uiso   1.00
C268   C     0.01972   0.46603   0.22703   0.00000  Uiso   1.00
H269   H     0.10657   0.55570   0.03255   0.00000  Uiso   1.00
H270   H     0.29924   0.55700   0.29489   0.00000  Uiso   1.00
H271   H     0.29200   0.44146   0.20754   0.00000  Uiso   1.00
H272   H     0.04159   0.55587   0.29582   0.00000  Uiso   1.00
H273   H     0.26210   0.39874   0.29056   0.00000  Uiso   1.00
H274   H     0.24312   0.43987   0.32949   0.00000  Uiso   1.00
H275   H     0.27153   0.39338   0.35028   0.00000  Uiso   1.00
H276   H     0.18303   0.39581   0.34382   0.00000  Uiso   1.00
H277   H     0.21365   0.35166   0.35196   0.00000  Uiso   1.00
H278   H     0.03730   0.60543   0.20505   0.00000  Uiso   1.00
H279   H     0.06845   0.61622   0.25690   0.00000  Uiso   1.00
H280   H     0.12454   0.42984   0.46379   0.00000  Uiso   1.00
H281   H     0.05367   0.66120   0.22039   0.00000  Uiso   1.00
H282   H     0.09711   0.63232   0.16122   0.00000  Uiso   1.00
H283   H     0.10857   0.58463   0.19033   0.00000  Uiso   1.00
H284   H     0.07382   0.37335   0.15922   0.00000  Uiso   1.00
H285   H     0.09747   0.42534   0.17674   0.00000  Uiso   1.00
H286   H     0.10085   0.40645   0.11978   0.00000  Uiso   1.00
H287   H     0.17026   0.39187   0.16080   0.00000  Uiso   1.00
H288   H     0.14517   0.34472   0.14349   0.00000  Uiso   1.00
H289   H     0.21160   0.61091   0.35773   0.00000  Uiso   1.00
H290   H     0.23666   0.56457   0.33180   0.00000  Uiso   1.00
H291   H     0.15692   0.56898   0.47378   0.00000  Uiso   1.00
H292   H     0.26754   0.60814   0.35758   0.00000  Uiso   1.00
H293   H     0.25116   0.60735   0.26536   0.00000  Uiso   1.00
H294   H     0.26054   0.65320   0.29761   0.00000  Uiso   1.00
H295   H     0.18187   0.43829   0.02457   0.00000  Uiso   1.00
H296   H     0.12024   0.55775   0.11423   0.00000  Uiso   1.00
H297   H     0.13528   0.43105   0.38345   0.00000  Uiso   1.00
H298   H     0.16692   0.57038   0.39359   0.00000  Uiso   1.00
H299   H     0.19528   0.44021   0.10617   0.00000  Uiso   1.00
H300   H     0.03471   0.44046   0.20827   0.00000  Uiso   1.00
N301   N     0.16667   0.61907   0.25000   0.00000  Uiso   1.00
N302   N     0.16667   0.38093   0.25000   0.00000  Uiso   1.00
O303   O     0.10559   0.53821   0.25000   0.00000  Uiso   1.00
O304   O     0.22774   0.46179   0.25001   0.00000  Uiso   1.00
O305   O     0.22774   0.53821   0.25001   0.00000  Uiso   1.00
O306   O     0.10559   0.46179   0.25000   0.00000  Uiso   1.00
O307   O     0.16666   0.53822   0.18453   0.00000  Uiso   1.00
O308   O     0.16667   0.46178   0.31547   0.00000  Uiso   1.00
O309   O     0.16667   0.53822   0.31547   0.00000  Uiso   1.00
O310   O     0.16666   0.46178   0.18453   0.00000  Uiso   1.00
Zn311  Zn    0.16667   0.55104   0.25000   0.00000  Uiso   1.00
Zn312  Zn    0.16667   0.44896   0.25000   0.00000  Uiso   1.00
C313   C     0.42027   0.49970   0.25006   0.00000  Uiso   1.00
C314   C     0.64726   0.53219   0.27515   0.00000  Uiso   1.00
C315   C     0.64342   0.46662   0.22660   0.00000  Uiso   1.00
C316   C     0.35683   0.53153   0.27570   0.00000  Uiso   1.00
C317   C     0.45892   0.53021   0.04857   0.00000  Uiso   1.00
C318   C     0.46719   0.46057   0.44844   0.00000  Uiso   1.00
C319   C     0.48486   0.53889   0.45405   0.00000  Uiso   1.00
C320   C     0.50076   0.46378   0.04411   0.00000  Uiso   1.00
C321   C     0.46714   0.53165   0.09481   0.00000  Uiso   1.00
C322   C     0.47425   0.46113   0.40293   0.00000  Uiso   1.00
C323   C     0.49170   0.53945   0.40851   0.00000  Uiso   1.00
C324   C     0.57978   0.50017   0.25013   0.00000  Uiso   1.00
C325   C     0.50879   0.46510   0.09036   0.00000  Uiso   1.00
C326   C     0.49235   0.49929   0.11563   0.00000  Uiso   1.00
C327   C     0.48856   0.50013   0.38322   0.00000  Uiso   1.00
C328   C     0.47623   0.49664   0.02310   0.00000  Uiso   1.00
C329   C     0.47405   0.49908   0.47436   0.00000  Uiso   1.00
C330   C     0.62409   0.50007   0.25025   0.00000  Uiso   1.00
C331   C     0.37610   0.49900   0.25093   0.00000  Uiso   1.00
C332   C     0.54050   0.37784   0.32679   0.00000  Uiso   1.00
C333   C     0.58150   0.40414   0.32356   0.00000  Uiso   1.00
C334   C     0.43632   0.61979   0.19584   0.00000  Uiso   1.00
C335   C     0.49898   0.49982   0.16397   0.00000  Uiso   1.00
C336   C     0.39650   0.62600   0.22112   0.00000  Uiso   1.00
C337   C     0.47549   0.37240   0.16790   0.00000  Uiso   1.00
C338   C     0.43441   0.39578   0.15550   0.00000  Uiso   1.00
C339   C     0.57071   0.62571   0.29285   0.00000  Uiso   1.00
C340   C     0.57117   0.60073   0.33746   0.00000  Uiso   1.00
C341   C     0.49766   0.50011   0.33589   0.00000  Uiso   1.00
C342   C     0.52270   0.35719   0.28263   0.00000  Uiso   1.00
C343   C     0.47317   0.64248   0.22139   0.00000  Uiso   1.00
C344   C     0.47930   0.35586   0.21599   0.00000  Uiso   1.00
C345   C     0.52830   0.64387   0.27700   0.00000  Uiso   1.00
C346   C     0.35305   0.46603   0.22703   0.00000  Uiso   1.00
H347   H     0.43991   0.55570   0.03255   0.00000  Uiso   1.00
H348   H     0.63257   0.55700   0.29489   0.00000  Uiso   1.00
H349   H     0.62533   0.44146   0.20754   0.00000  Uiso   1.00
H350   H     0.37492   0.55587   0.29582   0.00000  Uiso   1.00
H351   H     0.59543   0.39874   0.29056   0.00000  Uiso   1.00
H352   H     0.57645   0.43987   0.32949   0.00000  Uiso   1.00
H353   H     0.60486   0.39338   0.35028   0.00000  Uiso   1.00
H354   H     0.51636   0.39581   0.34382   0.00000  Uiso   1.00
H355   H     0.54698   0.35166   0.35196   0.00000  Uiso   1.00
H356   H     0.37063   0.60543   0.20505   0.00000  Uiso   1.00
H357   H     0.40179   0.61622   0.25690   0.00000  Uiso   1.00
H358   H     0.45788   0.42984   0.46379   0.00000  Uiso   1.00
H359   H     0.38700   0.66120   0.22039   0.00000  Uiso   1.00
H360   H     0.43044   0.63232   0.16122   0.00000  Uiso   1.00
H361   H     0.44190   0.58463   0.19033   0.00000  Uiso   1.00
H362   H     0.40715   0.37335   0.15922   0.00000  Uiso   1.00
H363   H     0.43081   0.42534   0.17674   0.00000  Uiso   1.00
H364   H     0.43418   0.40645   0.11978   0.00000  Uiso   1.00
H365   H     0.50359   0.39187   0.16080   0.00000  Uiso   1.00
H366   H     0.47851   0.34472   0.14349   0.00000  Uiso   1.00
H367   H     0.54493   0.61091   0.35773   0.00000  Uiso   1.00
H368   H     0.56999   0.56457   0.33180   0.00000  Uiso   1.00
H369   H     0.49025   0.56898   0.47378   0.00000  Uiso   1.00
H370   H     0.60087   0.60814   0.35758   0.00000  Uiso   1.00
H371   H     0.58449   0.60735   0.26536   0.00000  Uiso   1.00
H372   H     0.59387   0.65320   0.29761   0.00000  Uiso   1.00
H373   H     0.51521   0.43829   0.02457   0.00000  Uiso   1.00
H374   H     0.45358   0.55775   0.11423   0.00000  Uiso   1.00
H375   H     0.46861   0.43105   0.38345   0.00000  Uiso   1.00
H376   H     0.50026   0.57038   0.39359   0.00000  Uiso   1.00
H377   H     0.52861   0.44021   0.10617   0.00000  Uiso   1.00
H378   H     0.36804   0.44046   0.20827   0.00000  Uiso   1.00
N379   N     0.50000   0.61907   0.25000   0.00000  Uiso   1.00
N380   N     0.50000   0.38093   0.25000   0.00000  Uiso   1.00
O381   O     0.43892   0.53821   0.25000   0.00000  Uiso   1.00
O382   O     0.56108   0.46179   0.25001   0.00000  Uiso   1.00
O383   O     0.56108   0.53821   0.25001   0.00000  Uiso   1.00
O384   O     0.43892   0.46179   0.25000   0.00000  Uiso   1.00
O385   O     0.50000   0.53822   0.18453   0.00000  Uiso   1.00
O386   O     0.50000   0.46178   0.31547   0.00000  Uiso   1.00
O387   O     0.50000   0.53822   0.31547   0.00000  Uiso   1.00
O388   O     0.50000   0.46178   0.18453   0.00000  Uiso   1.00
Zn389  Zn    0.50000   0.55104   0.25000   0.00000  Uiso   1.00
Zn390  Zn    0.50000   0.44896   0.25000   0.00000  Uiso   1.00
C391   C     0.75360   0.49970   0.25006   0.00000  Uiso   1.00
C392   C     0.98060   0.53219   0.27515   0.00000  Uiso   1.00
C393   C     0.97675   0.46662   0.22660   0.00000  Uiso   1.00
C394   C     0.69016   0.53153   0.27570   0.00000  Uiso   1.00
C395   C     0.79225   0.53021   0.04857   0.00000  Uiso   1.00
C396   C     0.80052   0.46057   0.44844   0.00000  Uiso   1.00
C397   C     0.81819   0.53889   0.45405   0.00000  Uiso   1.00
C398   C     0.83410   0.46378   0.04411   0.00000  Uiso   1.00
C399   C     0.80048   0.53165   0.09481   0.00000  Uiso   1.00
C400   C     0.80759   0.46113   0.40293   0.00000  Uiso   1.00
C401   C     0.82504   0.53945   0.40851   0.00000  Uiso   1.00
C402   C     0.91312   0.50017   0.25013   0.00000  Uiso   1.00
C403   C     0.84212   0.46510   0.09036   0.00000  Uiso   1.00
C404   C     0.82568   0.49929   0.11563   0.00000  Uiso   1.00
C405   C     0.82189   0.50013   0.38322   0.00000  Uiso   1.00
C406   C     0.80956   0.49664   0.02310   0.00000  Uiso   1.00
C407   C     0.80738   0.49908   0.47436   0.00000  Uiso   1.00
C408   C     0.95742   0.50007   0.25025   0.00000  Uiso   1.00
C409   C     0.70943   0.49900   0.25093   0.00000  Uiso   1.00
C410   C     0.87383   0.37784   0.32679   0.00000  Uiso   1.00
C411   C     0.91483   0.40414   0.32356   0.00000  Uiso   1.00
C412   C     0.76966   0.61979   0.19584   0.00000  Uiso   1.00
C413   C     0.83232   0.49982   0.16397   0.00000  Uiso   1.00
C414   C     0.72983   0.62600   0.22112   0.00000  Uiso   1.00
C415   C     0.80883   0.37240   0.16790   0.00000  Uiso   1.00
C416   C     0.76774   0.39578   0.15550   0.00000  Uiso   1.00
C417   C     0.90404   0.62571   0.29285   0.00000  Uiso   1.00
C418   C     0.90450   0.60073   0.33746   0.00000  Uiso   1.00
C419   C     0.83099   0.50011   0.33589   0.00000  Uiso   1.00
C420   C     0.85604   0.35719   0.28263   0.00000  Uiso   1.00
C421   C     0.80650   0.64248   0.22139   0.00000  Uiso   1.00
C422   C     0.81263   0.35586   0.21599   0.00000  Uiso   1.00
C423   C     0.86164   0.64387   0.27700   0.00000  Uiso   1.00
C424   C     0.68638   0.46603   0.22703   0.00000  Uiso   1.00
H425   H     0.77324   0.55570   0.03255   0.00000  Uiso   1.00
H426   H     0.96591   0.55700   0.29489   0.00000  Uiso   1.00
H427   H     0.95867   0.44146   0.20754   0.00000  Uiso   1.00
H428   H     0.70825   0.55587   0.29582   0.00000  Uiso   1.00
H429   H     0.92877   0.39874   0.29056   0.00000  Uiso   1.00
H430   H     0.90978   0.43987   0.32949   0.00000  Uiso   1.00
H431   H     0.93820   0.39338   0.35028   0.00000  Uiso   1.00
H432   H     0.84969   0.39581   0.34382   0.00000  Uiso   1.00
H433   H     0.88031   0.35166   0.35196   0.00000  Uiso   1.00
H434   H     0.70396   0.60543   0.20505   0.00000  Uiso   1.00
H435   H     0.73512   0.61622   0.25690   0.00000  Uiso   1.00
H436   H     0.79121   0.42984   0.46379   0.00000  Uiso   1.00
H437   H     0.72033   0.66120   0.22039   0.00000  Uiso   1.00
H438   H     0.76377   0.63232   0.16122   0.00000  Uiso   1.00
H439   H     0.77524   0.58463   0.19033   0.00000  Uiso   1.00
H440   H     0.74048   0.37335   0.15922   0.00000  Uiso   1.00
H441   H     0.76414   0.42534   0.17674   0.00000  Uiso   1.00
H442   H     0.76752   0.40645   0.11978   0.00000  Uiso   1.00
H443   H     0.83692   0.39187   0.16080   0.00000  Uiso   1.00
H444   H     0.81184   0.34472   0.14349   0.00000  Uiso   1.00
H445   H     0.87826   0.61091   0.35773   0.00000  Uiso   1.00
H446   H     0.90332   0.56457   0.33180   0.00000  Uiso   1.00
H447   H     0.82359   0.56898   0.47378   0.00000  Uiso   1.00
H448   H     0.93420   0.60814   0.35758   0.00000  Uiso   1.00
H449   H     0.91783   0.60735   0.26536   0.00000  Uiso   1.00
H450   H     0.92721   0.65320   0.29761   0.00000  Uiso   1.00
H451   H     0.84854   0.43829   0.02457   0.00000  Uiso   1.00
H452   H     0.78691   0.55775   0.11423   0.00000  Uiso   1.00
H453   H     0.80194   0.43105   0.38345   0.00000  Uiso   1.00
H454   H     0.83359   0.57038   0.39359   0.00000  Uiso   1.00
H455   H     0.86194   0.44021   0.10617   0.00000  Uiso   1.00
H456   H     0.70137   0.44046   0.20827   0.00000  Uiso   1.00
N457   N     0.83333   0.61907   0.25000   0.00000  Uiso   1.00
N458   N     0.83333   0.38093   0.25000   0.00000  Uiso   1.00
O459   O     0.77226   0.53821   0.25000   0.00000  Uiso   1.00
O460   O     0.89441   0.46179   0.25001   0.00000  Uiso   1.00
O461   O     0.89441   0.53821   0.25001   0.00000  Uiso   1.00
O462   O     0.77226   0.46179   0.25000   0.00000  Uiso   1.00
O463   O     0.83333   0.53822   0.18453   0.00000  Uiso   1.00
O464   O     0.83334   0.46178   0.31547   0.00000  Uiso   1.00
O465   O     0.83334   0.53822   0.31547   0.00000  Uiso   1.00
O466   O     0.83333   0.46178   0.18453   0.00000  Uiso   1.00
Zn467  Zn    0.83333   0.55104   0.25000   0.00000  Uiso   1.00
Zn468  Zn    0.83333   0.44896   0.25000   0.00000  Uiso   1.00
C469   C     0.08693   0.83303   0.25006   0.00000  Uiso   1.00
C470   C     0.31393   0.86552   0.27515   0.00000  Uiso   1.00
C471   C     0.31008   0.79995   0.22660   0.00000  Uiso   1.00
C472   C     0.02350   0.86486   0.27570   0.00000  Uiso   1.00
C473   C     0.12558   0.86354   0.04857   0.00000  Uiso   1.00
C474   C     0.13385   0.79390   0.44844   0.00000  Uiso   1.00
C475   C     0.15153   0.87223   0.45405   0.00000  Uiso   1.00
C476   C     0.16743   0.79711   0.04411   0.00000  Uiso   1.00
C477   C     0.13381   0.86498   0.09481   0.00000  Uiso   1.00
C478   C     0.14092   0.79447   0.40293   0.00000  Uiso   1.00
C479   C     0.15837   0.87278   0.40851   0.00000  Uiso   1.00
C480   C     0.24645   0.83350   0.25013   0.00000  Uiso   1.00
C481   C     0.17545   0.79844   0.09036   0.00000  Uiso   1.00
C482   C     0.15901   0.83262   0.11563   0.00000  Uiso   1.00
C483   C     0.15523   0.83346   0.38322   0.00000  Uiso   1.00
C484   C     0.14289   0.82997   0.02310   0.00000  Uiso   1.00
C485   C     0.14071   0.83241   0.47436   0.00000  Uiso   1.00
C486   C     0.29075   0.83340   0.25025   0.00000  Uiso   1.00
C487   C     0.04276   0.83234   0.25093   0.00000  Uiso   1.00
C488   C     0.20716   0.71117   0.32679   0.00000  Uiso   1.00
C489   C     0.24817   0.73747   0.32356   0.00000  Uiso   1.00
C490   C     0.10299   0.95313   0.19584   0.00000  Uiso   1.00
C491   C     0.16565   0.83315   0.16397   0.00000  Uiso   1.00
C492   C     0.06317   0.95933   0.22112   0.00000  Uiso   1.00
C493   C     0.14216   0.70573   0.16790   0.00000  Uiso   1.00
C494   C     0.10108   0.72911   0.15550   0.00000  Uiso   1.00
C495   C     0.23737   0.95904   0.29285   0.00000  Uiso   1.00
C496   C     0.23783   0.93407   0.33746   0.00000  Uiso   1.00
C497   C     0.16433   0.83344   0.33589   0.00000  Uiso   1.00
C498   C     0.18937   0.69052   0.28263   0.00000  Uiso   1.00
C499   C     0.13984   0.97581   0.22139   0.00000  Uiso   1.00
C500   C     0.14597   0.68919   0.21599   0.00000  Uiso   1.00
C501   C     0.19497   0.97720   0.27700   0.00000  Uiso   1.00
C502   C     0.01972   0.79936   0.22703   0.00000  Uiso   1.00
H503   H     0.10657   0.88903   0.03255   0.00000  Uiso   1.00
H504   H     0.29924   0.89033   0.29489   0.00000  Uiso   1.00
H505   H     0.29200   0.77479   0.20754   0.00000  Uiso   1.00
H506   H     0.04159   0.88921   0.29582   0.00000  Uiso   1.00
H507   H     0.26210   0.73207   0.29056   0.00000  Uiso   1.00
H508   H     0.24312   0.77320   0.32949   0.00000  Uiso   1.00
H509   H     0.27153   0.72671   0.35028   0.00000  Uiso   1.00
H510   H     0.18303   0.72914   0.34382   0.00000  Uiso   1.00
H511   H     0.21365   0.68500   0.35196   0.00000  Uiso   1.00
H512   H     0.03730   0.93876   0.20505   0.00000  Uiso   1.00
H513   H     0.06845   0.94955   0.25690   0.00000  Uiso   1.00
H514   H     0.12454   0.76318   0.46379   0.00000  Uiso   1.00
H515   H     0.05367   0.99453   0.22039   0.00000  Uiso   1.00
H516   H     0.09711   0.96565   0.16122   0.00000  Uiso   1.00
H517   H     0.10857   0.91797   0.19033   0.00000  Uiso   1.00
H518   H     0.07382   0.70668   0.15922   0.00000  Uiso   1.00
H519   H     0.09747   0.75867   0.17674   0.00000  Uiso   1.00
H520   H     0.10085   0.73978   0.11978   0.00000  Uiso   1.00
H521   H     0.17026   0.72521   0.16080   0.00000  Uiso   1.00
H522   H     0.14517   0.67805   0.14349   0.00000  Uiso   1.00
H523   H     0.21160   0.94425   0.35773   0.00000  Uiso   1.00
H524   H     0.23666   0.89791   0.33180   0.00000  Uiso   1.00
H525   H     0.15692   0.90232   0.47378   0.00000  Uiso   1.00
H526   H     0.26754   0.94147   0.35758   0.00000  Uiso   1.00
H527   H     0.25116   0.94069   0.26536   0.00000  Uiso   1.00
H528   H     0.26054   0.98654   0.29761   0.00000  Uiso   1.00
H529   H     0.18187   0.77162   0.02457   0.00000  Uiso   1.00
H530   H     0.12024   0.89109   0.11423   0.00000  Uiso   1.00
H531   H     0.13528   0.76438   0.38345   0.00000  Uiso   1.00
H532   H     0.16692   0.90371   0.39359   0.00000  Uiso   1.00
H533   H     0.19528   0.77355   0.10617   0.00000  Uiso   1.00
H534   H     0.03471   0.77379   0.20827   0.00000  Uiso   1.00
N535   N     0.16667   0.95240   0.25000   0.00000  Uiso   1.00
N536   N     0.16667   0.71427   0.25000   0.00000  Uiso   1.00
O537   O     0.10559   0.87154   0.25000   0.00000  Uiso   1.00
O538   O     0.22774   0.79513   0.25001   0.00000  Uiso   1.00
O539   O     0.22774   0.87154   0.25001   0.00000  Uiso   1.00
O540   O     0.10559   0.79513   0.25000   0.00000  Uiso   1.00
O541   O     0.16666   0.87155   0.18453   0.00000  Uiso   1.00
O542   O     0.16667   0.79511   0.31547   0.00000  Uiso   1.00
O543   O     0.16667   0.87155   0.31547   0.00000  Uiso   1.00
O544   O     0.16666   0.79511   0.18453   0.00000  Uiso   1.00
Zn545  Zn    0.16667   0.88437   0.25000   0.00000  Uiso   1.00
Zn546  Zn    0.16667   0.78229   0.25000   0.00000  Uiso   1.00
C547   C     0.42027   0.83303   0.25006   0.00000  Uiso   1.00
C548   C     0.64726   0.86552   0.27515   0.00000  Uiso   1.00
C549   C     0.64342   0.79995   0.22660   0.00000  Uiso   1.00
C550   C     0.35683   0.86486   0.27570   0.00000  Uiso   1.00
C551   C     0.45892   0.86354   0.04857   0.00000  Uiso   1.00
C552   C     0.46719   0.79390   0.44844   0.00000  Uiso   1.00
C553   C     0.48486   0.87223   0.45405   0.00000  Uiso   1.00
C554   C     0.50076   0.79711   0.04411   0.00000  Uiso   1.00
C555   C     0.46714   0.86498   0.09481   0.00000  Uiso   1.00
C556   C     0.47425   0.79447   0.40293   0.00000  Uiso   1.00
C557   C     0.49170   0.87278   0.40851   0.00000  Uiso   1.00
C558   C     0.57978   0.83350   0.25013   0.00000  Uiso   1.00
C559   C     0.50879   0.79844   0.09036   0.00000  Uiso   1.00
C560   C     0.49235   0.83262   0.11563   0.00000  Uiso   1.00
C561   C     0.48856   0.83346   0.38322   0.00000  Uiso   1.00
C562   C     0.47623   0.82997   0.02310   0.00000  Uiso   1.00
C563   C     0.47405   0.83241   0.47436   0.00000  Uiso   1.00
C564   C     0.62409   0.83340   0.25025   0.00000  Uiso   1.00
C565   C     0.37610   0.83234   0.25093   0.00000  Uiso   1.00
C566   C     0.54050   0.71117   0.32679   0.00000  Uiso   1.00
C567   C     0.58150   0.73747   0.32356   0.00000  Uiso   1.00
C568   C     0.43632   0.95313   0.19584   0.00000  Uiso   1.00
C569   C     0.49898   0.83315   0.16397   0.00000  Uiso   1.00
C570   C     0.39650   0.95933   0.22112   0.00000  Uiso   1.00
C571   C     0.47549   0.70573   0.16790   0.00000  Uiso   1.00
C572   C     0.43441   0.72911   0.15550   0.00000  Uiso   1.00
C573   C     0.57071   0.95904   0.29285   0.00000  Uiso   1.00
C574   C     0.57117   0.93407   0.33746   0.00000  Uiso   1.00
C575   C     0.49766   0.83344   0.33589   0.00000  Uiso   1.00
C576   C     0.52270   0.69052   0.28263   0.00000  Uiso   1.00
C577   C     0.47317   0.97581   0.22139   0.00000  Uiso   1.00
C578   C     0.47930   0.68919   0.21599   0.00000  Uiso   1.00
C579   C     0.52830   0.97720   0.27700   0.00000  Uiso   1.00
C580   C     0.35305   0.79936   0.22703   0.00000  Uiso   1.00
H581   H     0.43991   0.88903   0.03255   0.00000  Uiso   1.00
H582   H     0.63257   0.89033   0.29489   0.00000  Uiso   1.00
H583   H     0.62533   0.77479   0.20754   0.00000  Uiso   1.00
H584   H     0.37492   0.88921   0.29582   0.00000  Uiso   1.00
H585   H     0.59543   0.73207   0.29056   0.00000  Uiso   1.00
H586   H     0.57645   0.77320   0.32949   0.00000  Uiso   1.00
H587   H     0.60486   0.72671   0.35028   0.00000  Uiso   1.00
H588   H     0.51636   0.72914   0.34382   0.00000  Uiso   1.00
H589   H     0.54698   0.68500   0.35196   0.00000  Uiso   1.00
H590   H     0.37063   0.93876   0.20505   0.00000  Uiso   1.00
H591   H     0.40179   0.94955   0.25690   0.00000  Uiso   1.00
H592   H     0.45788   0.76318   0.46379   0.00000  Uiso   1.00
H593   H     0.38700   0.99453   0.22039   0.00000  Uiso   1.00
H594   H     0.43044   0.96565   0.16122   0.00000  Uiso   1.00
H595   H     0.44190   0.91797   0.19033   0.00000  Uiso   1.00
H596   H     0.40715   0.70668   0.15922   0.00000  Uiso   1.00
H597   H     0.43081   0.75867   0.17674   0.00000  Uiso   1.00
H598   H     0.43418   0.73978   0.11978   0.00000  Uiso   1.00
H599   H     0.50359   0.72521   0.16080   0.00000  Uiso   1.00
H600   H     0.47851   0.67805   0.14349   0.00000  Uiso   1.00
H601   H     0.54493   0.94425   0.35773   0.00000  Uiso   1.00
H602   H     0.56999   0.89791   0.33180   0.00000  Uiso   1.00
H603   H     0.49025   0.90232   0.47378   0.00000  Uiso   1.00
H604   H     0.60087   0.94147   0.35758   0.00000  Uiso   1.00
H605   H     0.58449   0.94069   0.26536   0.00000  Uiso   1.00
H606   H     0.59387   0.98654   0.29761   0.00000  Uiso   1.00
H607   H     0.51521   0.77162   0.02457   0.00000  Uiso   1.00
H608   H     0.45358   0.89109   0.11423   0.00000  Uiso   1.00
H609   H     0.46861   0.76438   0.38345   0.00000  Uiso   1.00
H610   H     0.50026   0.90371   0.39359   0.00000  Uiso   1.00
H611   H     0.52861   0.77355   0.10617   0.00000  Uiso   1.00
H612   H     0.36804   0.77379   0.20827   0.00000  Uiso   1.00
N613   N     0.50000   0.95240   0.25000   0.00000  Uiso   1.00
N614   N     0.50000   0.71427   0.25000   0.00000  Uiso   1.00
O615   O     0.43892   0.87154   0.25000   0.00000  Uiso   1.00
O616   O     0.56108   0.79513   0.25001   0.00000  Uiso   1.00
O617   O     0.56108   0.87154   0.25001   0.00000  Uiso   1.00
O618   O     0.43892   0.79513   0.25000   0.00000  Uiso   1.00
O619   O     0.50000   0.87155   0.18453   0.00000  Uiso   1.00
O620   O     0.50000   0.79511   0.31547   0.00000  Uiso   1.00
O621   O     0.50000   0.87155   0.31547   0.00000  Uiso   1.00
O622   O     0.50000   0.79511   0.18453   0.00000  Uiso   1.00
Zn623  Zn    0.50000   0.88437   0.25000   0.00000  Uiso   1.00
Zn624  Zn    0.50000   0.78229   0.25000   0.00000  Uiso   1.00
C625   C     0.75360   0.83303   0.25006   0.00000  Uiso   1.00
C626   C     0.98060   0.86552   0.27515   0.00000  Uiso   1.00
C627   C     0.97675   0.79995   0.22660   0.00000  Uiso   1.00
C628   C     0.69016   0.86486   0.27570   0.00000  Uiso   1.00
C629   C     0.79225   0.86354   0.04857   0.00000  Uiso   1.00
C630   C     0.80052   0.79390   0.44844   0.00000  Uiso   1.00
C631   C     0.81819   0.87223   0.45405   0.00000  Uiso   1.00
C632   C     0.83410   0.79711   0.04411   0.00000  Uiso   1.00
C633   C     0.80048   0.86498   0.09481   0.00000  Uiso   1.00
C634   C     0.80759   0.79447   0.40293   0.00000  Uiso   1.00
C635   C     0.82504   0.87278   0.40851   0.00000  Uiso   1.00
C636   C     0.91312   0.83350   0.25013   0.00000  Uiso   1.00
C637   C     0.84212   0.79844   0.09036   0.00000  Uiso   1.00
C638   C     0.82568   0.83262   0.11563   0.00000  Uiso   1.00
C639   C     0.82189   0.83346   0.38322   0.00000  Uiso   1.00
C640   C     0.80956   0.82997   0.02310   0.00000  Uiso   1.00
C641   C     0.80738   0.83241   0.47436   0.00000  Uiso   1.00
C642   C     0.95742   0.83340   0.25025   0.00000  Uiso   1.00
C643   C     0.70943   0.83234   0.25093   0.00000  Uiso   1.00
C644   C     0.87383   0.71117   0.32679   0.00000  Uiso   1.00
C645   C     0.91483   0.73747   0.32356   0.00000  Uiso   1.00
C646   C     0.76966   0.95313   0.19584   0.00000  Uiso   1.00
C647   C     0.83232   0.83315   0.16397   0.00000  Uiso   1.00
C648   C     0.72983   0.95933   0.22112   0.00000  Uiso   1.00
C649   C     0.80883   0.70573   0.16790   0.00000  Uiso   1.00
C650   C     0.76774   0.72911   0.15550   0.00000  Uiso   1.00
C651   C     0.90404   0.95904   0.29285   0.00000  Uiso   1.00
C652   C     0.90450   0.93407   0.33746   0.00000  Uiso   1.00
C653   C     0.83099   0.83344   0.33589   0.00000  Uiso   1.00
C654   C     0.85604   0.69052   0.28263   0.00000  Uiso   1.00
C655   C     0.80650   0.97581   0.22139   0.00000  Uiso   1.00
C656   C     0.81263   0.68919   0.21599   0.00000  Uiso   1.00
C657   C     0.86164   0.97720   0.27700   0.00000  Uiso   1.00
C658   C     0.68638   0.79936   0.22703   0.00000  Uiso   1.00
H659   H     0.77324   0.88903   0.03255   0.00000  Uiso   1.00
H660   H     0.96591   0.89033   0.29489   0.00000  Uiso   1.00
H661   H     0.95867   0.77479   0.20754   0.00000  Uiso   1.00
H662   H     0.70825   0.88921   0.29582   0.00000  Uiso   1.00
H663   H     0.92877   0.73207   0.29056   0.00000  Uiso   1.00
H664   H     0.90978   0.77320   0.32949   0.00000  Uiso   1.00
H665   H     0.93820   0.72671   0.35028   0.00000  Uiso   1.00
H666   H     0.84969   0.72914   0.34382   0.00000  Uiso   1.00
H667   H     0.88031   0.68500   0.35196   0.00000  Uiso   1.00
H668   H     0.70396   0.93876   0.20505   0.00000  Uiso   1.00
H669   H     0.73512   0.94955   0.25690   0.00000  Uiso   1.00
H670   H     0.79121   0.76318   0.46379   0.00000  Uiso   1.00
H671   H     0.72033   0.99453   0.22039   0.00000  Uiso   1.00
H672   H     0.76377   0.96565   0.16122   0.00000  Uiso   1.00
H673   H     0.77524   0.91797   0.19033   0.00000  Uiso   1.00
H674   H     0.74048   0.70668   0.15922   0.00000  Uiso   1.00
H675   H     0.76414   0.75867   0.17674   0.00000  Uiso   1.00
H676   H     0.76752   0.73978   0.11978   0.00000  Uiso   1.00
H677   H     0.83692   0.72521   0.16080   0.00000  Uiso   1.00
H678   H     0.81184   0.67805   0.14349   0.00000  Uiso   1.00
H679   H     0.87826   0.94425   0.35773   0.00000  Uiso   1.00
H680   H     0.90332   0.89791   0.33180   0.00000  Uiso   1.00
H681   H     0.82359   0.90232   0.47378   0.00000  Uiso   1.00
H682   H     0.93420   0.94147   0.35758   0.00000  Uiso   1.00
H683   H     0.91783   0.94069   0.26536   0.00000  Uiso   1.00
H684   H     0.92721   0.98654   0.29761   0.00000  Uiso   1.00
H685   H     0.84854   0.77162   0.02457   0.00000  Uiso   1.00
H686   H     0.78691   0.89109   0.11423   0.00000  Uiso   1.00
H687   H     0.80194   0.76438   0.38345   0.00000  Uiso   1.00
H688   H     0.83359   0.90371   0.39359   0.00000  Uiso   1.00
H689   H     0.86194   0.77355   0.10617   0.00000  Uiso   1.00
H690   H     0.70137   0.77379   0.20827   0.00000  Uiso   1.00
N691   N     0.83333   0.95240   0.25000   0.00000  Uiso   1.00
N692   N     0.83333   0.71427   0.25000   0.00000  Uiso   1.00
O693   O     0.77226   0.87154   0.25000   0.00000  Uiso   1.00
O694   O     0.89441   0.79513   0.25001   0.00000  Uiso   1.00
O695   O     0.89441   0.87154   0.25001   0.00000  Uiso   1.00
O696   O     0.77226   0.79513   0.25000   0.00000  Uiso   1.00
O697   O     0.83333   0.87155   0.18453   0.00000  Uiso   1.00
O698   O     0.83334   0.79511   0.31547   0.00000  Uiso   1.00
O699   O     0.83334   0.87155   0.31547   0.00000  Uiso   1.00
O700   O     0.83333   0.79511   0.18453   0.00000  Uiso   1.00
Zn701  Zn    0.83333   0.88437   0.25000   0.00000  Uiso   1.00
Zn702  Zn    0.83333   0.78229   0.25000   0.00000  Uiso   1.00
C703   C     0.08693   0.16637   0.75006   0.00000  Uiso   1.00
C704   C     0.31393   0.19886   0.77515   0.00000  Uiso   1.00
C705   C     0.31008   0.13329   0.72660   0.00000  Uiso   1.00
C706   C     0.02350   0.19820   0.77570   0.00000  Uiso   1.00
C707   C     0.12558   0.19688   0.54857   0.00000  Uiso   1.00
C708   C     0.13385   0.12724   0.94844   0.00000  Uiso   1.00
C709   C     0.15153   0.20556   0.95405   0.00000  Uiso   1.00
C710   C     0.16743   0.13044   0.54411   0.00000  Uiso   1.00
C711   C     0.13381   0.19831   0.59481   0.00000  Uiso   1.00
C712   C     0.14092   0.12780   0.90293   0.00000  Uiso   1.00
C713   C     0.15837   0.20611   0.90851   0.00000  Uiso   1.00
C714   C     0.24645   0.16684   0.75013   0.00000  Uiso   1.00
C715   C     0.17545   0.13177   0.59036   0.00000  Uiso   1.00
C716   C     0.15901   0.16595   0.61563   0.00000  Uiso   1.00
C717   C     0.15523   0.16679   0.88322   0.00000  Uiso   1.00
C718   C     0.14289   0.16330   0.52310   0.00000  Uiso   1.00
C719   C     0.14071   0.16575   0.97436   0.00000  Uiso   1.00
C720   C     0.29075   0.16674   0.75025   0.00000  Uiso   1.00
C721   C     0.04276   0.16567   0.75093   0.00000  Uiso   1.00
C722   C     0.20716   0.04450   0.82679   0.00000  Uiso   1.00
C723   C     0.24817   0.07080   0.82356   0.00000  Uiso   1.00
C724   C     0.10299   0.28646   0.69584   0.00000  Uiso   1.00
C725   C     0.16565   0.16649   0.66397   0.00000  Uiso   1.00
C726   C     0.06317   0.29266   0.72112   0.00000  Uiso   1.00
C727   C     0.14216   0.03907   0.66790   0.00000  Uiso   1.00
C728   C     0.10108   0.06244   0.65550   0.00000  Uiso   1.00
C729   C     0.23737   0.29237   0.79285   0.00000  Uiso   1.00
C730   C     0.23783   0.26740   0.83746   0.00000  Uiso   1.00
C731   C     0.16433   0.16678   0.83589   0.00000  Uiso   1.00
C732   C     0.18937   0.02385   0.78263   0.00000  Uiso   1.00
C733   C     0.13984   0.30915   0.72139   0.00000  Uiso   1.00
C734   C     0.14597   0.02253   0.71599   0.00000  Uiso   1.00
C735   C     0.19497   0.31053   0.77700   0.00000  Uiso   1.00
C736   C     0.01972   0.13269   0.72703   0.00000  Uiso   1.00
H737   H     0.10657   0.22237   0.53255   0.00000  Uiso   1.00
H738   H     0.29924   0.22367   0.79489   0.00000  Uiso   1.00
H739   H     0.29200   0.10812   0.70754   0.00000  Uiso   1.00
H740   H     0.04159   0.22254   0.79582   0.00000  Uiso   1.00
H741   H     0.26210   0.06540   0.79056   0.00000  Uiso   1.00
H742   H     0.24312   0.10653   0.82949   0.00000  Uiso   1.00
H743   H     0.27153   0.06004   0.85028   0.00000  Uiso   1.00
H744   H     0.18303   0.06247   0.84382   0.00000  Uiso   1.00
H745   H     0.21365   0.01833   0.85196   0.00000  Uiso   1.00
H746   H     0.03730   0.27210   0.70505   0.00000  Uiso   1.00
H747   H     0.06845   0.28289   0.75690   0.00000  Uiso   1.00
H748   H     0.12454   0.09651   0.96379   0.00000  Uiso   1.00
H749   H     0.05367   0.32786   0.72039   0.00000  Uiso   1.00
H750   H     0.09711   0.29898   0.66122   0.00000  Uiso   1.00
H751   H     0.10857   0.25130   0.69033   0.00000  Uiso   1.00
H752   H     0.07382   0.04002   0.65922   0.00000  Uiso   1.00
H753   H     0.09747   0.09201   0.67674   0.00000  Uiso   1.00
H754   H     0.10085   0.07311   0.61978   0.00000  Uiso   1.00
H755   H     0.17026   0.05854   0.66080   0.00000  Uiso   1.00
H756   H     0.14517   0.01139   0.64349   0.00000  Uiso   1.00
H757   H     0.21160   0.27758   0.85773   0.00000  Uiso   1.00
H758   H     0.23666   0.23124   0.83180   0.00000  Uiso   1.00
H759   H     0.15692   0.23565   0.97378   0.00000  Uiso   1.00
H760   H     0.26754   0.27480   0.85758   0.00000  Uiso   1.00
H761   H     0.25116   0.27402   0.76536   0.00000  Uiso   1.00
H762   H     0.26054   0.31987   0.79761   0.00000  Uiso   1.00
H763   H     0.18187   0.10496   0.52457   0.00000  Uiso   1.00
H764   H     0.12024   0.22442   0.61423   0.00000  Uiso   1.00
H765   H     0.13528   0.09771   0.88345   0.00000  Uiso   1.00
H766   H     0.16692   0.23704   0.89359   0.00000  Uiso   1.00
H767   H     0.19528   0.10688   0.60617   0.00000  Uiso   1.00
H768   H     0.03471   0.10712   0.70827   0.00000  Uiso   1.00
N769   N     0.16667   0.28573   0.75000   0.00000  Uiso   1.00
N770   N     0.16667   0.04760   0.75000   0.00000  Uiso   1.00
O771   O     0.10559   0.20487   0.75000   0.00000  Uiso   1.00
O772   O     0.22774   0.12846   0.75001   0.00000  Uiso   1.00
O773   O     0.22774   0.20487   0.75001   0.00000  Uiso   1.00
O774   O     0.10559   0.12846   0.75000   0.00000  Uiso   1.00
O775   O     0.16666   0.20489   0.68453   0.00000  Uiso   1.00
O776   O     0.16667   0.12845   0.81547   0.00000  Uiso   1.00
O777   O     0.16667   0.20489   0.81547   0.00000  Uiso   1.00
O778   O     0.16666   0.12845   0.68453   0.00000  Uiso   1.00
Zn779  Zn    0.16667   0.21771   0.75000   0.00000  Uiso   1.00
Zn780  Zn    0.16667   0.11563   0.75000   0.00000  Uiso   1.00
C781   C     0.42027   0.16637   0.75006   0.00000  Uiso   1.00
C782   C     0.64726   0.19886   0.77515   0.00000  Uiso   1.00
C783   C     0.64342   0.13329   0.72660   0.00000  Uiso   1.00
C784   C     0.35683   0.19820   0.77570   0.00000  Uiso   1.00
C785   C     0.45892   0.19688   0.54857   0.00000  Uiso   1.00
C786   C     0.46719   0.12724   0.94844   0.00000  Uiso   1.00
C787   C     0.48486   0.20556   0.95405   0.00000  Uiso   1.00
C788   C     0.50076   0.13044   0.54411   0.00000  Uiso   1.00
C789   C     0.46714   0.19831   0.59481   0.00000  Uiso   1.00
C790   C     0.47425   0.12780   0.90293   0.00000  Uiso   1.00
C791   C     0.49170   0.20611   0.90851   0.00000  Uiso   1.00
C792   C     0.57978   0.16684   0.75013   0.00000  Uiso   1.00
C793   C     0.50879   0.13177   0.59036   0.00000  Uiso   1.00
C794   C     0.49235   0.16595   0.61563   0.00000  Uiso   1.00
C795   C     0.48856   0.16679   0.88322   0.00000  Uiso   1.00
C796   C     0.47623   0.16330   0.52310   0.00000  Uiso   1.00
C797   C     0.47405   0.16575   0.97436   0.00000  Uiso   1.00
C798   C     0.62409   0.16674   0.75025   0.00000  Uiso   1.00
C799   C     0.37610   0.16567   0.75093   0.00000  Uiso   1.00
C800   C     0.54050   0.04450   0.82679   0.00000  Uiso   1.00
C801   C     0.58150   0.07080   0.82356   0.00000  Uiso   1.00
C802   C     0.43632   0.28646   0.69584   0.00000  Uiso   1.00
C803   C     0.49898   0.16649   0.66397   0.00000  Uiso   1.00
C804   C     0.39650   0.29266   0.72112   0.00000  Uiso   1.00
C805   C     0.47549   0.03907   0.66790   0.00000  Uiso   1.00
C806   C     0.43441   0.06244   0.65550   0.00000  Uiso   1.00
C807   C     0.57071   0.29237   0.79285   0.00000  Uiso   1.00
C808   C     0.57117   0.26740   0.83746   0.00000  Uiso   1.00
C809   C     0.49766   0.16678   0.83589   0.00000  Uiso   1.00
C810   C     0.52270   0.02385   0.78263   0.00000  Uiso   1.00
C811   C     0.47317   0.30915   0.72139   0.00000  Uiso   1.00
C812   C     0.47930   0.02253   0.71599   0.00000  Uiso   1.00
C813   C     0.52830   0.31053   0.77700   0.00000  Uiso   1.00
C814   C     0.35305   0.13269   0.72703   0.00000  Uiso   1.00
H815   H     0.43991   0.22237   0.53255   0.00000  Uiso   1.00
H816   H     0.63257   0.22367   0.79489   0.00000  Uiso   1.00
H817   H     0.62533   0.10812   0.70754   0.00000  Uiso   1.00
H818   H     0.37492   0.22254   0.79582   0.00000  Uiso   1.00
H819   H     0.59543   0.06540   0.79056   0.00000  Uiso   1.00
H820   H     0.57645   0.10653   0.82949   0.00000  Uiso   1.00
H821   H     0.60486   0.06004   0.85028   0.00000  Uiso   1.00
H822   H     0.51636   0.06247   0.84382   0.00000  Uiso   1.00
H823   H     0.54698   0.01833   0.85196   0.00000  Uiso   1.00
H824   H     0.37063   0.27210   0.70505   0.00000  Uiso   1.00
H825   H     0.40179   0.28289   0.75690   0.00000  Uiso   1.00
H826   H     0.45788   0.09651   0.96379   0.00000  Uiso   1.00
H827   H     0.38700   0.32786   0.72039   0.00000  Uiso   1.00
H828   H     0.43044   0.29898   0.66122   0.00000  Uiso   1.00
H829   H     0.44190   0.25130   0.69033   0.00000  Uiso   1.00
H830   H     0.40715   0.04002   0.65922   0.00000  Uiso   1.00
H831   H     0.43081   0.09201   0.67674   0.00000  Uiso   1.00
H832   H     0.43418   0.07311   0.61978   0.00000  Uiso   1.00
H833   H     0.50359   0.05854   0.66080   0.00000  Uiso   1.00
H834   H     0.47851   0.01139   0.64349   0.00000  Uiso   1.00
H835   H     0.54493   0.27758   0.85773   0.00000  Uiso   1.00
H836   H     0.56999   0.23124   0.83180   0.00000  Uiso   1.00
H837   H     0.49025   0.23565   0.97378   0.00000  Uiso   1.00
H838   H     0.60087   0.27480   0.85758   0.00000  Uiso   1.00
H839   H     0.58449   0.27402   0.76536   0.00000  Uiso   1.00
H840   H     0.59387   0.31987   0.79761   0.00000  Uiso   1.00
H841   H     0.51521   0.10496   0.52457   0.00000  Uiso   1.00
H842   H     0.45358   0.22442   0.61423   0.00000  Uiso   1.00
H843   H     0.46861   0.09771   0.88345   0.00000  Uiso   1.00
H844   H     0.50026   0.23704   0.89359   0.00000  Uiso   1.00
H845   H     0.52861   0.10688   0.60617   0.00000  Uiso   1.00
H846   H     0.36804   0.10712   0.70827   0.00000  Uiso   1.00
N847   N     0.50000   0.28573   0.75000   0.00000  Uiso   1.00
N848   N     0.50000   0.04760   0.75000   0.00000  Uiso   1.00
O849   O     0.43892   0.20487   0.75000   0.00000  Uiso   1.00
O850   O     0.56108   0.12846   0.75001   0.00000  Uiso   1.00
O851   O     0.56108   0.20487   0.75001   0.00000  Uiso   1.00
O852   O     0.43892   0.12846   0.75000   0.00000  Uiso   1.00
O853   O     0.50000   0.20489   0.68453   0.00000  Uiso   1.00
O854   O     0.50000   0.12845   0.81547   0.00000  Uiso   1.00
O855   O     0.50000   0.20489   0.81547   0.00000  Uiso   1.00
O856   O     0.50000   0.12845   0.68453   0.00000  Uiso   1.00
Zn857  Zn    0.50000   0.21771   0.75000   0.00000  Uiso   1.00
Zn858  Zn    0.50000   0.11563   0.75000   0.00000  Uiso   1.00
C859   C     0.75360   0.16637   0.75006   0.00000  Uiso   1.00
C860   C     0.98060   0.19886   0.77515   0.00000  Uiso   1.00
C861   C     0.97675   0.13329   0.72660   0.00000  Uiso   1.00
C862   C     0.69016   0.19820   0.77570   0.00000  Uiso   1.00
C863   C     0.79225   0.19688   0.54857   0.00000  Uiso   1.00
C864   C     0.80052   0.12724   0.94844   0.00000  Uiso   1.00
C865   C     0.81819   0.20556   0.95405   0.00000  Uiso   1.00
C866   C     0.83410   0.13044   0.54411   0.00000  Uiso   1.00
C867   C     0.80048   0.19831   0.59481   0.00000  Uiso   1.00
C868   C     0.80759   0.12780   0.90293   0.00000  Uiso   1.00
C869   C     0.82504   0.20611   0.90851   0.00000  Uiso   1.00
C870   C     0.91312   0.16684   0.75013   0.00000  Uiso   1.00
C871   C     0.84212   0.13177   0.59036   0.00000  Uiso   1.00
C872   C     0.82568   0.16595   0.61563   0.00000  Uiso   1.00
C873   C     0.82189   0.16679   0.88322   0.00000  Uiso   1.00
C874   C     0.80956   0.16330   0.52310   0.00000  Uiso   1.00
C875   C     0.80738   0.16575   0.97436   0.00000  Uiso   1.00
C876   C     0.95742   0.16674   0.75025   0.00000  Uiso   1.00
C877   C     0.70943   0.16567   0.75093   0.00000  Uiso   1.00
C878   C     0.87383   0.04450   0.82679   0.00000  Uiso   1.00
C879   C     0.91483   0.07080   0.82356   0.00000  Uiso   1.00
C880   C     0.76966   0.28646   0.69584   0.00000  Uiso   1.00
C881   C     0.83232   0.16649   0.66397   0.00000  Uiso   1.00
C882   C     0.72983   0.29266   0.72112   0.00000  Uiso   1.00
C883   C     0.80883   0.03907   0.66790   0.00000  Uiso   1.00
C884   C     0.76774   0.06244   0.65550   0.00000  Uiso   1.00
C885   C     0.90404   0.29237   0.79285   0.00000  Uiso   1.00
C886   C     0.90450   0.26740   0.83746   0.00000  Uiso   1.00
C887   C     0.83099   0.16678   0.83589   0.00000  Uiso   1.00
C888   C     0.85604   0.02385   0.78263   0.00000  Uiso   1.00
C889   C     0.80650   0.30915   0.72139   0.00000  Uiso   1.00
C890   C     0.81263   0.02253   0.71599   0.00000  Uiso   1.00
C891   C     0.86164   0.31053   0.77700   0.00000  Uiso   1.00
C892   C     0.68638   0.13269   0.72703   0.00000  Uiso   1.00
H893   H     0.77324   0.22237   0.53255   0.00000  Uiso   1.00
H894   H     0.96591   0.22367   0.79489   0.00000  Uiso   1.00
H895   H     0.95867   0.10812   0.70754   0.00000  Uiso   1.00
H896   H     0.70825   0.22254   0.79582   0.00000  Uiso   1.00
H897   H     0.92877   0.06540   0.79056   0.00000  Uiso   1.00
H898   H     0.90978   0.10653   0.82949   0.00000  Uiso   1.00
H899   H     0.93820   0.06004   0.85028   0.00000  Uiso   1.00
H900   H     0.84969   0.06247   0.84382   0.00000  Uiso   1.00
H901   H     0.88031   0.01833   0.85196   0.00000  Uiso   1.00
H902   H     0.70396   0.27210   0.70505   0.00000  Uiso   1.00
H903   H     0.73512   0.28289   0.75690   0.00000  Uiso   1.00
H904   H     0.79121   0.09651   0.96379   0.00000  Uiso   1.00
H905   H     0.72033   0.32786   0.72039   0.00000  Uiso   1.00
H906   H     0.76377   0.29898   0.66122   0.00000  Uiso   1.00
H907   H     0.77524   0.25130   0.69033   0.00000  Uiso   1.00
H908   H     0.74048   0.04002   0.65922   0.00000  Uiso   1.00
H909   H     0.76414   0.09201   0.67674   0.00000  Uiso   1.00
H910   H     0.76752   0.07311   0.61978   0.00000  Uiso   1.00
H911   H     0.83692   0.05854   0.66080   0.00000  Uiso   1.00
H912   H     0.81184   0.01139   0.64349   0.00000  Uiso   1.00
H913   H     0.87826   0.27758   0.85773   0.00000  Uiso   1.00
H914   H     0.90332   0.23124   0.83180   0.00000  Uiso   1.00
H915   H     0.82359   0.23565   0.97378   0.00000  Uiso   1.00
H916   H     0.93420   0.27480   0.85758   0.00000  Uiso   1.00
H917   H     0.91783   0.27402   0.76536   0.00000  Uiso   1.00
H918   H     0.92721   0.31987   0.79761   0.00000  Uiso   1.00
H919   H     0.84854   0.10496   0.52457   0.00000  Uiso   1.00
H920   H     0.78691   0.22442   0.61423   0.00000  Uiso   1.00
H921   H     0.80194   0.09771   0.88345   0.00000  Uiso   1.00
H922   H     0.83359   0.23704   0.89359   0.00000  Uiso   1.00
H923   H     0.86194   0.10688   0.60617   0.00000  Uiso   1.00
H924   H     0.70137   0.10712   0.70827   0.00000  Uiso   1.00
N925   N     0.83333   0.28573   0.75000   0.00000  Uiso   1.00
N926   N     0.83333   0.04760   0.75000   0.00000  Uiso   1.00
O927   O     0.77226   0.20487   0.75000   0.00000  Uiso   1.00
O928   O     0.89441   0.12846   0.75001   0.00000  Uiso   1.00
O929   O     0.89441   0.20487   0.75001   0.00000  Uiso   1.00
O930   O     0.77226   0.12846   0.75000   0.00000  Uiso   1.00
O931   O     0.83333   0.20489   0.68453   0.00000  Uiso   1.00
O932   O     0.83334   0.12845   0.81547   0.00000  Uiso   1.00
O933   O     0.83334   0.20489   0.81547   0.00000  Uiso   1.00
O934   O     0.83333   0.12845   0.68453   0.00000  Uiso   1.00
Zn935  Zn    0.83333   0.21771   0.75000   0.00000  Uiso   1.00
Zn936  Zn    0.83333   0.11563   0.75000   0.00000  Uiso   1.00
C937   C     0.08693   0.49970   0.75006   0.00000  Uiso   1.00
C938   C     0.31393   0.53219   0.77515   0.00000  Uiso   1.00
C939   C     0.31008   0.46662   0.72660   0.00000  Uiso   1.00
C940   C     0.02350   0.53153   0.77570   0.00000  Uiso   1.00
C941   C     0.12558   0.53021   0.54857   0.00000  Uiso   1.00
C942   C     0.13385   0.46057   0.94844   0.00000  Uiso   1.00
C943   C     0.15153   0.53889   0.95405   0.00000  Uiso   1.00
C944   C     0.16743   0.46378   0.54411   0.00000  Uiso   1.00
C945   C     0.13381   0.53165   0.59481   0.00000  Uiso   1.00
C946   C     0.14092   0.46113   0.90293   0.00000  Uiso   1.00
C947   C     0.15837   0.53945   0.90851   0.00000  Uiso   1.00
C948   C     0.24645   0.50017   0.75013   0.00000  Uiso   1.00
C949   C     0.17545   0.46510   0.59036   0.00000  Uiso   1.00
C950   C     0.15901   0.49929   0.61563   0.00000  Uiso   1.00
C951   C     0.15523   0.50013   0.88322   0.00000  Uiso   1.00
C952   C     0.14289   0.49664   0.52310   0.00000  Uiso   1.00
C953   C     0.14071   0.49908   0.97436   0.00000  Uiso   1.00
C954   C     0.29075   0.50007   0.75025   0.00000  Uiso   1.00
C955   C     0.04276   0.49900   0.75093   0.00000  Uiso   1.00
C956   C     0.20716   0.37784   0.82679   0.00000  Uiso   1.00
C957   C     0.24817   0.40414   0.82356   0.00000  Uiso   1.00
C958   C     0.10299   0.61979   0.69584   0.00000  Uiso   1.00
C959   C     0.16565   0.49982   0.66397   0.00000  Uiso   1.00
C960   C     0.06317   0.62600   0.72112   0.00000  Uiso   1.00
C961   C     0.14216   0.37240   0.66790   0.00000  Uiso   1.00
C962   C     0.10108   0.39578   0.65550   0.00000  Uiso   1.00
C963   C     0.23737   0.62571   0.79285   0.00000  Uiso   1.00
C964   C     0.23783   0.60073   0.83746   0.00000  Uiso   1.00
C965   C     0.16433   0.50011   0.83589   0.00000  Uiso   1.00
C966   C     0.18937   0.35719   0.78263   0.00000  Uiso   1.00
C967   C     0.13984   0.64248   0.72139   0.00000  Uiso   1.00
C968   C     0.14597   0.35586   0.71599   0.00000  Uiso   1.00
C969   C     0.19497   0.64387   0.77700   0.00000  Uiso   1.00
C970   C     0.01972   0.46603   0.72703   0.00000  Uiso   1.00
H971   H     0.10657   0.55570   0.53255   0.00000  Uiso   1.00
H972   H     0.29924   0.55700   0.79489   0.00000  Uiso   1.00
H973   H     0.29200   0.44146   0.70754   0.00000  Uiso   1.00
H974   H     0.04159   0.55587   0.79582   0.00000  Uiso   1.00
H975   H     0.26210   0.39874   0.79056   0.00000  Uiso   1.00
H976   H     0.24312   0.43987   0.82949   0.00000  Uiso   1.00
H977   H     0.27153   0.39338   0.85028   0.00000  Uiso   1.00
H978   H     0.18303   0.39581   0.84382   0.00000  Uiso   1.00
H979   H     0.21365   0.35166   0.85196   0.00000  Uiso   1.00
H980   H     0.03730   0.60543   0.70505   0.00000  Uiso   1.00
H981   H     0.06845   0.61622   0.75690   0.00000  Uiso   1.00
H982   H     0.12454   0.42984   0.96379   0.00000  Uiso   1.00
H983   H     0.05367   0.66120   0.72039   0.00000  Uiso   1.00
H984   H     0.09711   0.63232   0.66122   0.00000  Uiso   1.00
H985   H     0.10857   0.58463   0.69033   0.00000  Uiso   1.00
H986   H     0.07382   0.37335   0.65922   0.00000  Uiso   1.00
H987   H     0.09747   0.42534   0.67674   0.00000  Uiso   1.00
H988   H     0.10085   0.40645   0.61978   0.00000  Uiso   1.00
H989   H     0.17026   0.39187   0.66080   0.00000  Uiso   1.00
H990   H     0.14517   0.34472   0.64349   0.00000  Uiso   1.00
H991   H     0.21160   0.61091   0.85773   0.00000  Uiso   1.00
H992   H     0.23666   0.56457   0.83180   0.00000  Uiso   1.00
H993   H     0.15692   0.56898   0.97378   0.00000  Uiso   1.00
H994   H     0.26754   0.60814   0.85758   0.00000  Uiso   1.00
H995   H     0.25116   0.60735   0.76536   0.00000  Uiso   1.00
H996   H     0.26054   0.65320   0.79761   0.00000  Uiso   1.00
H997   H     0.18187   0.43829   0.52457   0.00000  Uiso   1.00
H998   H     0.12024   0.55775   0.61423   0.00000  Uiso   1.00
H999   H     0.13528   0.43105   0.88345   0.00000  Uiso   1.00
H1000  H     0.16692   0.57038   0.89359   0.00000  Uiso   1.00
H1001  H     0.19528   0.44021   0.60617   0.00000  Uiso   1.00
H1002  H     0.03471   0.44046   0.70827   0.00000  Uiso   1.00
N1003  N     0.16667   0.61907   0.75000   0.00000  Uiso   1.00
N1004  N     0.16667   0.38093   0.75000   0.00000  Uiso   1.00
O1005  O     0.10559   0.53821   0.75000   0.00000  Uiso   1.00
O1006  O     0.22774   0.46179   0.75001   0.00000  Uiso   1.00
O1007  O     0.22774   0.53821   0.75001   0.00000  Uiso   1.00
O1008  O     0.10559   0.46179   0.75000   0.00000  Uiso   1.00
O1009  O     0.16666   0.53822   0.68453   0.00000  Uiso   1.00
O1010  O     0.16667   0.46178   0.81547   0.00000  Uiso   1.00
O1011  O     0.16667   0.53822   0.81547   0.00000  Uiso   1.00
O1012  O     0.16666   0.46178   0.68453   0.00000  Uiso   1.00
Zn1013 Zn    0.16667   0.55104   0.75000   0.00000  Uiso   1.00
Zn1014 Zn    0.16667   0.44896   0.75000   0.00000  Uiso   1.00
C1015  C     0.42027   0.49970   0.75006   0.00000  Uiso   1.00
C1016  C     0.64726   0.53219   0.77515   0.00000  Uiso   1.00
C1017  C     0.64342   0.46662   0.72660   0.00000  Uiso   1.00
C1018  C     0.35683   0.53153   0.77570   0.00000  Uiso   1.00
C1019  C     0.45892   0.53021   0.54857   0.00000  Uiso   1.00
C1020  C     0.46719   0.46057   0.94844   0.00000  Uiso   1.00
C1021  C     0.48486   0.53889   0.95405   0.00000  Uiso   1.00
C1022  C     0.50076   0.46378   0.54411   0.00000  Uiso   1.00
C1023  C     0.46714   0.53165   0.59481   0.00000  Uiso   1.00
C1024  C     0.47425   0.46113   0.90293   0.00000  Uiso   1.00
C1025  C     0.49170   0.53945   0.90851   0.00000  Uiso   1.00
C1026  C     0.57978   0.50017   0.75013   0.00000  Uiso   1.00
C1027  C     0.50879   0.46510   0.59036   0.00000  Uiso   1.00
C1028  C     0.49235   0.49929   0.61563   0.00000  Uiso   1.00
C1029  C     0.48856   0.50013   0.88322   0.00000  Uiso   1.00
C1030  C     0.47623   0.49664   0.52310   0.00000  Uiso   1.00
C1031  C     0.47405   0.49908   0.97436   0.00000  Uiso   1.00
C1032  C     0.62409   0.50007   0.75025   0.00000  Uiso   1.00
C1033  C     0.37610   0.49900   0.75093   0.00000  Uiso   1.00
C1034  C     0.54050   0.37784   0.82679   0.00000  Uiso   1.00
C1035  C     0.58150   0.40414   0.82356   0.00000  Uiso   1.00
C1036  C     0.43632   0.61979   0.69584   0.00000  Uiso   1.00
C1037  C     0.49898   0.49982   0.66397   0.00000  Uiso   1.00
C1038  C     0.39650   0.62600   0.72112   0.00000  Uiso   1.00
C1039  C     0.47549   0.37240   0.66790   0.00000  Uiso   1.00
C1040  C     0.43441   0.39578   0.65550   0.00000  Uiso   1.00
C1041  C     0.57071   0.62571   0.79285   0.00000  Uiso   1.00
C1042  C     0.57117   0.60073   0.83746   0.00000  Uiso   1.00
C1043  C     0.49766   0.50011   0.83589   0.00000  Uiso   1.00
C1044  C     0.52270   0.35719   0.78263   0.00000  Uiso   1.00
C1045  C     0.47317   0.64248   0.72139   0.00000  Uiso   1.00
C1046  C     0.47930   0.35586   0.71599   0.00000  Uiso   1.00
C1047  C     0.52830   0.64387   0.77700   0.00000  Uiso   1.00
C1048  C     0.35305   0.46603   0.72703   0.00000  Uiso   1.00
H1049  H     0.43991   0.55570   0.53255   0.00000  Uiso   1.00
H1050  H     0.63257   0.55700   0.79489   0.00000  Uiso   1.00
H1051  H     0.62533   0.44146   0.70754   0.00000  Uiso   1.00
H1052  H     0.37492   0.55587   0.79582   0.00000  Uiso   1.00
H1053  H     0.59543   0.39874   0.79056   0.00000  Uiso   1.00
H1054  H     0.57645   0.43987   0.82949   0.00000  Uiso   1.00
H1055  H     0.60486   0.39338   0.85028   0.00000  Uiso   1.00
H1056  H     0.51636   0.39581   0.84382   0.00000  Uiso   1.00
H1057  H     0.54698   0.35166   0.85196   0.00000  Uiso   1.00
H1058  H     0.37063   0.60543   0.70505   0.00000  Uiso   1.00
H1059  H     0.40179   0.61622   0.75690   0.00000  Uiso   1.00
H1060  H     0.45788   0.42984   0.96379   0.00000  Uiso   1.00
H1061  H     0.38700   0.66120   0.72039   0.00000  Uiso   1.00
H1062  H     0.43044   0.63232   0.66122   0.00000  Uiso   1.00
H1063  H     0.44190   0.58463   0.69033   0.00000  Uiso   1.00
H1064  H     0.40715   0.37335   0.65922   0.00000  Uiso   1.00
H1065  H     0.43081   0.42534   0.67674   0.00000  Uiso   1.00
H1066  H     0.43418   0.40645   0.61978   0.00000  Uiso   1.00
H1067  H     0.50359   0.39187   0.66080   0.00000  Uiso   1.00
H1068  H     0.47851   0.34472   0.64349   0.00000  Uiso   1.00
H1069  H     0.54493   0.61091   0.85773   0.00000  Uiso   1.00
H1070  H     0.56999   0.56457   0.83180   0.00000  Uiso   1.00
H1071  H     0.49025   0.56898   0.97378   0.00000  Uiso   1.00
H1072  H     0.60087   0.60814   0.85758   0.00000  Uiso   1.00
H1073  H     0.58449   0.60735   0.76536   0.00000  Uiso   1.00
H1074  H     0.59387   0.65320   0.79761   0.00000  Uiso   1.00
H1075  H     0.51521   0.43829   0.52457   0.00000  Uiso   1.00
H1076  H     0.45358   0.55775   0.61423   0.00000  Uiso   1.00
H1077  H     0.46861   0.43105   0.88345   0.00000  Uiso   1.00
H1078  H     0.50026   0.57038   0.89359   0.00000  Uiso   1.00
H1079  H     0.52861   0.44021   0.60617   0.00000  Uiso   1.00
H1080  H     0.36804   0.44046   0.70827   0.00000  Uiso   1.00
N1081  N     0.50000   0.61907   0.75000   0.00000  Uiso   1.00
N1082  N     0.50000   0.38093   0.75000   0.00000  Uiso   1.00
O1083  O     0.43892   0.53821   0.75000   0.00000  Uiso   1.00
O1084  O     0.56108   0.46179   0.75001   0.00000  Uiso   1.00
O1085  O     0.56108   0.53821   0.75001   0.00000  Uiso   1.00
O1086  O     0.43892   0.46179   0.75000   0.00000  Uiso   1.00
O1087  O     0.50000   0.53822   0.68453   0.00000  Uiso   1.00
O1088  O     0.50000   0.46178   0.81547   0.00000  Uiso   1.00
O1089  O     0.50000   0.53822   0.81547   0.00000  Uiso   1.00
O1090  O     0.50000   0.46178   0.68453   0.00000  Uiso   1.00
Zn1091 Zn    0.50000   0.55104   0.75000   0.00000  Uiso   1.00
Zn1092 Zn    0.50000   0.44896   0.75000   0.00000  Uiso   1.00
C1093  C     0.75360   0.49970   0.75006   0.00000  Uiso   1.00
C1094  C     0.98060   0.53219   0.77515   0.00000  Uiso   1.00
C1095  C     0.97675   0.46662   0.72660   0.00000  Uiso   1.00
C1096  C     0.69016   0.53153   0.77570   0.00000  Uiso   1.00
C1097  C     0.79225   0.53021   0.54857   0.00000  Uiso   1.00
C1098  C     0.80052   0.46057   0.94844   0.00000  Uiso   1.00
C1099  C     0.81819   0.53889   0.95405   0.00000  Uiso   1.00
C1100  C     0.83410   0.46378   0.54411   0.00000  Uiso   1.00
C1101  C     0.80048   0.53165   0.59481   0.00000  Uiso   1.00
C1102  C     0.80759   0.46113   0.90293   0.00000  Uiso   1.00
C1103  C     0.82504   0.53945   0.90851   0.00000  Uiso   1.00
C1104  C     0.91312   0.50017   0.75013   0.00000  Uiso   1.00
C1105  C     0.84212   0.46510   0.59036   0.00000  Uiso   1.00
C1106  C     0.82568   0.49929   0.61563   0.00000  Uiso   1.00
C1107  C     0.82189   0.50013   0.88322   0.00000  Uiso   1.00
C1108  C     0.80956   0.49664   0.52310   0.00000  Uiso   1.00
C1109  C     0.80738   0.49908   0.97436   0.00000  Uiso   1.00
C1110  C     0.95742   0.50007   0.75025   0.00000  Uiso   1.00
C1111  C     0.70943   0.49900   0.75093   0.00000  Uiso   1.00
C1112  C     0.87383   0.37784   0.82679   0.00000  Uiso   1.00
C1113  C     0.91483   0.40414   0.82356   0.00000  Uiso   1.00
C1114  C     0.76966   0.61979   0.69584   0.00000  Uiso   1.00
C1115  C     0.83232   0.49982   0.66397   0.00000  Uiso   1.00
C1116  C     0.72983   0.62600   0.72112   0.00000  Uiso   1.00
C1117  C     0.80883   0.37240   0.66790   0.00000  Uiso   1.00
C1118  C     0.76774   0.39578   0.65550   0.00000  Uiso   1.00
C1119  C     0.90404   0.62571   0.79285   0.00000  Uiso   1.00
C1120  C     0.90450   0.60073   0.83746   0.00000  Uiso   1.00
C1121  C     0.83099   0.50011   0.83589   0.00000  Uiso   1.00
C1122  C     0.85604   0.35719   0.78263   0.00000  Uiso   1.00
C1123  C     0.80650   0.64248   0.72139   0.00000  Uiso   1.00
C1124  C     0.81263   0.35586   0.71599   0.00000  Uiso   1.00
C1125  C     0.86164   0.64387   0.77700   0.00000  Uiso   1.00
C1126  C     0.68638   0.46603   0.72703   0.00000  Uiso   1.00
H1127  H     0.77324   0.55570   0.53255   0.00000  Uiso   1.00
H1128  H     0.96591   0.55700   0.79489   0.00000  Uiso   1.00
H1129  H     0.95867   0.44146   0.70754   0.00000  Uiso   1.00
H1130  H     0.70825   0.55587   0.79582   0.00000  Uiso   1.00
H1131  H     0.92877   0.39874   0.79056   0.00000  Uiso   1.00
H1132  H     0.90978   0.43987   0.82949   0.00000  Uiso   1.00
H1133  H     0.93820   0.39338   0.85028   0.00000  Uiso   1.00
H1134  H     0.84969   0.39581   0.84382   0.00000  Uiso   1.00
H1135  H     0.88031   0.35166   0.85196   0.00000  Uiso   1.00
H1136  H     0.70396   0.60543   0.70505   0.00000  Uiso   1.00
H1137  H     0.73512   0.61622   0.75690   0.00000  Uiso   1.00
H1138  H     0.79121   0.42984   0.96379   0.00000  Uiso   1.00
H1139  H     0.72033   0.66120   0.72039   0.00000  Uiso   1.00
H1140  H     0.76377   0.63232   0.66122   0.00000  Uiso   1.00
H1141  H     0.77524   0.58463   0.69033   0.00000  Uiso   1.00
H1142  H     0.74048   0.37335   0.65922   0.00000  Uiso   1.00
H1143  H     0.76414   0.42534   0.67674   0.00000  Uiso   1.00
H1144  H     0.76752   0.40645   0.61978   0.00000  Uiso   1.00
H1145  H     0.83692   0.39187   0.66080   0.00000  Uiso   1.00
H1146  H     0.81184   0.34472   0.64349   0.00000  Uiso   1.00
H1147  H     0.87826   0.61091   0.85773   0.00000  Uiso   1.00
H1148  H     0.90332   0.56457   0.83180   0.00000  Uiso   1.00
H1149  H     0.82359   0.56898   0.97378   0.00000  Uiso   1.00
H1150  H     0.93420   0.60814   0.85758   0.00000  Uiso   1.00
H1151  H     0.91783   0.60735   0.76536   0.00000  Uiso   1.00
H1152  H     0.92721   0.65320   0.79761   0.00000  Uiso   1.00
H1153  H     0.84854   0.43829   0.52457   0.00000  Uiso   1.00
H1154  H     0.78691   0.55775   0.61423   0.00000  Uiso   1.00
H1155  H     0.80194   0.43105   0.88345   0.00000  Uiso   1.00
H1156  H     0.83359   0.57038   0.89359   0.00000  Uiso   1.00
H1157  H     0.86194   0.44021   0.60617   0.00000  Uiso   1.00
H1158  H     0.70137   0.44046   0.70827   0.00000  Uiso   1.00
N1159  N     0.83333   0.61907   0.75000   0.00000  Uiso   1.00
N1160  N     0.83333   0.38093   0.75000   0.00000  Uiso   1.00
O1161  O     0.77226   0.53821   0.75000   0.00000  Uiso   1.00
O1162  O     0.89441   0.46179   0.75001   0.00000  Uiso   1.00
O1163  O     0.89441   0.53821   0.75001   0.00000  Uiso   1.00
O1164  O     0.77226   0.46179   0.75000   0.00000  Uiso   1.00
O1165  O     0.83333   0.53822   0.68453   0.00000  Uiso   1.00
O1166  O     0.83334   0.46178   0.81547   0.00000  Uiso   1.00
O1167  O     0.83334   0.53822   0.81547   0.00000  Uiso   1.00
O1168  O     0.83333   0.46178   0.68453   0.00000  Uiso   1.00
Zn1169 Zn    0.83333   0.55104   0.75000   0.00000  Uiso   1.00
Zn1170 Zn    0.83333   0.44896   0.75000   0.00000  Uiso   1.00
C1171  C     0.08693   0.83303   0.75006   0.00000  Uiso   1.00
C1172  C     0.31393   0.86552   0.77515   0.00000  Uiso   1.00
C1173  C     0.31008   0.79995   0.72660   0.00000  Uiso   1.00
C1174  C     0.02350   0.86486   0.77570   0.00000  Uiso   1.00
C1175  C     0.12558   0.86354   0.54857   0.00000  Uiso   1.00
C1176  C     0.13385   0.79390   0.94844   0.00000  Uiso   1.00
C1177  C     0.15153   0.87223   0.95405   0.00000  Uiso   1.00
C1178  C     0.16743   0.79711   0.54411   0.00000  Uiso   1.00
C1179  C     0.13381   0.86498   0.59481   0.00000  Uiso   1.00
C1180  C     0.14092   0.79447   0.90293   0.00000  Uiso   1.00
C1181  C     0.15837   0.87278   0.90851   0.00000  Uiso   1.00
C1182  C     0.24645   0.83350   0.75013   0.00000  Uiso   1.00
C1183  C     0.17545   0.79844   0.59036   0.00000  Uiso   1.00
C1184  C     0.15901   0.83262   0.61563   0.00000  Uiso   1.00
C1185  C     0.15523   0.83346   0.88322   0.00000  Uiso   1.00
C1186  C     0.14289   0.82997   0.52310   0.00000  Uiso   1.00
C1187  C     0.14071   0.83241   0.97436   0.00000  Uiso   1.00
C1188  C     0.29075   0.83340   0.75025   0.00000  Uiso   1.00
C1189  C     0.04276   0.83234   0.75093   0.00000  Uiso   1.00
C1190  C     0.20716   0.71117   0.82679   0.00000  Uiso   1.00
C1191  C     0.24817   0.73747   0.82356   0.00000  Uiso   1.00
C1192  C     0.10299   0.95313   0.69584   0.00000  Uiso   1.00
C1193  C     0.16565   0.83315   0.66397   0.00000  Uiso   1.00
C1194  C     0.06317   0.95933   0.72112   0.00000  Uiso   1.00
C1195  C     0.14216   0.70573   0.66790   0.00000  Uiso   1.00
C1196  C     0.10108   0.72911   0.65550   0.00000  Uiso   1.00
C1197  C     0.23737   0.95904   0.79285   0.00000  Uiso   1.00
C1198  C     0.23783   0.93407   0.83746   0.00000  Uiso   1.00
C1199  C     0.16433   0.83344   0.83589   0.00000  Uiso   1.00
C1200  C     0.18937   0.69052   0.78263   0.00000  Uiso   1.00
C1201  C     0.13984   0.97581   0.72139   0.00000  Uiso   1.00
C1202  C     0.14597   0.68919   0.71599   0.00000  Uiso   1.00
C1203  C     0.19497   0.97720   0.77700   0.00000  Uiso   1.00
C1204  C     0.01972   0.79936   0.72703   0.00000  Uiso   1.00
H1205  H     0.10657   0.88903   0.53255   0.00000  Uiso   1.00
H1206  H     0.29924   0.89033   0.79489   0.00000  Uiso   1.00
H1207  H     0.29200   0.77479   0.70754   0.00000  Uiso   1.00
H1208  H     0.04159   0.88921   0.79582   0.00000  Uiso   1.00
H1209  H     0.26210   0.73207   0.79056   0.00000  Uiso   1.00
H1210  H     0.24312   0.77320   0.82949   0.00000  Uiso   1.00
H1211  H     0.27153   0.72671   0.85028   0.00000  Uiso   1.00
H1212  H     0.18303   0.72914   0.84382   0.00000  Uiso   1.00
H1213  H     0.21365   0.68500   0.85196   0.00000  Uiso   1.00
H1214  H     0.03730   0.93876   0.70505   0.00000  Uiso   1.00
H1215  H     0.06845   0.94955   0.75690   0.00000  Uiso   1.00
H1216  H     0.12454   0.76318   0.96379   0.00000  Uiso   1.00
H1217  H     0.05367   0.99453   0.72039   0.00000  Uiso   1.00
H1218  H     0.09711   0.96565   0.66122   0.00000  Uiso   1.00
H1219  H     0.10857   0.91797   0.69033   0.00000  Uiso   1.00
H1220  H     0.07382   0.70668   0.65922   0.00000  Uiso   1.00
H1221  H     0.09747   0.75867   0.67674   0.00000  Uiso   1.00
H1222  H     0.10085   0.73978   0.61978   0.00000  Uiso   1.00
H1223  H     0.17026   0.72521   0.66080   0.00000  Uiso   1.00
H1224  H     0.14517   0.67805   0.64349   0.00000  Uiso   1.00
H1225  H     0.21160   0.94425   0.85773   0.00000  Uiso   1.00
H1226  H     0.23666   0.89791   0.83180   0.00000  Uiso   1.00
H1227  H     0.15692   0.90232   0.97378   0.00000  Uiso   1.00
H1228  H     0.26754   0.94147   0.85758   0.00000  Uiso   1.00
H1229  H     0.25116   0.94069   0.76536   0.00000  Uiso   1.00
H1230  H     0.26054   0.98654   0.79761   0.00000  Uiso   1.00
H1231  H     0.18187   0.77162   0.52457   0.00000  Uiso   1.00
H1232  H     0.12024   0.89109   0.61423   0.00000  Uiso   1.00
H1233  H     0.13528   0.76438   0.88345   0.00000  Uiso   1.00
H1234  H     0.16692   0.90371   0.89359   0.00000  Uiso   1.00
H1235  H     0.19528   0.77355   0.60617   0.00000  Uiso   1.00
H1236  H     0.03471   0.77379   0.70827   0.00000  Uiso   1.00
N1237  N     0.16667   0.95240   0.75000   0.00000  Uiso   1.00
N1238  N     0.16667   0.71427   0.75000   0.00000  Uiso   1.00
O1239  O     0.10559   0.87154   0.75000   0.00000  Uiso   1.00
O1240  O     0.22774   0.79513   0.75001   0.00000  Uiso   1.00
O1241  O     0.22774   0.87154   0.75001   0.00000  Uiso   1.00
O1242  O     0.10559   0.79513   0.75000   0.00000  Uiso   1.00
O1243  O     0.16666   0.87155   0.68453   0.00000  Uiso   1.00
O1244  O     0.16667   0.79511   0.81547   0.00000  Uiso   1.00
O1245  O     0.16667   0.87155   0.81547   0.00000  Uiso   1.00
O1246  O     0.16666   0.79511   0.68453   0.00000  Uiso   1.00
Zn1247 Zn    0.16667   0.88437   0.75000   0.00000  Uiso   1.00
Zn1248 Zn    0.16667   0.78229   0.75000   0.00000  Uiso   1.00
C1249  C     0.42027   0.83303   0.75006   0.00000  Uiso   1.00
C1250  C     0.64726   0.86552   0.77515   0.00000  Uiso   1.00
C1251  C     0.64342   0.79995   0.72660   0.00000  Uiso   1.00
C1252  C     0.35683   0.86486   0.77570   0.00000  Uiso   1.00
C1253  C     0.45892   0.86354   0.54857   0.00000  Uiso   1.00
C1254  C     0.46719   0.79390   0.94844   0.00000  Uiso   1.00
C1255  C     0.48486   0.87223   0.95405   0.00000  Uiso   1.00
C1256  C     0.50076   0.79711   0.54411   0.00000  Uiso   1.00
C1257  C     0.46714   0.86498   0.59481   0.00000  Uiso   1.00
C1258  C     0.47425   0.79447   0.90293   0.00000  Uiso   1.00
C1259  C     0.49170   0.87278   0.90851   0.00000  Uiso   1.00
C1260  C     0.57978   0.83350   0.75013   0.00000  Uiso   1.00
C1261  C     0.50879   0.79844   0.59036   0.00000  Uiso   1.00
C1262  C     0.49235   0.83262   0.61563   0.00000  Uiso   1.00
C1263  C     0.48856   0.83346   0.88322   0.00000  Uiso   1.00
C1264  C     0.47623   0.82997   0.52310   0.00000  Uiso   1.00
C1265  C     0.47405   0.83241   0.97436   0.00000  Uiso   1.00
C1266  C     0.62409   0.83340   0.75025   0.00000  Uiso   1.00
C1267  C     0.37610   0.83234   0.75093   0.00000  Uiso   1.00
C1268  C     0.54050   0.71117   0.82679   0.00000  Uiso   1.00
C1269  C     0.58150   0.73747   0.82356   0.00000  Uiso   1.00
C1270  C     0.43632   0.95313   0.69584   0.00000  Uiso   1.00
C1271  C     0.49898   0.83315   0.66397   0.00000  Uiso   1.00
C1272  C     0.39650   0.95933   0.72112   0.00000  Uiso   1.00
C1273  C     0.47549   0.70573   0.66790   0.00000  Uiso   1.00
C1274  C     0.43441   0.72911   0.65550   0.00000  Uiso   1.00
C1275  C     0.57071   0.95904   0.79285   0.00000  Uiso   1.00
C1276  C     0.57117   0.93407   0.83746   0.00000  Uiso   1.00
C1277  C     0.49766   0.83344   0.83589   0.00000  Uiso   1.00
C1278  C     0.52270   0.69052   0.78263   0.00000  Uiso   1.00
C1279  C     0.47317   0.97581   0.72139   0.00000  Uiso   1.00
C1280  C     0.47930   0.68919   0.71599   0.00000  Uiso   1.00
C1281  C     0.52830   0.97720   0.77700   0.00000  Uiso   1.00
C1282  C     0.35305   0.79936   0.72703   0.00000  Uiso   1.00
H1283  H     0.43991   0.88903   0.53255   0.00000  Uiso   1.00
H1284  H     0.63257   0.89033   0.79489   0.00000  Uiso   1.00
H1285  H     0.62533   0.77479   0.70754   0.00000  Uiso   1.00
H1286  H     0.37492   0.88921   0.79582   0.00000  Uiso   1.00
H1287  H     0.59543   0.73207   0.79056   0.00000  Uiso   1.00
H1288  H     0.57645   0.77320   0.82949   0.00000  Uiso   1.00
H1289  H     0.60486   0.72671   0.85028   0.00000  Uiso   1.00
H1290  H     0.51636   0.72914   0.84382   0.00000  Uiso   1.00
H1291  H     0.54698   0.68500   0.85196   0.00000  Uiso   1.00
H1292  H     0.37063   0.93876   0.70505   0.00000  Uiso   1.00
H1293  H     0.40179   0.94955   0.75690   0.00000  Uiso   1.00
H1294  H     0.45788   0.76318   0.96379   0.00000  Uiso   1.00
H1295  H     0.38700   0.99453   0.72039   0.00000  Uiso   1.00
H1296  H     0.43044   0.96565   0.66122   0.00000  Uiso   1.00
H1297  H     0.44190   0.91797   0.69033   0.00000  Uiso   1.00
H1298  H     0.40715   0.70668   0.65922   0.00000  Uiso   1.00
H1299  H     0.43081   0.75867   0.67674   0.00000  Uiso   1.00
H1300  H     0.43418   0.73978   0.61978   0.00000  Uiso   1.00
H1301  H     0.50359   0.72521   0.66080   0.00000  Uiso   1.00
H1302  H     0.47851   0.67805   0.64349   0.00000  Uiso   1.00
H1303  H     0.54493   0.94425   0.85773   0.00000  Uiso   1.00
H1304  H     0.56999   0.89791   0.83180   0.00000  Uiso   1.00
H1305  H     0.49025   0.90232   0.97378   0.00000  Uiso   1.00
H1306  H     0.60087   0.94147   0.85758   0.00000  Uiso   1.00
H1307  H     0.58449   0.94069   0.76536   0.00000  Uiso   1.00
H1308  H     0.59387   0.98654   0.79761   0.00000  Uiso   1.00
H1309  H     0.51521   0.77162   0.52457   0.00000  Uiso   1.00
H1310  H     0.45358   0.89109   0.61423   0.00000  Uiso   1.00
H1311  H     0.46861   0.76438   0.88345   0.00000  Uiso   1.00
H1312  H     0.50026   0.90371   0.89359   0.00000  Uiso   1.00
H1313  H     0.52861   0.77355   0.60617   0.00000  Uiso   1.00
H1314  H     0.36804   0.77379   0.70827   0.00000  Uiso   1.00
N1315  N     0.50000   0.95240   0.75000   0.00000  Uiso   1.00
N1316  N     0.50000   0.71427   0.75000   0.00000  Uiso   1.00
O1317  O     0.43892   0.87154   0.75000   0.00000  Uiso   1.00
O1318  O     0.56108   0.79513   0.75001   0.00000  Uiso   1.00
O1319  O     0.56108   0.87154   0.75001   0.00000  Uiso   1.00
O1320  O     0.43892   0.79513   0.75000   0.00000  Uiso   1.00
O1321  O     0.50000   0.87155   0.68453   0.00000  Uiso   1.00
O1322  O     0.50000   0.79511   0.81547   0.00000  Uiso   1.00
O1323  O     0.50000   0.87155   0.81547   0.00000  Uiso   1.00
O1324  O     0.50000   0.79511   0.68453   0.00000  Uiso   1.00
Zn1325 Zn    0.50000   0.88437   0.75000   0.00000  Uiso   1.00
Zn1326 Zn    0.50000   0.78229   0.75000   0.00000  Uiso   1.00
C1327  C     0.75360   0.83303   0.75006   0.00000  Uiso   1.00
C1328  C     0.98060   0.86552   0.77515   0.00000  Uiso   1.00
C1329  C     0.97675   0.79995   0.72660   0.00000  Uiso   1.00
C1330  C     0.69016   0.86486   0.77570   0.00000  Uiso   1.00
C1331  C     0.79225   0.86354   0.54857   0.00000  Uiso   1.00
C1332  C     0.80052   0.79390   0.94844   0.00000  Uiso   1.00
C1333  C     0.81819   0.87223   0.95405   0.00000  Uiso   1.00
C1334  C     0.83410   0.79711   0.54411   0.00000  Uiso   1.00
C1335  C     0.80048   0.86498   0.59481   0.00000  Uiso   1.00
C1336  C     0.80759   0.79447   0.90293   0.00000  Uiso   1.00
C1337  C     0.82504   0.87278   0.90851   0.00000  Uiso   1.00
C1338  C     0.91312   0.83350   0.75013   0.00000  Uiso   1.00
C1339  C     0.84212   0.79844   0.59036   0.00000  Uiso   1.00
C1340  C     0.82568   0.83262   0.61563   0.00000  Uiso   1.00
C1341  C     0.82189   0.83346   0.88322   0.00000  Uiso   1.00
C1342  C     0.80956   0.82997   0.52310   0.00000  Uiso   1.00
C1343  C     0.80738   0.83241   0.97436   0.00000  Uiso   1.00
C1344  C     0.95742   0.83340   0.75025   0.00000  Uiso   1.00
C1345  C     0.70943   0.83234   0.75093   0.00000  Uiso   1.00
C1346  C     0.87383   0.71117   0.82679   0.00000  Uiso   1.00
C1347  C     0.91483   0.73747   0.82356   0.00000  Uiso   1.00
C1348  C     0.76966   0.95313   0.69584   0.00000  Uiso   1.00
C1349  C     0.83232   0.83315   0.66397   0.00000  Uiso   1.00
C1350  C     0.72983   0.95933   0.72112   0.00000  Uiso   1.00
C1351  C     0.80883   0.70573   0.66790   0.00000  Uiso   1.00
C1352  C     0.76774   0.72911   0.65550   0.00000  Uiso   1.00
C1353  C     0.90404   0.95904   0.79285   0.00000  Uiso   1.00
C1354  C     0.90450   0.93407   0.83746   0.00000  Uiso   1.00
C1355  C     0.83099   0.83344   0.83589   0.00000  Uiso   1.00
C1356  C     0.85604   0.69052   0.78263   0.00000  Uiso   1.00
C1357  C     0.80650   0.97581   0.72139   0.00000  Uiso   1.00
C1358  C     0.81263   0.68919   0.71599   0.00000  Uiso   1.00
C1359  C     0.86164   0.97720   0.77700   0.00000  Uiso   1.00
C1360  C     0.68638   0.79936   0.72703   0.00000  Uiso   1.00
H1361  H     0.77324   0.88903   0.53255   0.00000  Uiso   1.00
H1362  H     0.96591   0.89033   0.79489   0.00000  Uiso   1.00
H1363  H     0.95867   0.77479   0.70754   0.00000  Uiso   1.00
H1364  H     0.70825   0.88921   0.79582   0.00000  Uiso   1.00
H1365  H     0.92877   0.73207   0.79056   0.00000  Uiso   1.00
H1366  H     0.90978   0.77320   0.82949   0.00000  Uiso   1.00
H1367  H     0.93820   0.72671   0.85028   0.00000  Uiso   1.00
H1368  H     0.84969   0.72914   0.84382   0.00000  Uiso   1.00
H1369  H     0.88031   0.68500   0.85196   0.00000  Uiso   1.00
H1370  H     0.70396   0.93876   0.70505   0.00000  Uiso   1.00
H1371  H     0.73512   0.94955   0.75690   0.00000  Uiso   1.00
H1372  H     0.79121   0.76318   0.96379   0.00000  Uiso   1.00
H1373  H     0.72033   0.99453   0.72039   0.00000  Uiso   1.00
H1374  H     0.76377   0.96565   0.66122   0.00000  Uiso   1.00
H1375  H     0.77524   0.91797   0.69033   0.00000  Uiso   1.00
H1376  H     0.74048   0.70668   0.65922   0.00000  Uiso   1.00
H1377  H     0.76414   0.75867   0.67674   0.00000  Uiso   1.00
H1378  H     0.76752   0.73978   0.61978   0.00000  Uiso   1.00
H1379  H     0.83692   0.72521   0.66080   0.00000  Uiso   1.00
H1380  H     0.81184   0.67805   0.64349   0.00000  Uiso   1.00
H1381  H     0.87826   0.94425   0.85773   0.00000  Uiso   1.00
H1382  H     0.90332   0.89791   0.83180   0.00000  Uiso   1.00
H1383  H     0.82359   0.90232   0.97378   0.00000  Uiso   1.00
H1384  H     0.93420   0.94147   0.85758   0.00000  Uiso   1.00
H1385  H     0.91783   0.94069   0.76536   0.00000  Uiso   1.00
H1386  H     0.92721   0.98654   0.79761   0.00000  Uiso   1.00
H1387  H     0.84854   0.77162   0.52457   0.00000  Uiso   1.00
H1388  H     0.78691   0.89109   0.61423   0.00000  Uiso   1.00
H1389  H     0.80194   0.76438   0.88345   0.00000  Uiso   1.00
H1390  H     0.83359   0.90371   0.89359   0.00000  Uiso   1.00
H1391  H     0.86194   0.77355   0.60617   0.00000  Uiso   1.00
H1392  H     0.70137   0.77379   0.70827   0.00000  Uiso   1.00
N1393  N     0.83333   0.95240   0.75000   0.00000  Uiso   1.00
N1394  N     0.83333   0.71427   0.75000   0.00000  Uiso   1.00
O1395  O     0.77226   0.87154   0.75000   0.00000  Uiso   1.00
O1396  O     0.89441   0.79513   0.75001   0.00000  Uiso   1.00
O1397  O     0.89441   0.87154   0.75001   0.00000  Uiso   1.00
O1398  O     0.77226   0.79513   0.75000   0.00000  Uiso   1.00
O1399  O     0.83333   0.87155   0.68453   0.00000  Uiso   1.00
O1400  O     0.83334   0.79511   0.81547   0.00000  Uiso   1.00
O1401  O     0.83334   0.87155   0.81547   0.00000  Uiso   1.00
O1402  O     0.83333   0.79511   0.68453   0.00000  Uiso   1.00
Zn1403 Zn    0.83333   0.88437   0.75000   0.00000  Uiso   1.00
Zn1404 Zn    0.83333   0.78229   0.75000   0.00000  Uiso   1.00
loop_
_geom_bond_atom_site_label_1
_geom_bond_atom_site_label_2
_geom_bond_distance
_geom_bond_site_symmetry_2
_ccdc_geom_bond_type
C1     C19     1.413   .     S
C1     O72     1.298   .     A
C1     O69     1.301   .     A
C2     C18     1.394   .     A
C2     H36     1.076   .     S
C2     C82     1.370   .     S
C3     C18     1.396   .     A
C3     H37     1.084   .     S
C3     C112    1.372   .     S
C4     C19     1.393   .     A
C4     H38     1.083   .     S
C4     C158    1.370   1_455 S
C5     C16     1.398   .     A
C5     C9      1.382   .     A
C5     H35     1.084   .     S
C6     C17     1.397   .     A
C6     H46     1.084   .     S
C6     C10     1.382   .     A
C7     C11     1.381   .     A
C7     C17     1.399   .     A
C7     H57     1.083   .     S
C8     C13     1.382   .     A
C8     H61     1.083   .     S
C8     C16     1.402   .     A
C9     H62     1.082   .     S
C9     C14     1.400   .     A
C10    H63     1.080   .     S
C10    C15     1.403   .     A
C11    C15     1.399   .     A
C11    H64     1.077   .     S
C12    O71     1.302   .     A
C12    O70     1.298   .     A
C12    C18     1.415   .     S
C13    C14     1.396   .     A
C13    H65     1.082   .     S
C14    C23     1.438   .     S
C15    C29     1.451   .     S
C16    C719    1.447   1_554 S
C17    C718    1.447   .     S
C19    C34     1.395   .     A
C20    C30     1.523   .     S
C20    H43     1.106   .     S
C20    H42     1.093   .     S
C20    C21     1.532   .     S
C21    H39     1.110   .     S
C21    H41     1.111   .     S
C21    H40     1.108   .     S
C22    H48     1.105   .     S
C22    C31     1.516   .     S
C22    H49     1.092   .     S
C22    C24     1.526   .     S
C23    O76     1.306   .     A
C23    O73     1.305   .     A
C24    H45     1.109   .     S
C24    H44     1.110   .     S
C24    H47     1.110   .     S
C25    C32     1.515   .     S
C25    H54     1.110   .     S
C25    C26     1.527   .     S
C25    H53     1.099   .     S
C26    H50     1.108   .     S
C26    H52     1.110   .     S
C26    H51     1.100   .     S
C27    C33     1.519   .     S
C27    H60     1.108   .     S
C27    H59     1.098   .     S
C27    C28     1.529   .     S
C28    H56     1.104   .     S
C28    H55     1.105   .     S
C28    H58     1.111   .     S
C29    O74     1.307   .     A
C29    O75     1.310   .     A
C30    N68     1.387   .     A
C30    C501    1.433   1_545 S
C31    N67     1.378   .     A
C31    C266    1.435   .     S
C32    N68     1.388   .     A
C32    C499    1.435   1_545 S
C33    N67     1.382   .     A
C33    C264    1.433   .     S
C34    H66     1.081   .     S
C34    C159    1.372   1_455 S
N67    Zn77    2.056   .     S
N68    Zn78    2.056   .     S
O69    Zn77    1.985   .     S
O70    Zn78    1.985   .     S
O71    Zn77    1.994   .     S
O72    Zn78    1.994   .     S
O73    Zn77    1.977   .     S
O74    Zn78    1.977   .     S
O75    Zn77    1.984   .     S
O76    Zn78    1.984   .     S
C79    C97     1.413   .     S
C79    O150    1.298   .     A
C79    O147    1.301   .     A
C80    C96     1.394   .     A
C80    H114    1.076   .     S
C80    C160    1.370   .     S
C81    C96     1.396   .     A
C81    H115    1.084   .     S
C81    C190    1.372   .     S
C82    C97     1.393   .     A
C82    H116    1.083   .     S
C83    C94     1.398   .     A
C83    C87     1.382   .     A
C83    H113    1.084   .     S
C84    C95     1.397   .     A
C84    H124    1.084   .     S
C84    C88     1.382   .     A
C85    C89     1.381   .     A
C85    C95     1.399   .     A
C85    H135    1.083   .     S
C86    C91     1.382   .     A
C86    H139    1.083   .     S
C86    C94     1.402   .     A
C87    H140    1.082   .     S
C87    C92     1.400   .     A
C88    H141    1.080   .     S
C88    C93     1.403   .     A
C89    C93     1.399   .     A
C89    H142    1.077   .     S
C90    O149    1.302   .     A
C90    O148    1.298   .     A
C90    C96     1.415   .     S
C91    C92     1.396   .     A
C91    H143    1.082   .     S
C92    C101    1.438   .     S
C93    C107    1.451   .     S
C94    C797    1.447   1_554 S
C95    C796    1.447   .     S
C97    C112    1.395   .     A
C98    C108    1.523   .     S
C98    H121    1.106   .     S
C98    H120    1.093   .     S
C98    C99     1.532   .     S
C99    H117    1.110   .     S
C99    H119    1.111   .     S
C99    H118    1.108   .     S
C100   H126    1.105   .     S
C100   C109    1.516   .     S
C100   H127    1.092   .     S
C100   C102    1.526   .     S
C101   O154    1.306   .     A
C101   O151    1.305   .     A
C102   H123    1.109   .     S
C102   H122    1.110   .     S
C102   H125    1.110   .     S
C103   C110    1.515   .     S
C103   H132    1.110   .     S
C103   C104    1.527   .     S
C103   H131    1.099   .     S
C104   H128    1.108   .     S
C104   H130    1.110   .     S
C104   H129    1.100   .     S
C105   C111    1.519   .     S
C105   H138    1.108   .     S
C105   H137    1.098   .     S
C105   C106    1.529   .     S
C106   H134    1.104   .     S
C106   H133    1.105   .     S
C106   H136    1.111   .     S
C107   O152    1.307   .     A
C107   O153    1.310   .     A
C108   N146    1.387   .     A
C108   C579    1.433   1_545 S
C109   N145    1.378   .     A
C109   C344    1.435   .     S
C110   N146    1.388   .     A
C110   C577    1.435   1_545 S
C111   N145    1.382   .     A
C111   C342    1.433   .     S
C112   H144    1.081   .     S
N145   Zn155   2.056   .     S
N146   Zn156   2.056   .     S
O147   Zn155   1.985   .     S
O148   Zn156   1.985   .     S
O149   Zn155   1.994   .     S
O150   Zn156   1.994   .     S
O151   Zn155   1.977   .     S
O152   Zn156   1.977   .     S
O153   Zn155   1.984   .     S
O154   Zn156   1.984   .     S
C157   C175    1.413   .     S
C157   O228    1.298   .     A
C157   O225    1.301   .     A
C158   C174    1.394   .     A
C158   H192    1.076   .     S
C158   C4      1.370   1_655 S
C159   C174    1.396   .     A
C159   H193    1.084   .     S
C159   C34     1.372   1_655 S
C160   C175    1.393   .     A
C160   H194    1.083   .     S
C161   C172    1.398   .     A
C161   C165    1.382   .     A
C161   H191    1.084   .     S
C162   C173    1.397   .     A
C162   H202    1.084   .     S
C162   C166    1.382   .     A
C163   C167    1.381   .     A
C163   C173    1.399   .     A
C163   H213    1.083   .     S
C164   C169    1.382   .     A
C164   H217    1.083   .     S
C164   C172    1.402   .     A
C165   H218    1.082   .     S
C165   C170    1.400   .     A
C166   H219    1.080   .     S
C166   C171    1.403   .     A
C167   C171    1.399   .     A
C167   H220    1.077   .     S
C168   O227    1.302   .     A
C168   O226    1.298   .     A
C168   C174    1.415   .     S
C169   C170    1.396   .     A
C169   H221    1.082   .     S
C170   C179    1.438   .     S
C171   C185    1.451   .     S
C172   C875    1.447   1_554 S
C173   C874    1.447   .     S
C175   C190    1.395   .     A
C176   C186    1.523   .     S
C176   H199    1.106   .     S
C176   H198    1.093   .     S
C176   C177    1.532   .     S
C177   H195    1.110   .     S
C177   H197    1.111   .     S
C177   H196    1.108   .     S
C178   H204    1.105   .     S
C178   C187    1.516   .     S
C178   H205    1.092   .     S
C178   C180    1.526   .     S
C179   O232    1.306   .     A
C179   O229    1.305   .     A
C180   H201    1.109   .     S
C180   H200    1.110   .     S
C180   H203    1.110   .     S
C181   C188    1.515   .     S
C181   H210    1.110   .     S
C181   C182    1.527   .     S
C181   H209    1.099   .     S
C182   H206    1.108   .     S
C182   H208    1.110   .     S
C182   H207    1.100   .     S
C183   C189    1.519   .     S
C183   H216    1.108   .     S
C183   H215    1.098   .     S
C183   C184    1.529   .     S
C184   H212    1.104   .     S
C184   H211    1.105   .     S
C184   H214    1.111   .     S
C185   O230    1.307   .     A
C185   O231    1.310   .     A
C186   N224    1.387   .     A
C186   C657    1.433   1_545 S
C187   N223    1.378   .     A
C187   C422    1.435   .     S
C188   N224    1.388   .     A
C188   C655    1.435   1_545 S
C189   N223    1.382   .     A
C189   C420    1.433   .     S
C190   H222    1.081   .     S
N223   Zn233   2.056   .     S
N224   Zn234   2.056   .     S
O225   Zn233   1.985   .     S
O226   Zn234   1.985   .     S
O227   Zn233   1.994   .     S
O228   Zn234   1.994   .     S
O229   Zn233   1.977   .     S
O230   Zn234   1.977   .     S
O231   Zn233   1.984   .     S
O232   Zn234   1.984   .     S
C235   C253    1.413   .     S
C235   O306    1.298   .     A
C235   O303    1.301   .     A
C236   C252    1.394   .     A
C236   H270    1.076   .     S
C236   C316    1.370   .     S
C237   C252    1.396   .     A
C237   H271    1.084   .     S
C237   C346    1.372   .     S
C238   C253    1.393   .     A
C238   H272    1.083   .     S
C238   C392    1.370   1_455 S
C239   C250    1.398   .     A
C239   C243    1.382   .     A
C239   H269    1.084   .     S
C240   C251    1.397   .     A
C240   H280    1.084   .     S
C240   C244    1.382   .     A
C241   C245    1.381   .     A
C241   C251    1.399   .     A
C241   H291    1.083   .     S
C242   C247    1.382   .     A
C242   H295    1.083   .     S
C242   C250    1.402   .     A
C243   H296    1.082   .     S
C243   C248    1.400   .     A
C244   H297    1.080   .     S
C244   C249    1.403   .     A
C245   C249    1.399   .     A
C245   H298    1.077   .     S
C246   O305    1.302   .     A
C246   O304    1.298   .     A
C246   C252    1.415   .     S
C247   C248    1.396   .     A
C247   H299    1.082   .     S
C248   C257    1.438   .     S
C249   C263    1.451   .     S
C250   C953    1.447   1_554 S
C251   C952    1.447   .     S
C253   C268    1.395   .     A
C254   C264    1.523   .     S
C254   H277    1.106   .     S
C254   H276    1.093   .     S
C254   C255    1.532   .     S
C255   H273    1.110   .     S
C255   H275    1.111   .     S
C255   H274    1.108   .     S
C256   H282    1.105   .     S
C256   C265    1.516   .     S
C256   H283    1.092   .     S
C256   C258    1.526   .     S
C257   O310    1.306   .     A
C257   O307    1.305   .     A
C258   H279    1.109   .     S
C258   H278    1.110   .     S
C258   H281    1.110   .     S
C259   C266    1.515   .     S
C259   H288    1.110   .     S
C259   C260    1.527   .     S
C259   H287    1.099   .     S
C260   H284    1.108   .     S
C260   H286    1.110   .     S
C260   H285    1.100   .     S
C261   C267    1.519   .     S
C261   H294    1.108   .     S
C261   H293    1.098   .     S
C261   C262    1.529   .     S
C262   H290    1.104   .     S
C262   H289    1.105   .     S
C262   H292    1.111   .     S
C263   O308    1.307   .     A
C263   O309    1.310   .     A
C264   N302    1.387   .     A
C265   N301    1.378   .     A
C265   C500    1.435   .     S
C266   N302    1.388   .     A
C267   N301    1.382   .     A
C267   C498    1.433   .     S
C268   H300    1.081   .     S
C268   C393    1.372   1_455 S
N301   Zn311   2.056   .     S
N302   Zn312   2.056   .     S
O303   Zn311   1.985   .     S
O304   Zn312   1.985   .     S
O305   Zn311   1.994   .     S
O306   Zn312   1.994   .     S
O307   Zn311   1.977   .     S
O308   Zn312   1.977   .     S
O309   Zn311   1.984   .     S
O310   Zn312   1.984   .     S
C313   C331    1.413   .     S
C313   O384    1.298   .     A
C313   O381    1.301   .     A
C314   C330    1.394   .     A
C314   H348    1.076   .     S
C314   C394    1.370   .     S
C315   C330    1.396   .     A
C315   H349    1.084   .     S
C315   C424    1.372   .     S
C316   C331    1.393   .     A
C316   H350    1.083   .     S
C317   C328    1.398   .     A
C317   C321    1.382   .     A
C317   H347    1.084   .     S
C318   C329    1.397   .     A
C318   H358    1.084   .     S
C318   C322    1.382   .     A
C319   C323    1.381   .     A
C319   C329    1.399   .     A
C319   H369    1.083   .     S
C320   C325    1.382   .     A
C320   H373    1.083   .     S
C320   C328    1.402   .     A
C321   H374    1.082   .     S
C321   C326    1.400   .     A
C322   H375    1.080   .     S
C322   C327    1.403   .     A
C323   C327    1.399   .     A
C323   H376    1.077   .     S
C324   O383    1.302   .     A
C324   O382    1.298   .     A
C324   C330    1.415   .     S
C325   C326    1.396   .     A
C325   H377    1.082   .     S
C326   C335    1.438   .     S
C327   C341    1.451   .     S
C328   C1031   1.447   1_554 S
C329   C1030   1.447   .     S
C331   C346    1.395   .     A
C332   C342    1.523   .     S
C332   H355    1.106   .     S
C332   H354    1.093   .     S
C332   C333    1.532   .     S
C333   H351    1.110   .     S
C333   H353    1.111   .     S
C333   H352    1.108   .     S
C334   H360    1.105   .     S
C334   C343    1.516   .     S
C334   H361    1.092   .     S
C334   C336    1.526   .     S
C335   O388    1.306   .     A
C335   O385    1.305   .     A
C336   H357    1.109   .     S
C336   H356    1.110   .     S
C336   H359    1.110   .     S
C337   C344    1.515   .     S
C337   H366    1.110   .     S
C337   C338    1.527   .     S
C337   H365    1.099   .     S
C338   H362    1.108   .     S
C338   H364    1.110   .     S
C338   H363    1.100   .     S
C339   C345    1.519   .     S
C339   H372    1.108   .     S
C339   H371    1.098   .     S
C339   C340    1.529   .     S
C340   H368    1.104   .     S
C340   H367    1.105   .     S
C340   H370    1.111   .     S
C341   O386    1.307   .     A
C341   O387    1.310   .     A
C342   N380    1.387   .     A
C343   N379    1.378   .     A
C343   C578    1.435   .     S
C344   N380    1.388   .     A
C345   N379    1.382   .     A
C345   C576    1.433   .     S
C346   H378    1.081   .     S
N379   Zn389   2.056   .     S
N380   Zn390   2.056   .     S
O381   Zn389   1.985   .     S
O382   Zn390   1.985   .     S
O383   Zn389   1.994   .     S
O384   Zn390   1.994   .     S
O385   Zn389   1.977   .     S
O386   Zn390   1.977   .     S
O387   Zn389   1.984   .     S
O388   Zn390   1.984   .     S
C391   C409    1.413   .     S
C391   O462    1.298   .     A
C391   O459    1.301   .     A
C392   C408    1.394   .     A
C392   H426    1.076   .     S
C392   C238    1.370   1_655 S
C393   C408    1.396   .     A
C393   H427    1.084   .     S
C393   C268    1.372   1_655 S
C394   C409    1.393   .     A
C394   H428    1.083   .     S
C395   C406    1.398   .     A
C395   C399    1.382   .     A
C395   H425    1.084   .     S
C396   C407    1.397   .     A
C396   H436    1.084   .     S
C396   C400    1.382   .     A
C397   C401    1.381   .     A
C397   C407    1.399   .     A
C397   H447    1.083   .     S
C398   C403    1.382   .     A
C398   H451    1.083   .     S
C398   C406    1.402   .     A
C399   H452    1.082   .     S
C399   C404    1.400   .     A
C400   H453    1.080   .     S
C400   C405    1.403   .     A
C401   C405    1.399   .     A
C401   H454    1.077   .     S
C402   O461    1.302   .     A
C402   O460    1.298   .     A
C402   C408    1.415   .     S
C403   C404    1.396   .     A
C403   H455    1.082   .     S
C404   C413    1.438   .     S
C405   C419    1.451   .     S
C406   C1109   1.447   1_554 S
C407   C1108   1.447   .     S
C409   C424    1.395   .     A
C410   C420    1.523   .     S
C410   H433    1.106   .     S
C410   H432    1.093   .     S
C410   C411    1.532   .     S
C411   H429    1.110   .     S
C411   H431    1.111   .     S
C411   H430    1.108   .     S
C412   H438    1.105   .     S
C412   C421    1.516   .     S
C412   H439    1.092   .     S
C412   C414    1.526   .     S
C413   O466    1.306   .     A
C413   O463    1.305   .     A
C414   H435    1.109   .     S
C414   H434    1.110   .     S
C414   H437    1.110   .     S
C415   C422    1.515   .     S
C415   H444    1.110   .     S
C415   C416    1.527   .     S
C415   H443    1.099   .     S
C416   H440    1.108   .     S
C416   H442    1.110   .     S
C416   H441    1.100   .     S
C417   C423    1.519   .     S
C417   H450    1.108   .     S
C417   H449    1.098   .     S
C417   C418    1.529   .     S
C418   H446    1.104   .     S
C418   H445    1.105   .     S
C418   H448    1.111   .     S
C419   O464    1.307   .     A
C419   O465    1.310   .     A
C420   N458    1.387   .     A
C421   N457    1.378   .     A
C421   C656    1.435   .     S
C422   N458    1.388   .     A
C423   N457    1.382   .     A
C423   C654    1.433   .     S
C424   H456    1.081   .     S
N457   Zn467   2.056   .     S
N458   Zn468   2.056   .     S
O459   Zn467   1.985   .     S
O460   Zn468   1.985   .     S
O461   Zn467   1.994   .     S
O462   Zn468   1.994   .     S
O463   Zn467   1.977   .     S
O464   Zn468   1.977   .     S
O465   Zn467   1.984   .     S
O466   Zn468   1.984   .     S
C469   C487    1.413   .     S
C469   O540    1.298   .     A
C469   O537    1.301   .     A
C470   C486    1.394   .     A
C470   H504    1.076   .     S
C470   C550    1.370   .     S
C471   C486    1.396   .     A
C471   H505    1.084   .     S
C471   C580    1.372   .     S
C472   C487    1.393   .     A
C472   H506    1.083   .     S
C472   C626    1.370   1_455 S
C473   C484    1.398   .     A
C473   C477    1.382   .     A
C473   H503    1.084   .     S
C474   C485    1.397   .     A
C474   H514    1.084   .     S
C474   C478    1.382   .     A
C475   C479    1.381   .     A
C475   C485    1.399   .     A
C475   H525    1.083   .     S
C476   C481    1.382   .     A
C476   H529    1.083   .     S
C476   C484    1.402   .     A
C477   H530    1.082   .     S
C477   C482    1.400   .     A
C478   H531    1.080   .     S
C478   C483    1.403   .     A
C479   C483    1.399   .     A
C479   H532    1.077   .     S
C480   O539    1.302   .     A
C480   O538    1.298   .     A
C480   C486    1.415   .     S
C481   C482    1.396   .     A
C481   H533    1.082   .     S
C482   C491    1.438   .     S
C483   C497    1.451   .     S
C484   C1187   1.447   1_554 S
C485   C1186   1.447   .     S
C487   C502    1.395   .     A
C488   C498    1.523   .     S
C488   H511    1.106   .     S
C488   H510    1.093   .     S
C488   C489    1.532   .     S
C489   H507    1.110   .     S
C489   H509    1.111   .     S
C489   H508    1.108   .     S
C490   H516    1.105   .     S
C490   C499    1.516   .     S
C490   H517    1.092   .     S
C490   C492    1.526   .     S
C491   O544    1.306   .     A
C491   O541    1.305   .     A
C492   H513    1.109   .     S
C492   H512    1.110   .     S
C492   H515    1.110   .     S
C493   C500    1.515   .     S
C493   H522    1.110   .     S
C493   C494    1.527   .     S
C493   H521    1.099   .     S
C494   H518    1.108   .     S
C494   H520    1.110   .     S
C494   H519    1.100   .     S
C495   C501    1.519   .     S
C495   H528    1.108   .     S
C495   H527    1.098   .     S
C495   C496    1.529   .     S
C496   H524    1.104   .     S
C496   H523    1.105   .     S
C496   H526    1.111   .     S
C497   O542    1.307   .     A
C497   O543    1.310   .     A
C498   N536    1.387   .     A
C499   N535    1.378   .     A
C499   C32     1.435   1_565 S
C500   N536    1.388   .     A
C501   N535    1.382   .     A
C501   C30     1.433   1_565 S
C502   H534    1.081   .     S
C502   C627    1.372   1_455 S
N535   Zn545   2.056   .     S
N536   Zn546   2.056   .     S
O537   Zn545   1.985   .     S
O538   Zn546   1.985   .     S
O539   Zn545   1.994   .     S
O540   Zn546   1.994   .     S
O541   Zn545   1.977   .     S
O542   Zn546   1.977   .     S
O543   Zn545   1.984   .     S
O544   Zn546   1.984   .     S
C547   C565    1.413   .     S
C547   O618    1.298   .     A
C547   O615    1.301   .     A
C548   C564    1.394   .     A
C548   H582    1.076   .     S
C548   C628    1.370   .     S
C549   C564    1.396   .     A
C549   H583    1.084   .     S
C549   C658    1.372   .     S
C550   C565    1.393   .     A
C550   H584    1.083   .     S
C551   C562    1.398   .     A
C551   C555    1.382   .     A
C551   H581    1.084   .     S
C552   C563    1.397   .     A
C552   H592    1.084   .     S
C552   C556    1.382   .     A
C553   C557    1.381   .     A
C553   C563    1.399   .     A
C553   H603    1.083   .     S
C554   C559    1.382   .     A
C554   H607    1.083   .     S
C554   C562    1.402   .     A
C555   H608    1.082   .     S
C555   C560    1.400   .     A
C556   H609    1.080   .     S
C556   C561    1.403   .     A
C557   C561    1.399   .     A
C557   H610    1.077   .     S
C558   O617    1.302   .     A
C558   O616    1.298   .     A
C558   C564    1.415   .     S
C559   C560    1.396   .     A
C559   H611    1.082   .     S
C560   C569    1.438   .     S
C561   C575    1.451   .     S
C562   C1265   1.447   1_554 S
C563   C1264   1.447   .     S
C565   C580    1.395   .     A
C566   C576    1.523   .     S
C566   H589    1.106   .     S
C566   H588    1.093   .     S
C566   C567    1.532   .     S
C567   H585    1.110   .     S
C567   H587    1.111   .     S
C567   H586    1.108   .     S
C568   H594    1.105   .     S
C568   C577    1.516   .     S
C568   H595    1.092   .     S
C568   C570    1.526   .     S
C569   O622    1.306   .     A
C569   O619    1.305   .     A
C570   H591    1.109   .     S
C570   H590    1.110   .     S
C570   H593    1.110   .     S
C571   C578    1.515   .     S
C571   H600    1.110   .     S
C571   C572    1.527   .     S
C571   H599    1.099   .     S
C572   H596    1.108   .     S
C572   H598    1.110   .     S
C572   H597    1.100   .     S
C573   C579    1.519   .     S
C573   H606    1.108   .     S
C573   H605    1.098   .     S
C573   C574    1.529   .     S
C574   H602    1.104   .     S
C574   H601    1.105   .     S
C574   H604    1.111   .     S
C575   O620    1.307   .     A
C575   O621    1.310   .     A
C576   N614    1.387   .     A
C577   N613    1.378   .     A
C577   C110    1.435   1_565 S
C578   N614    1.388   .     A
C579   N613    1.382   .     A
C579   C108    1.433   1_565 S
C580   H612    1.081   .     S
N613   Zn623   2.056   .     S
N614   Zn624   2.056   .     S
O615   Zn623   1.985   .     S
O616   Zn624   1.985   .     S
O617   Zn623   1.994   .     S
O618   Zn624   1.994   .     S
O619   Zn623   1.977   .     S
O620   Zn624   1.977   .     S
O621   Zn623   1.984   .     S
O622   Zn624   1.984   .     S
C625   C643    1.413   .     S
C625   O696    1.298   .     A
C625   O693    1.301   .     A
C626   C642    1.394   .     A
C626   H660    1.076   .     S
C626   C472    1.370   1_655 S
C627   C642    1.396   .     A
C627   H661    1.084   .     S
C627   C502    1.372   1_655 S
C628   C643    1.393   .     A
C628   H662    1.083   .     S
C629   C640    1.398   .     A
C629   C633    1.382   .     A
C629   H659    1.084   .     S
C630   C641    1.397   .     A
C630   H670    1.084   .     S
C630   C634    1.382   .     A
C631   C635    1.381   .     A
C631   C641    1.399   .     A
C631   H681    1.083   .     S
C632   C637    1.382   .     A
C632   H685    1.083   .     S
C632   C640    1.402   .     A
C633   H686    1.082   .     S
C633   C638    1.400   .     A
C634   H687    1.080   .     S
C634   C639    1.403   .     A
C635   C639    1.399   .     A
C635   H688    1.077   .     S
C636   O695    1.302   .     A
C636   O694    1.298   .     A
C636   C642    1.415   .     S
C637   C638    1.396   .     A
C637   H689    1.082   .     S
C638   C647    1.438   .     S
C639   C653    1.451   .     S
C640   C1343   1.447   1_554 S
C641   C1342   1.447   .     S
C643   C658    1.395   .     A
C644   C654    1.523   .     S
C644   H667    1.106   .     S
C644   H666    1.093   .     S
C644   C645    1.532   .     S
C645   H663    1.110   .     S
C645   H665    1.111   .     S
C645   H664    1.108   .     S
C646   H672    1.105   .     S
C646   C655    1.516   .     S
C646   H673    1.092   .     S
C646   C648    1.526   .     S
C647   O700    1.306   .     A
C647   O697    1.305   .     A
C648   H669    1.109   .     S
C648   H668    1.110   .     S
C648   H671    1.110   .     S
C649   C656    1.515   .     S
C649   H678    1.110   .     S
C649   C650    1.527   .     S
C649   H677    1.099   .     S
C650   H674    1.108   .     S
C650   H676    1.110   .     S
C650   H675    1.100   .     S
C651   C657    1.519   .     S
C651   H684    1.108   .     S
C651   H683    1.098   .     S
C651   C652    1.529   .     S
C652   H680    1.104   .     S
C652   H679    1.105   .     S
C652   H682    1.111   .     S
C653   O698    1.307   .     A
C653   O699    1.310   .     A
C654   N692    1.387   .     A
C655   N691    1.378   .     A
C655   C188    1.435   1_565 S
C656   N692    1.388   .     A
C657   N691    1.382   .     A
C657   C186    1.433   1_565 S
C658   H690    1.081   .     S
N691   Zn701   2.056   .     S
N692   Zn702   2.056   .     S
O693   Zn701   1.985   .     S
O694   Zn702   1.985   .     S
O695   Zn701   1.994   .     S
O696   Zn702   1.994   .     S
O697   Zn701   1.977   .     S
O698   Zn702   1.977   .     S
O699   Zn701   1.984   .     S
O700   Zn702   1.984   .     S
C703   C721    1.413   .     S
C703   O774    1.298   .     A
C703   O771    1.301   .     A
C704   C720    1.394   .     A
C704   H738    1.076   .     S
C704   C784    1.370   .     S
C705   C720    1.396   .     A
C705   H739    1.084   .     S
C705   C814    1.372   .     S
C706   C721    1.393   .     A
C706   H740    1.083   .     S
C706   C860    1.370   1_455 S
C707   C718    1.398   .     A
C707   C711    1.382   .     A
C707   H737    1.084   .     S
C708   C719    1.397   .     A
C708   H748    1.084   .     S
C708   C712    1.382   .     A
C709   C713    1.381   .     A
C709   C719    1.399   .     A
C709   H759    1.083   .     S
C710   C715    1.382   .     A
C710   H763    1.083   .     S
C710   C718    1.402   .     A
C711   H764    1.082   .     S
C711   C716    1.400   .     A
C712   H765    1.080   .     S
C712   C717    1.403   .     A
C713   C717    1.399   .     A
C713   H766    1.077   .     S
C714   O773    1.302   .     A
C714   O772    1.298   .     A
C714   C720    1.415   .     S
C715   C716    1.396   .     A
C715   H767    1.082   .     S
C716   C725    1.438   .     S
C717   C731    1.451   .     S
C719   C16     1.447   1_556 S
C721   C736    1.395   .     A
C722   C732    1.523   .     S
C722   H745    1.106   .     S
C722   H744    1.093   .     S
C722   C723    1.532   .     S
C723   H741    1.110   .     S
C723   H743    1.111   .     S
C723   H742    1.108   .     S
C724   H750    1.105   .     S
C724   C733    1.516   .     S
C724   H751    1.092   .     S
C724   C726    1.526   .     S
C725   O778    1.306   .     A
C725   O775    1.305   .     A
C726   H747    1.109   .     S
C726   H746    1.110   .     S
C726   H749    1.110   .     S
C727   C734    1.515   .     S
C727   H756    1.110   .     S
C727   C728    1.527   .     S
C727   H755    1.099   .     S
C728   H752    1.108   .     S
C728   H754    1.110   .     S
C728   H753    1.100   .     S
C729   C735    1.519   .     S
C729   H762    1.108   .     S
C729   H761    1.098   .     S
C729   C730    1.529   .     S
C730   H758    1.104   .     S
C730   H757    1.105   .     S
C730   H760    1.111   .     S
C731   O776    1.307   .     A
C731   O777    1.310   .     A
C732   N770    1.387   .     A
C732   C1203   1.433   1_545 S
C733   N769    1.378   .     A
C733   C968    1.435   .     S
C734   N770    1.388   .     A
C734   C1201   1.435   1_545 S
C735   N769    1.382   .     A
C735   C966    1.433   .     S
C736   H768    1.081   .     S
C736   C861    1.372   1_455 S
N769   Zn779   2.056   .     S
N770   Zn780   2.056   .     S
O771   Zn779   1.985   .     S
O772   Zn780   1.985   .     S
O773   Zn779   1.994   .     S
O774   Zn780   1.994   .     S
O775   Zn779   1.977   .     S
O776   Zn780   1.977   .     S
O777   Zn779   1.984   .     S
O778   Zn780   1.984   .     S
C781   C799    1.413   .     S
C781   O852    1.298   .     A
C781   O849    1.301   .     A
C782   C798    1.394   .     A
C782   H816    1.076   .     S
C782   C862    1.370   .     S
C783   C798    1.396   .     A
C783   H817    1.084   .     S
C783   C892    1.372   .     S
C784   C799    1.393   .     A
C784   H818    1.083   .     S
C785   C796    1.398   .     A
C785   C789    1.382   .     A
C785   H815    1.084   .     S
C786   C797    1.397   .     A
C786   H826    1.084   .     S
C786   C790    1.382   .     A
C787   C791    1.381   .     A
C787   C797    1.399   .     A
C787   H837    1.083   .     S
C788   C793    1.382   .     A
C788   H841    1.083   .     S
C788   C796    1.402   .     A
C789   H842    1.082   .     S
C789   C794    1.400   .     A
C790   H843    1.080   .     S
C790   C795    1.403   .     A
C791   C795    1.399   .     A
C791   H844    1.077   .     S
C792   O851    1.302   .     A
C792   O850    1.298   .     A
C792   C798    1.415   .     S
C793   C794    1.396   .     A
C793   H845    1.082   .     S
C794   C803    1.438   .     S
C795   C809    1.451   .     S
C797   C94     1.447   1_556 S
C799   C814    1.395   .     A
C800   C810    1.523   .     S
C800   H823    1.106   .     S
C800   H822    1.093   .     S
C800   C801    1.532   .     S
C801   H819    1.110   .     S
C801   H821    1.111   .     S
C801   H820    1.108   .     S
C802   H828    1.105   .     S
C802   C811    1.516   .     S
C802   H829    1.092   .     S
C802   C804    1.526   .     S
C803   O856    1.306   .     A
C803   O853    1.305   .     A
C804   H825    1.109   .     S
C804   H824    1.110   .     S
C804   H827    1.110   .     S
C805   C812    1.515   .     S
C805   H834    1.110   .     S
C805   C806    1.527   .     S
C805   H833    1.099   .     S
C806   H830    1.108   .     S
C806   H832    1.110   .     S
C806   H831    1.100   .     S
C807   C813    1.519   .     S
C807   H840    1.108   .     S
C807   H839    1.098   .     S
C807   C808    1.529   .     S
C808   H836    1.104   .     S
C808   H835    1.105   .     S
C808   H838    1.111   .     S
C809   O854    1.307   .     A
C809   O855    1.310   .     A
C810   N848    1.387   .     A
C810   C1281   1.433   1_545 S
C811   N847    1.378   .     A
C811   C1046   1.435   .     S
C812   N848    1.388   .     A
C812   C1279   1.435   1_545 S
C813   N847    1.382   .     A
C813   C1044   1.433   .     S
C814   H846    1.081   .     S
N847   Zn857   2.056   .     S
N848   Zn858   2.056   .     S
O849   Zn857   1.985   .     S
O850   Zn858   1.985   .     S
O851   Zn857   1.994   .     S
O852   Zn858   1.994   .     S
O853   Zn857   1.977   .     S
O854   Zn858   1.977   .     S
O855   Zn857   1.984   .     S
O856   Zn858   1.984   .     S
C859   C877    1.413   .     S
C859   O930    1.298   .     A
C859   O927    1.301   .     A
C860   C876    1.394   .     A
C860   H894    1.076   .     S
C860   C706    1.370   1_655 S
C861   C876    1.396   .     A
C861   H895    1.084   .     S
C861   C736    1.372   1_655 S
C862   C877    1.393   .     A
C862   H896    1.083   .     S
C863   C874    1.398   .     A
C863   C867    1.382   .     A
C863   H893    1.084   .     S
C864   C875    1.397   .     A
C864   H904    1.084   .     S
C864   C868    1.382   .     A
C865   C869    1.381   .     A
C865   C875    1.399   .     A
C865   H915    1.083   .     S
C866   C871    1.382   .     A
C866   H919    1.083   .     S
C866   C874    1.402   .     A
C867   H920    1.082   .     S
C867   C872    1.400   .     A
C868   H921    1.080   .     S
C868   C873    1.403   .     A
C869   C873    1.399   .     A
C869   H922    1.077   .     S
C870   O929    1.302   .     A
C870   O928    1.298   .     A
C870   C876    1.415   .     S
C871   C872    1.396   .     A
C871   H923    1.082   .     S
C872   C881    1.438   .     S
C873   C887    1.451   .     S
C875   C172    1.447   1_556 S
C877   C892    1.395   .     A
C878   C888    1.523   .     S
C878   H901    1.106   .     S
C878   H900    1.093   .     S
C878   C879    1.532   .     S
C879   H897    1.110   .     S
C879   H899    1.111   .     S
C879   H898    1.108   .     S
C880   H906    1.105   .     S
C880   C889    1.516   .     S
C880   H907    1.092   .     S
C880   C882    1.526   .     S
C881   O934    1.306   .     A
C881   O931    1.305   .     A
C882   H903    1.109   .     S
C882   H902    1.110   .     S
C882   H905    1.110   .     S
C883   C890    1.515   .     S
C883   H912    1.110   .     S
C883   C884    1.527   .     S
C883   H911    1.099   .     S
C884   H908    1.108   .     S
C884   H910    1.110   .     S
C884   H909    1.100   .     S
C885   C891    1.519   .     S
C885   H918    1.108   .     S
C885   H917    1.098   .     S
C885   C886    1.529   .     S
C886   H914    1.104   .     S
C886   H913    1.105   .     S
C886   H916    1.111   .     S
C887   O932    1.307   .     A
C887   O933    1.310   .     A
C888   N926    1.387   .     A
C888   C1359   1.433   1_545 S
C889   N925    1.378   .     A
C889   C1124   1.435   .     S
C890   N926    1.388   .     A
C890   C1357   1.435   1_545 S
C891   N925    1.382   .     A
C891   C1122   1.433   .     S
C892   H924    1.081   .     S
N925   Zn935   2.056   .     S
N926   Zn936   2.056   .     S
O927   Zn935   1.985   .     S
O928   Zn936   1.985   .     S
O929   Zn935   1.994   .     S
O930   Zn936   1.994   .     S
O931   Zn935   1.977   .     S
O932   Zn936   1.977   .     S
O933   Zn935   1.984   .     S
O934   Zn936   1.984   .     S
C937   C955    1.413   .     S
C937   O1008   1.298   .     A
C937   O1005   1.301   .     A
C938   C954    1.394   .     A
C938   H972    1.076   .     S
C938   C1018   1.370   .     S
C939   C954    1.396   .     A
C939   H973    1.084   .     S
C939   C1048   1.372   .     S
C940   C955    1.393   .     A
C940   H974    1.083   .     S
C940   C1094   1.370   1_455 S
C941   C952    1.398   .     A
C941   C945    1.382   .     A
C941   H971    1.084   .     S
C942   C953    1.397   .     A
C942   H982    1.084   .     S
C942   C946    1.382   .     A
C943   C947    1.381   .     A
C943   C953    1.399   .     A
C943   H993    1.083   .     S
C944   C949    1.382   .     A
C944   H997    1.083   .     S
C944   C952    1.402   .     A
C945   H998    1.082   .     S
C945   C950    1.400   .     A
C946   H999    1.080   .     S
C946   C951    1.403   .     A
C947   C951    1.399   .     A
C947   H1000   1.077   .     S
C948   O1007   1.302   .     A
C948   O1006   1.298   .     A
C948   C954    1.415   .     S
C949   C950    1.396   .     A
C949   H1001   1.082   .     S
C950   C959    1.438   .     S
C951   C965    1.451   .     S
C953   C250    1.447   1_556 S
C955   C970    1.395   .     A
C956   C966    1.523   .     S
C956   H979    1.106   .     S
C956   H978    1.093   .     S
C956   C957    1.532   .     S
C957   H975    1.110   .     S
C957   H977    1.111   .     S
C957   H976    1.108   .     S
C958   H984    1.105   .     S
C958   C967    1.516   .     S
C958   H985    1.092   .     S
C958   C960    1.526   .     S
C959   O1012   1.306   .     A
C959   O1009   1.305   .     A
C960   H981    1.109   .     S
C960   H980    1.110   .     S
C960   H983    1.110   .     S
C961   C968    1.515   .     S
C961   H990    1.110   .     S
C961   C962    1.527   .     S
C961   H989    1.099   .     S
C962   H986    1.108   .     S
C962   H988    1.110   .     S
C962   H987    1.100   .     S
C963   C969    1.519   .     S
C963   H996    1.108   .     S
C963   H995    1.098   .     S
C963   C964    1.529   .     S
C964   H992    1.104   .     S
C964   H991    1.105   .     S
C964   H994    1.111   .     S
C965   O1010   1.307   .     A
C965   O1011   1.310   .     A
C966   N1004   1.387   .     A
C967   N1003   1.378   .     A
C967   C1202   1.435   .     S
C968   N1004   1.388   .     A
C969   N1003   1.382   .     A
C969   C1200   1.433   .     S
C970   H1002   1.081   .     S
C970   C1095   1.372   1_455 S
N1003  Zn1013  2.056   .     S
N1004  Zn1014  2.056   .     S
O1005  Zn1013  1.985   .     S
O1006  Zn1014  1.985   .     S
O1007  Zn1013  1.994   .     S
O1008  Zn1014  1.994   .     S
O1009  Zn1013  1.977   .     S
O1010  Zn1014  1.977   .     S
O1011  Zn1013  1.984   .     S
O1012  Zn1014  1.984   .     S
C1015  C1033   1.413   .     S
C1015  O1086   1.298   .     A
C1015  O1083   1.301   .     A
C1016  C1032   1.394   .     A
C1016  H1050   1.076   .     S
C1016  C1096   1.370   .     S
C1017  C1032   1.396   .     A
C1017  H1051   1.084   .     S
C1017  C1126   1.372   .     S
C1018  C1033   1.393   .     A
C1018  H1052   1.083   .     S
C1019  C1030   1.398   .     A
C1019  C1023   1.382   .     A
C1019  H1049   1.084   .     S
C1020  C1031   1.397   .     A
C1020  H1060   1.084   .     S
C1020  C1024   1.382   .     A
C1021  C1025   1.381   .     A
C1021  C1031   1.399   .     A
C1021  H1071   1.083   .     S
C1022  C1027   1.382   .     A
C1022  H1075   1.083   .     S
C1022  C1030   1.402   .     A
C1023  H1076   1.082   .     S
C1023  C1028   1.400   .     A
C1024  H1077   1.080   .     S
C1024  C1029   1.403   .     A
C1025  C1029   1.399   .     A
C1025  H1078   1.077   .     S
C1026  O1085   1.302   .     A
C1026  O1084   1.298   .     A
C1026  C1032   1.415   .     S
C1027  C1028   1.396   .     A
C1027  H1079   1.082   .     S
C1028  C1037   1.438   .     S
C1029  C1043   1.451   .     S
C1031  C328    1.447   1_556 S
C1033  C1048   1.395   .     A
C1034  C1044   1.523   .     S
C1034  H1057   1.106   .     S
C1034  H1056   1.093   .     S
C1034  C1035   1.532   .     S
C1035  H1053   1.110   .     S
C1035  H1055   1.111   .     S
C1035  H1054   1.108   .     S
C1036  H1062   1.105   .     S
C1036  C1045   1.516   .     S
C1036  H1063   1.092   .     S
C1036  C1038   1.526   .     S
C1037  O1090   1.306   .     A
C1037  O1087   1.305   .     A
C1038  H1059   1.109   .     S
C1038  H1058   1.110   .     S
C1038  H1061   1.110   .     S
C1039  C1046   1.515   .     S
C1039  H1068   1.110   .     S
C1039  C1040   1.527   .     S
C1039  H1067   1.099   .     S
C1040  H1064   1.108   .     S
C1040  H1066   1.110   .     S
C1040  H1065   1.100   .     S
C1041  C1047   1.519   .     S
C1041  H1074   1.108   .     S
C1041  H1073   1.098   .     S
C1041  C1042   1.529   .     S
C1042  H1070   1.104   .     S
C1042  H1069   1.105   .     S
C1042  H1072   1.111   .     S
C1043  O1088   1.307   .     A
C1043  O1089   1.310   .     A
C1044  N1082   1.387   .     A
C1045  N1081   1.378   .     A
C1045  C1280   1.435   .     S
C1046  N1082   1.388   .     A
C1047  N1081   1.382   .     A
C1047  C1278   1.433   .     S
C1048  H1080   1.081   .     S
N1081  Zn1091  2.056   .     S
N1082  Zn1092  2.056   .     S
O1083  Zn1091  1.985   .     S
O1084  Zn1092  1.985   .     S
O1085  Zn1091  1.994   .     S
O1086  Zn1092  1.994   .     S
O1087  Zn1091  1.977   .     S
O1088  Zn1092  1.977   .     S
O1089  Zn1091  1.984   .     S
O1090  Zn1092  1.984   .     S
C1093  C1111   1.413   .     S
C1093  O1164   1.298   .     A
C1093  O1161   1.301   .     A
C1094  C1110   1.394   .     A
C1094  H1128   1.076   .     S
C1094  C940    1.370   1_655 S
C1095  C1110   1.396   .     A
C1095  H1129   1.084   .     S
C1095  C970    1.372   1_655 S
C1096  C1111   1.393   .     A
C1096  H1130   1.083   .     S
C1097  C1108   1.398   .     A
C1097  C1101   1.382   .     A
C1097  H1127   1.084   .     S
C1098  C1109   1.397   .     A
C1098  H1138   1.084   .     S
C1098  C1102   1.382   .     A
C1099  C1103   1.381   .     A
C1099  C1109   1.399   .     A
C1099  H1149   1.083   .     S
C1100  C1105   1.382   .     A
C1100  H1153   1.083   .     S
C1100  C1108   1.402   .     A
C1101  H1154   1.082   .     S
C1101  C1106   1.400   .     A
C1102  H1155   1.080   .     S
C1102  C1107   1.403   .     A
C1103  C1107   1.399   .     A
C1103  H1156   1.077   .     S
C1104  O1163   1.302   .     A
C1104  O1162   1.298   .     A
C1104  C1110   1.415   .     S
C1105  C1106   1.396   .     A
C1105  H1157   1.082   .     S
C1106  C1115   1.438   .     S
C1107  C1121   1.451   .     S
C1109  C406    1.447   1_556 S
C1111  C1126   1.395   .     A
C1112  C1122   1.523   .     S
C1112  H1135   1.106   .     S
C1112  H1134   1.093   .     S
C1112  C1113   1.532   .     S
C1113  H1131   1.110   .     S
C1113  H1133   1.111   .     S
C1113  H1132   1.108   .     S
C1114  H1140   1.105   .     S
C1114  C1123   1.516   .     S
C1114  H1141   1.092   .     S
C1114  C1116   1.526   .     S
C1115  O1168   1.306   .     A
C1115  O1165   1.305   .     A
C1116  H1137   1.109   .     S
C1116  H1136   1.110   .     S
C1116  H1139   1.110   .     S
C1117  C1124   1.515   .     S
C1117  H1146   1.110   .     S
C1117  C1118   1.527   .     S
C1117  H1145   1.099   .     S
C1118  H1142   1.108   .     S
C1118  H1144   1.110   .     S
C1118  H1143   1.100   .     S
C1119  C1125   1.519   .     S
C1119  H1152   1.108   .     S
C1119  H1151   1.098   .     S
C1119  C1120   1.529   .     S
C1120  H1148   1.104   .     S
C1120  H1147   1.105   .     S
C1120  H1150   1.111   .     S
C1121  O1166   1.307   .     A
C1121  O1167   1.310   .     A
C1122  N1160   1.387   .     A
C1123  N1159   1.378   .     A
C1123  C1358   1.435   .     S
C1124  N1160   1.388   .     A
C1125  N1159   1.382   .     A
C1125  C1356   1.433   .     S
C1126  H1158   1.081   .     S
N1159  Zn1169  2.056   .     S
N1160  Zn1170  2.056   .     S
O1161  Zn1169  1.985   .     S
O1162  Zn1170  1.985   .     S
O1163  Zn1169  1.994   .     S
O1164  Zn1170  1.994   .     S
O1165  Zn1169  1.977   .     S
O1166  Zn1170  1.977   .     S
O1167  Zn1169  1.984   .     S
O1168  Zn1170  1.984   .     S
C1171  C1189   1.413   .     S
C1171  O1242   1.298   .     A
C1171  O1239   1.301   .     A
C1172  C1188   1.394   .     A
C1172  H1206   1.076   .     S
C1172  C1252   1.370   .     S
C1173  C1188   1.396   .     A
C1173  H1207   1.084   .     S
C1173  C1282   1.372   .     S
C1174  C1189   1.393   .     A
C1174  H1208   1.083   .     S
C1174  C1328   1.370   1_455 S
C1175  C1186   1.398   .     A
C1175  C1179   1.382   .     A
C1175  H1205   1.084   .     S
C1176  C1187   1.397   .     A
C1176  H1216   1.084   .     S
C1176  C1180   1.382   .     A
C1177  C1181   1.381   .     A
C1177  C1187   1.399   .     A
C1177  H1227   1.083   .     S
C1178  C1183   1.382   .     A
C1178  H1231   1.083   .     S
C1178  C1186   1.402   .     A
C1179  H1232   1.082   .     S
C1179  C1184   1.400   .     A
C1180  H1233   1.080   .     S
C1180  C1185   1.403   .     A
C1181  C1185   1.399   .     A
C1181  H1234   1.077   .     S
C1182  O1241   1.302   .     A
C1182  O1240   1.298   .     A
C1182  C1188   1.415   .     S
C1183  C1184   1.396   .     A
C1183  H1235   1.082   .     S
C1184  C1193   1.438   .     S
C1185  C1199   1.451   .     S
C1187  C484    1.447   1_556 S
C1189  C1204   1.395   .     A
C1190  C1200   1.523   .     S
C1190  H1213   1.106   .     S
C1190  H1212   1.093   .     S
C1190  C1191   1.532   .     S
C1191  H1209   1.110   .     S
C1191  H1211   1.111   .     S
C1191  H1210   1.108   .     S
C1192  H1218   1.105   .     S
C1192  C1201   1.516   .     S
C1192  H1219   1.092   .     S
C1192  C1194   1.526   .     S
C1193  O1246   1.306   .     A
C1193  O1243   1.305   .     A
C1194  H1215   1.109   .     S
C1194  H1214   1.110   .     S
C1194  H1217   1.110   .     S
C1195  C1202   1.515   .     S
C1195  H1224   1.110   .     S
C1195  C1196   1.527   .     S
C1195  H1223   1.099   .     S
C1196  H1220   1.108   .     S
C1196  H1222   1.110   .     S
C1196  H1221   1.100   .     S
C1197  C1203   1.519   .     S
C1197  H1230   1.108   .     S
C1197  H1229   1.098   .     S
C1197  C1198   1.529   .     S
C1198  H1226   1.104   .     S
C1198  H1225   1.105   .     S
C1198  H1228   1.111   .     S
C1199  O1244   1.307   .     A
C1199  O1245   1.310   .     A
C1200  N1238   1.387   .     A
C1201  N1237   1.378   .     A
C1201  C734    1.435   1_565 S
C1202  N1238   1.388   .     A
C1203  N1237   1.382   .     A
C1203  C732    1.433   1_565 S
C1204  H1236   1.081   .     S
C1204  C1329   1.372   1_455 S
N1237  Zn1247  2.056   .     S
N1238  Zn1248  2.056   .     S
O1239  Zn1247  1.985   .     S
O1240  Zn1248  1.985   .     S
O1241  Zn1247  1.994   .     S
O1242  Zn1248  1.994   .     S
O1243  Zn1247  1.977   .     S
O1244  Zn1248  1.977   .     S
O1245  Zn1247  1.984   .     S
O1246  Zn1248  1.984   .     S
C1249  C1267   1.413   .     S
C1249  O1320   1.298   .     A
C1249  O1317   1.301   .     A
C1250  C1266   1.394   .     A
C1250  H1284   1.076   .     S
C1250  C1330   1.370   .     S
C1251  C1266   1.396   .     A
C1251  H1285   1.084   .     S
C1251  C1360   1.372   .     S
C1252  C1267   1.393   .     A
C1252  H1286   1.083   .     S
C1253  C1264   1.398   .     A
C1253  C1257   1.382   .     A
C1253  H1283   1.084   .     S
C1254  C1265   1.397   .     A
C1254  H1294   1.084   .     S
C1254  C1258   1.382   .     A
C1255  C1259   1.381   .     A
C1255  C1265   1.399   .     A
C1255  H1305   1.083   .     S
C1256  C1261   1.382   .     A
C1256  H1309   1.083   .     S
C1256  C1264   1.402   .     A
C1257  H1310   1.082   .     S
C1257  C1262   1.400   .     A
C1258  H1311   1.080   .     S
C1258  C1263   1.403   .     A
C1259  C1263   1.399   .     A
C1259  H1312   1.077   .     S
C1260  O1319   1.302   .     A
C1260  O1318   1.298   .     A
C1260  C1266   1.415   .     S
C1261  C1262   1.396   .     A
C1261  H1313   1.082   .     S
C1262  C1271   1.438   .     S
C1263  C1277   1.451   .     S
C1265  C562    1.447   1_556 S
C1267  C1282   1.395   .     A
C1268  C1278   1.523   .     S
C1268  H1291   1.106   .     S
C1268  H1290   1.093   .     S
C1268  C1269   1.532   .     S
C1269  H1287   1.110   .     S
C1269  H1289   1.111   .     S
C1269  H1288   1.108   .     S
C1270  H1296   1.105   .     S
C1270  C1279   1.516   .     S
C1270  H1297   1.092   .     S
C1270  C1272   1.526   .     S
C1271  O1324   1.306   .     A
C1271  O1321   1.305   .     A
C1272  H1293   1.109   .     S
C1272  H1292   1.110   .     S
C1272  H1295   1.110   .     S
C1273  C1280   1.515   .     S
C1273  H1302   1.110   .     S
C1273  C1274   1.527   .     S
C1273  H1301   1.099   .     S
C1274  H1298   1.108   .     S
C1274  H1300   1.110   .     S
C1274  H1299   1.100   .     S
C1275  C1281   1.519   .     S
C1275  H1308   1.108   .     S
C1275  H1307   1.098   .     S
C1275  C1276   1.529   .     S
C1276  H1304   1.104   .     S
C1276  H1303   1.105   .     S
C1276  H1306   1.111   .     S
C1277  O1322   1.307   .     A
C1277  O1323   1.310   .     A
C1278  N1316   1.387   .     A
C1279  N1315   1.378   .     A
C1279  C812    1.435   1_565 S
C1280  N1316   1.388   .     A
C1281  N1315   1.382   .     A
C1281  C810    1.433   1_565 S
C1282  H1314   1.081   .     S
N1315  Zn1325  2.056   .     S
N1316  Zn1326  2.056   .     S
O1317  Zn1325  1.985   .     S
O1318  Zn1326  1.985   .     S
O1319  Zn1325  1.994   .     S
O1320  Zn1326  1.994   .     S
O1321  Zn1325  1.977   .     S
O1322  Zn1326  1.977   .     S
O1323  Zn1325  1.984   .     S
O1324  Zn1326  1.984   .     S
C1327  C1345   1.413   .     S
C1327  O1398   1.298   .     A
C1327  O1395   1.301   .     A
C1328  C1344   1.394   .     A
C1328  H1362   1.076   .     S
C1328  C1174   1.370   1_655 S
C1329  C1344   1.396   .     A
C1329  H1363   1.084   .     S
C1329  C1204   1.372   1_655 S
C1330  C1345   1.393   .     A
C1330  H1364   1.083   .     S
C1331  C1342   1.398   .     A
C1331  C1335   1.382   .     A
C1331  H1361   1.084   .     S
C1332  C1343   1.397   .     A
C1332  H1372   1.084   .     S
C1332  C1336   1.382   .     A
C1333  C1337   1.381   .     A
C1333  C1343   1.399   .     A
C1333  H1383   1.083   .     S
C1334  C1339   1.382   .     A
C1334  H1387   1.083   .     S
C1334  C1342   1.402   .     A
C1335  H1388   1.082   .     S
C1335  C1340   1.400   .     A
C1336  H1389   1.080   .     S
C1336  C1341   1.403   .     A
C1337  C1341   1.399   .     A
C1337  H1390   1.077   .     S
C1338  O1397   1.302   .     A
C1338  O1396   1.298   .     A
C1338  C1344   1.415   .     S
C1339  C1340   1.396   .     A
C1339  H1391   1.082   .     S
C1340  C1349   1.438   .     S
C1341  C1355   1.451   .     S
C1343  C640    1.447   1_556 S
C1345  C1360   1.395   .     A
C1346  C1356   1.523   .     S
C1346  H1369   1.106   .     S
C1346  H1368   1.093   .     S
C1346  C1347   1.532   .     S
C1347  H1365   1.110   .     S
C1347  H1367   1.111   .     S
C1347  H1366   1.108   .     S
C1348  H1374   1.105   .     S
C1348  C1357   1.516   .     S
C1348  H1375   1.092   .     S
C1348  C1350   1.526   .     S
C1349  O1402   1.306   .     A
C1349  O1399   1.305   .     A
C1350  H1371   1.109   .     S
C1350  H1370   1.110   .     S
C1350  H1373   1.110   .     S
C1351  C1358   1.515   .     S
C1351  H1380   1.110   .     S
C1351  C1352   1.527   .     S
C1351  H1379   1.099   .     S
C1352  H1376   1.108   .     S
C1352  H1378   1.110   .     S
C1352  H1377   1.100   .     S
C1353  C1359   1.519   .     S
C1353  H1386   1.108   .     S
C1353  H1385   1.098   .     S
C1353  C1354   1.529   .     S
C1354  H1382   1.104   .     S
C1354  H1381   1.105   .     S
C1354  H1384   1.111   .     S
C1355  O1400   1.307   .     A
C1355  O1401   1.310   .     A
C1356  N1394   1.387   .     A
C1357  N1393   1.378   .     A
C1357  C890    1.435   1_565 S
C1358  N1394   1.388   .     A
C1359  N1393   1.382   .     A
C1359  C888    1.433   1_565 S
C1360  H1392   1.081   .     S
N1393  Zn1403  2.056   .     S
N1394  Zn1404  2.056   .     S
O1395  Zn1403  1.985   .     S
O1396  Zn1404  1.985   .     S
O1397  Zn1403  1.994   .     S
O1398  Zn1404  1.994   .     S
O1399  Zn1403  1.977   .     S
O1400  Zn1404  1.977   .     S
O1401  Zn1403  1.984   .     S
O1402  Zn1404  1.984   .     S
