data_str_m1_o10_o16_pcu_sym.179
_audit_creation_date              2020-01-03
_audit_creation_method            'Materials Studio'
_symmetry_space_group_name_H-M    'P1'
_symmetry_Int_Tables_number       1
_symmetry_cell_setting            triclinic
loop_
_symmetry_equiv_pos_as_xyz
  x,y,z
_cell_length_a                    32.5932
_cell_length_b                    32.7566
_cell_length_c                    30.8238
_cell_angle_alpha                 97.1224
_cell_angle_beta                  75.0387
_cell_angle_gamma                 99.0453
loop_
_atom_site_label
_atom_site_type_symbol
_atom_site_fract_x
_atom_site_fract_y
_atom_site_fract_z
_atom_site_U_iso_or_equiv
_atom_site_adp_type
_atom_site_occupancy
C1     C     0.05286   0.15956   0.25964   0.00000  Uiso   1.00
C2     C     0.18151   0.16593   0.05512   0.00000  Uiso   1.00
C3     C     0.19208   0.09619   0.06356   0.00000  Uiso   1.00
C4     C     0.28071   0.17381   0.24013   0.00000  Uiso   1.00
C5     C     0.14219   0.19493   0.42052   0.00000  Uiso   1.00
C6     C     0.32645   0.17707   0.23689   0.00000  Uiso   1.00
C7     C     0.00774   0.15622   0.26335   0.00000  Uiso   1.00
C8     C     0.18196   0.32285   0.23863   0.00000  Uiso   1.00
C9     C     0.15030   0.01191   0.26199   0.00000  Uiso   1.00
C10    C     0.15597   0.05598   0.25984   0.00000  Uiso   1.00
C11    C     0.17641   0.27782   0.24003   0.00000  Uiso   1.00
C12    C     0.12913   0.24468   0.48660   0.00000  Uiso   1.00
C13    C     0.18504   0.14773   0.12911   0.00000  Uiso   1.00
C14    C     0.14902   0.18527   0.37100   0.00000  Uiso   1.00
C15    C     0.18304   0.08251   0.02213   0.00000  Uiso   1.00
C16    C     0.19034   0.13763   0.08065   0.00000  Uiso   1.00
C17    C     0.13572   0.23593   0.43999   0.00000  Uiso   1.00
C18    C     0.22385   0.00943   0.21204   0.00000  Uiso   1.00
C19    C     0.10513   0.32730   0.28068   0.00000  Uiso   1.00
C20    C     0.13641   0.27065   0.41298   0.00000  Uiso   1.00
C21    C     0.11703   0.10185   0.40159   0.00000  Uiso   1.00
C22    C     0.13597   0.21613   0.01288   0.00000  Uiso   1.00
C23    C     0.15001   0.17794   0.49285   0.00000  Uiso   1.00
C24    C     0.14467   0.16446   0.44881   0.00000  Uiso   1.00
C25    C     0.16645   0.15167   0.01591   0.00000  Uiso   1.00
C26    C     0.16886   0.10955   0.49858   0.00000  Uiso   1.00
C27    C     0.15496   0.09450   0.45948   0.00000  Uiso   1.00
C28    C     0.14130   0.12112   0.43538   0.00000  Uiso   1.00
F29    F     0.20102   0.06850   0.08809   0.00000  Uiso   1.00
F30    F     0.31490   0.13037   0.29322   0.00000  Uiso   1.00
F31    F     0.15256   0.05326   0.44586   0.00000  Uiso   1.00
F32    F     0.18578   0.04210   0.00669   0.00000  Uiso   1.00
F33    F     0.18884   0.20689   0.06863   0.00000  Uiso   1.00
F34    F     0.12432   0.22452   0.05828   0.00000  Uiso   1.00
F35    F     0.11831   0.28213   0.00666   0.00000  Uiso   1.00
F36    F     0.02084   0.20168   0.20668   0.00000  Uiso   1.00
H37    H     0.27415   0.05453   0.20937   0.00000  Uiso   1.00
H38    H     0.05227   0.32896   0.33189   0.00000  Uiso   1.00
H39    H     0.10757   0.31831   0.40476   0.00000  Uiso   1.00
H40    H     0.06703   0.10244   0.37448   0.00000  Uiso   1.00
O41    O     0.16667   0.16667   0.25000   0.00000  Uiso   1.00
O42    O     0.15451   0.12637   0.15458   0.00000  Uiso   1.00
O43    O     0.12940   0.20391   0.34968   0.00000  Uiso   1.00
O44    O     0.20824   0.17759   0.14606   0.00000  Uiso   1.00
O45    O     0.17451   0.15880   0.34968   0.00000  Uiso   1.00
O46    O     0.23910   0.32803   0.17389   0.00000  Uiso   1.00
O47    O     0.24625   0.04414   0.23082   0.00000  Uiso   1.00
O48    O     0.08671   0.30089   0.25808   0.00000  Uiso   1.00
O49    O     0.08293   0.00956   0.32303   0.00000  Uiso   1.00
O50    O     0.16623   0.27801   0.38034   0.00000  Uiso   1.00
O51    O     0.10358   0.29574   0.42577   0.00000  Uiso   1.00
O52    O     0.17930   0.08019   0.28213   0.00000  Uiso   1.00
O53    O     0.12831   0.07142   0.37676   0.00000  Uiso   1.00
O54    O     0.08068   0.11810   0.39880   0.00000  Uiso   1.00
O55    O     0.14632   0.26085   0.27013   0.00000  Uiso   1.00
O56    O     0.07412   0.13291   0.23413   0.00000  Uiso   1.00
O57    O     0.26693   0.19272   0.21360   0.00000  Uiso   1.00
O58    O     0.07071   0.18878   0.28213   0.00000  Uiso   1.00
O59    O     0.25491   0.15226   0.27013   0.00000  Uiso   1.00
O60    O     0.13760   0.06944   0.23413   0.00000  Uiso   1.00
O61    O     0.20345   0.25620   0.21360   0.00000  Uiso   1.00
Zn62   Zn    0.19338   0.13994   0.28734   0.00000  Uiso   1.00
Zn63   Zn    0.13379   0.12458   0.21875   0.00000  Uiso   1.00
Zn64   Zn    0.21056   0.19775   0.20657   0.00000  Uiso   1.00
Zn65   Zn    0.12893   0.20439   0.28733   0.00000  Uiso   1.00
C66    C     0.38619   0.15956   0.25964   0.00000  Uiso   1.00
C67    C     0.51485   0.16593   0.05512   0.00000  Uiso   1.00
C68    C     0.52541   0.09619   0.06356   0.00000  Uiso   1.00
C69    C     0.61404   0.17381   0.24013   0.00000  Uiso   1.00
C70    C     0.47553   0.19493   0.42052   0.00000  Uiso   1.00
C71    C     0.65979   0.17707   0.23689   0.00000  Uiso   1.00
C72    C     0.34108   0.15622   0.26335   0.00000  Uiso   1.00
C73    C     0.51530   0.32285   0.23863   0.00000  Uiso   1.00
C74    C     0.48363   0.01191   0.26199   0.00000  Uiso   1.00
C75    C     0.48930   0.05598   0.25984   0.00000  Uiso   1.00
C76    C     0.50974   0.27782   0.24003   0.00000  Uiso   1.00
C77    C     0.46246   0.24468   0.48660   0.00000  Uiso   1.00
C78    C     0.51837   0.14773   0.12911   0.00000  Uiso   1.00
C79    C     0.48235   0.18527   0.37100   0.00000  Uiso   1.00
C80    C     0.51637   0.08251   0.02213   0.00000  Uiso   1.00
C81    C     0.52368   0.13763   0.08065   0.00000  Uiso   1.00
C82    C     0.46905   0.23593   0.43999   0.00000  Uiso   1.00
C83    C     0.55718   0.00943   0.21204   0.00000  Uiso   1.00
C84    C     0.43847   0.32730   0.28068   0.00000  Uiso   1.00
C85    C     0.46975   0.27065   0.41298   0.00000  Uiso   1.00
C86    C     0.45036   0.10185   0.40159   0.00000  Uiso   1.00
C87    C     0.46930   0.21613   0.01288   0.00000  Uiso   1.00
C88    C     0.48334   0.17794   0.49285   0.00000  Uiso   1.00
C89    C     0.47801   0.16446   0.44881   0.00000  Uiso   1.00
C90    C     0.49978   0.15167   0.01591   0.00000  Uiso   1.00
C91    C     0.50220   0.10955   0.49858   0.00000  Uiso   1.00
C92    C     0.48829   0.09450   0.45948   0.00000  Uiso   1.00
C93    C     0.47464   0.12112   0.43538   0.00000  Uiso   1.00
F94    F     0.53435   0.06850   0.08809   0.00000  Uiso   1.00
F95    F     0.64823   0.13037   0.29322   0.00000  Uiso   1.00
F96    F     0.48590   0.05326   0.44586   0.00000  Uiso   1.00
F97    F     0.51911   0.04210   0.00669   0.00000  Uiso   1.00
F98    F     0.52218   0.20689   0.06863   0.00000  Uiso   1.00
F99    F     0.45765   0.22452   0.05828   0.00000  Uiso   1.00
F100   F     0.45164   0.28213   0.00666   0.00000  Uiso   1.00
F101   F     0.35417   0.20168   0.20668   0.00000  Uiso   1.00
H102   H     0.60749   0.05453   0.20937   0.00000  Uiso   1.00
H103   H     0.38561   0.32896   0.33189   0.00000  Uiso   1.00
H104   H     0.44091   0.31831   0.40476   0.00000  Uiso   1.00
H105   H     0.40036   0.10244   0.37448   0.00000  Uiso   1.00
O106   O     0.50000   0.16667   0.25000   0.00000  Uiso   1.00
O107   O     0.48784   0.12637   0.15458   0.00000  Uiso   1.00
O108   O     0.46274   0.20391   0.34968   0.00000  Uiso   1.00
O109   O     0.54157   0.17759   0.14606   0.00000  Uiso   1.00
O110   O     0.50785   0.15880   0.34968   0.00000  Uiso   1.00
O111   O     0.57243   0.32803   0.17389   0.00000  Uiso   1.00
O112   O     0.57959   0.04414   0.23082   0.00000  Uiso   1.00
O113   O     0.42005   0.30089   0.25808   0.00000  Uiso   1.00
O114   O     0.41626   0.00956   0.32303   0.00000  Uiso   1.00
O115   O     0.49956   0.27801   0.38034   0.00000  Uiso   1.00
O116   O     0.43691   0.29574   0.42577   0.00000  Uiso   1.00
O117   O     0.51264   0.08019   0.28213   0.00000  Uiso   1.00
O118   O     0.46164   0.07142   0.37676   0.00000  Uiso   1.00
O119   O     0.41401   0.11810   0.39880   0.00000  Uiso   1.00
O120   O     0.47965   0.26085   0.27013   0.00000  Uiso   1.00
O121   O     0.40745   0.13291   0.23413   0.00000  Uiso   1.00
O122   O     0.60026   0.19272   0.21360   0.00000  Uiso   1.00
O123   O     0.40405   0.18878   0.28213   0.00000  Uiso   1.00
O124   O     0.58824   0.15226   0.27013   0.00000  Uiso   1.00
O125   O     0.47093   0.06944   0.23413   0.00000  Uiso   1.00
O126   O     0.53678   0.25620   0.21360   0.00000  Uiso   1.00
Zn127  Zn    0.52672   0.13994   0.28734   0.00000  Uiso   1.00
Zn128  Zn    0.46713   0.12458   0.21875   0.00000  Uiso   1.00
Zn129  Zn    0.54389   0.19775   0.20657   0.00000  Uiso   1.00
Zn130  Zn    0.46226   0.20439   0.28733   0.00000  Uiso   1.00
C131   C     0.71953   0.15956   0.25964   0.00000  Uiso   1.00
C132   C     0.84818   0.16593   0.05512   0.00000  Uiso   1.00
C133   C     0.85875   0.09619   0.06356   0.00000  Uiso   1.00
C134   C     0.94738   0.17381   0.24013   0.00000  Uiso   1.00
C135   C     0.80886   0.19493   0.42052   0.00000  Uiso   1.00
C136   C     0.99312   0.17707   0.23689   0.00000  Uiso   1.00
C137   C     0.67441   0.15622   0.26335   0.00000  Uiso   1.00
C138   C     0.84863   0.32285   0.23863   0.00000  Uiso   1.00
C139   C     0.81697   0.01191   0.26199   0.00000  Uiso   1.00
C140   C     0.82264   0.05598   0.25984   0.00000  Uiso   1.00
C141   C     0.84308   0.27782   0.24003   0.00000  Uiso   1.00
C142   C     0.79580   0.24468   0.48660   0.00000  Uiso   1.00
C143   C     0.85171   0.14773   0.12911   0.00000  Uiso   1.00
C144   C     0.81568   0.18527   0.37100   0.00000  Uiso   1.00
C145   C     0.84971   0.08251   0.02213   0.00000  Uiso   1.00
C146   C     0.85701   0.13763   0.08065   0.00000  Uiso   1.00
C147   C     0.80239   0.23593   0.43999   0.00000  Uiso   1.00
C148   C     0.89052   0.00943   0.21204   0.00000  Uiso   1.00
C149   C     0.77180   0.32730   0.28068   0.00000  Uiso   1.00
C150   C     0.80308   0.27065   0.41298   0.00000  Uiso   1.00
C151   C     0.78370   0.10185   0.40159   0.00000  Uiso   1.00
C152   C     0.80263   0.21613   0.01288   0.00000  Uiso   1.00
C153   C     0.81668   0.17794   0.49285   0.00000  Uiso   1.00
C154   C     0.81134   0.16446   0.44881   0.00000  Uiso   1.00
C155   C     0.83311   0.15167   0.01591   0.00000  Uiso   1.00
C156   C     0.83553   0.10955   0.49858   0.00000  Uiso   1.00
C157   C     0.82162   0.09450   0.45948   0.00000  Uiso   1.00
C158   C     0.80797   0.12112   0.43538   0.00000  Uiso   1.00
F159   F     0.86769   0.06850   0.08809   0.00000  Uiso   1.00
F160   F     0.98156   0.13037   0.29322   0.00000  Uiso   1.00
F161   F     0.81923   0.05326   0.44586   0.00000  Uiso   1.00
F162   F     0.85244   0.04210   0.00669   0.00000  Uiso   1.00
F163   F     0.85551   0.20689   0.06863   0.00000  Uiso   1.00
F164   F     0.79098   0.22452   0.05828   0.00000  Uiso   1.00
F165   F     0.78497   0.28213   0.00666   0.00000  Uiso   1.00
F166   F     0.68750   0.20168   0.20668   0.00000  Uiso   1.00
H167   H     0.94082   0.05453   0.20937   0.00000  Uiso   1.00
H168   H     0.71894   0.32896   0.33189   0.00000  Uiso   1.00
H169   H     0.77424   0.31831   0.40476   0.00000  Uiso   1.00
H170   H     0.73370   0.10244   0.37448   0.00000  Uiso   1.00
O171   O     0.83333   0.16667   0.25000   0.00000  Uiso   1.00
O172   O     0.82118   0.12637   0.15458   0.00000  Uiso   1.00
O173   O     0.79607   0.20391   0.34968   0.00000  Uiso   1.00
O174   O     0.87491   0.17759   0.14606   0.00000  Uiso   1.00
O175   O     0.84118   0.15880   0.34968   0.00000  Uiso   1.00
O176   O     0.90577   0.32803   0.17389   0.00000  Uiso   1.00
O177   O     0.91292   0.04414   0.23082   0.00000  Uiso   1.00
O178   O     0.75338   0.30089   0.25808   0.00000  Uiso   1.00
O179   O     0.74959   0.00956   0.32303   0.00000  Uiso   1.00
O180   O     0.83289   0.27801   0.38034   0.00000  Uiso   1.00
O181   O     0.77024   0.29574   0.42577   0.00000  Uiso   1.00
O182   O     0.84597   0.08019   0.28213   0.00000  Uiso   1.00
O183   O     0.79498   0.07142   0.37676   0.00000  Uiso   1.00
O184   O     0.74735   0.11810   0.39880   0.00000  Uiso   1.00
O185   O     0.81298   0.26085   0.27013   0.00000  Uiso   1.00
O186   O     0.74078   0.13291   0.23413   0.00000  Uiso   1.00
O187   O     0.93360   0.19272   0.21360   0.00000  Uiso   1.00
O188   O     0.73738   0.18878   0.28213   0.00000  Uiso   1.00
O189   O     0.92158   0.15226   0.27013   0.00000  Uiso   1.00
O190   O     0.80426   0.06944   0.23413   0.00000  Uiso   1.00
O191   O     0.87012   0.25620   0.21360   0.00000  Uiso   1.00
Zn192  Zn    0.86005   0.13994   0.28734   0.00000  Uiso   1.00
Zn193  Zn    0.80046   0.12458   0.21875   0.00000  Uiso   1.00
Zn194  Zn    0.87723   0.19775   0.20657   0.00000  Uiso   1.00
Zn195  Zn    0.79560   0.20439   0.28733   0.00000  Uiso   1.00
C196   C     0.05286   0.49290   0.25964   0.00000  Uiso   1.00
C197   C     0.18151   0.49927   0.05512   0.00000  Uiso   1.00
C198   C     0.19208   0.42952   0.06356   0.00000  Uiso   1.00
C199   C     0.28071   0.50715   0.24013   0.00000  Uiso   1.00
C200   C     0.14219   0.52826   0.42052   0.00000  Uiso   1.00
C201   C     0.32645   0.51040   0.23689   0.00000  Uiso   1.00
C202   C     0.00774   0.48955   0.26335   0.00000  Uiso   1.00
C203   C     0.18196   0.65619   0.23863   0.00000  Uiso   1.00
C204   C     0.15030   0.34524   0.26199   0.00000  Uiso   1.00
C205   C     0.15597   0.38931   0.25984   0.00000  Uiso   1.00
C206   C     0.17641   0.61115   0.24003   0.00000  Uiso   1.00
C207   C     0.12913   0.57802   0.48660   0.00000  Uiso   1.00
C208   C     0.18504   0.48106   0.12911   0.00000  Uiso   1.00
C209   C     0.14902   0.51860   0.37100   0.00000  Uiso   1.00
C210   C     0.18304   0.41585   0.02213   0.00000  Uiso   1.00
C211   C     0.19034   0.47097   0.08065   0.00000  Uiso   1.00
C212   C     0.13572   0.56926   0.43999   0.00000  Uiso   1.00
C213   C     0.22385   0.34276   0.21204   0.00000  Uiso   1.00
C214   C     0.10513   0.66064   0.28068   0.00000  Uiso   1.00
C215   C     0.13641   0.60398   0.41298   0.00000  Uiso   1.00
C216   C     0.11703   0.43518   0.40159   0.00000  Uiso   1.00
C217   C     0.13597   0.54947   0.01288   0.00000  Uiso   1.00
C218   C     0.15001   0.51127   0.49285   0.00000  Uiso   1.00
C219   C     0.14467   0.49780   0.44881   0.00000  Uiso   1.00
C220   C     0.16645   0.48500   0.01591   0.00000  Uiso   1.00
C221   C     0.16886   0.44288   0.49858   0.00000  Uiso   1.00
C222   C     0.15496   0.42783   0.45948   0.00000  Uiso   1.00
C223   C     0.14130   0.45446   0.43538   0.00000  Uiso   1.00
F224   F     0.20102   0.40183   0.08809   0.00000  Uiso   1.00
F225   F     0.31490   0.46371   0.29322   0.00000  Uiso   1.00
F226   F     0.15256   0.38659   0.44586   0.00000  Uiso   1.00
F227   F     0.18578   0.37544   0.00669   0.00000  Uiso   1.00
F228   F     0.18884   0.54022   0.06863   0.00000  Uiso   1.00
F229   F     0.12432   0.55786   0.05828   0.00000  Uiso   1.00
F230   F     0.11831   0.61546   0.00666   0.00000  Uiso   1.00
F231   F     0.02084   0.53501   0.20668   0.00000  Uiso   1.00
H232   H     0.27415   0.38786   0.20937   0.00000  Uiso   1.00
H233   H     0.05227   0.66230   0.33189   0.00000  Uiso   1.00
H234   H     0.10757   0.65165   0.40476   0.00000  Uiso   1.00
H235   H     0.06703   0.43578   0.37448   0.00000  Uiso   1.00
O236   O     0.16667   0.50000   0.25000   0.00000  Uiso   1.00
O237   O     0.15451   0.45970   0.15458   0.00000  Uiso   1.00
O238   O     0.12940   0.53724   0.34968   0.00000  Uiso   1.00
O239   O     0.20824   0.51092   0.14606   0.00000  Uiso   1.00
O240   O     0.17451   0.49213   0.34968   0.00000  Uiso   1.00
O241   O     0.23910   0.66136   0.17389   0.00000  Uiso   1.00
O242   O     0.24625   0.37747   0.23082   0.00000  Uiso   1.00
O243   O     0.08671   0.63422   0.25808   0.00000  Uiso   1.00
O244   O     0.08293   0.34290   0.32303   0.00000  Uiso   1.00
O245   O     0.16623   0.61135   0.38034   0.00000  Uiso   1.00
O246   O     0.10358   0.62907   0.42577   0.00000  Uiso   1.00
O247   O     0.17930   0.41352   0.28213   0.00000  Uiso   1.00
O248   O     0.12831   0.40476   0.37676   0.00000  Uiso   1.00
O249   O     0.08068   0.45143   0.39880   0.00000  Uiso   1.00
O250   O     0.14632   0.59418   0.27013   0.00000  Uiso   1.00
O251   O     0.07412   0.46625   0.23413   0.00000  Uiso   1.00
O252   O     0.26693   0.52605   0.21360   0.00000  Uiso   1.00
O253   O     0.07071   0.52211   0.28213   0.00000  Uiso   1.00
O254   O     0.25491   0.48559   0.27013   0.00000  Uiso   1.00
O255   O     0.13760   0.40277   0.23413   0.00000  Uiso   1.00
O256   O     0.20345   0.58953   0.21360   0.00000  Uiso   1.00
Zn257  Zn    0.19338   0.47327   0.28734   0.00000  Uiso   1.00
Zn258  Zn    0.13379   0.45791   0.21875   0.00000  Uiso   1.00
Zn259  Zn    0.21056   0.53109   0.20657   0.00000  Uiso   1.00
Zn260  Zn    0.12893   0.53773   0.28733   0.00000  Uiso   1.00
C261   C     0.38619   0.49290   0.25964   0.00000  Uiso   1.00
C262   C     0.51485   0.49927   0.05512   0.00000  Uiso   1.00
C263   C     0.52541   0.42952   0.06356   0.00000  Uiso   1.00
C264   C     0.61404   0.50715   0.24013   0.00000  Uiso   1.00
C265   C     0.47553   0.52826   0.42052   0.00000  Uiso   1.00
C266   C     0.65979   0.51040   0.23689   0.00000  Uiso   1.00
C267   C     0.34108   0.48955   0.26335   0.00000  Uiso   1.00
C268   C     0.51530   0.65619   0.23863   0.00000  Uiso   1.00
C269   C     0.48363   0.34524   0.26199   0.00000  Uiso   1.00
C270   C     0.48930   0.38931   0.25984   0.00000  Uiso   1.00
C271   C     0.50974   0.61115   0.24003   0.00000  Uiso   1.00
C272   C     0.46246   0.57802   0.48660   0.00000  Uiso   1.00
C273   C     0.51837   0.48106   0.12911   0.00000  Uiso   1.00
C274   C     0.48235   0.51860   0.37100   0.00000  Uiso   1.00
C275   C     0.51637   0.41585   0.02213   0.00000  Uiso   1.00
C276   C     0.52368   0.47097   0.08065   0.00000  Uiso   1.00
C277   C     0.46905   0.56926   0.43999   0.00000  Uiso   1.00
C278   C     0.55718   0.34276   0.21204   0.00000  Uiso   1.00
C279   C     0.43847   0.66064   0.28068   0.00000  Uiso   1.00
C280   C     0.46975   0.60398   0.41298   0.00000  Uiso   1.00
C281   C     0.45036   0.43518   0.40159   0.00000  Uiso   1.00
C282   C     0.46930   0.54947   0.01288   0.00000  Uiso   1.00
C283   C     0.48334   0.51127   0.49285   0.00000  Uiso   1.00
C284   C     0.47801   0.49780   0.44881   0.00000  Uiso   1.00
C285   C     0.49978   0.48500   0.01591   0.00000  Uiso   1.00
C286   C     0.50220   0.44288   0.49858   0.00000  Uiso   1.00
C287   C     0.48829   0.42783   0.45948   0.00000  Uiso   1.00
C288   C     0.47464   0.45446   0.43538   0.00000  Uiso   1.00
F289   F     0.53435   0.40183   0.08809   0.00000  Uiso   1.00
F290   F     0.64823   0.46371   0.29322   0.00000  Uiso   1.00
F291   F     0.48590   0.38659   0.44586   0.00000  Uiso   1.00
F292   F     0.51911   0.37544   0.00669   0.00000  Uiso   1.00
F293   F     0.52218   0.54022   0.06863   0.00000  Uiso   1.00
F294   F     0.45765   0.55786   0.05828   0.00000  Uiso   1.00
F295   F     0.45164   0.61546   0.00666   0.00000  Uiso   1.00
F296   F     0.35417   0.53501   0.20668   0.00000  Uiso   1.00
H297   H     0.60749   0.38786   0.20937   0.00000  Uiso   1.00
H298   H     0.38561   0.66230   0.33189   0.00000  Uiso   1.00
H299   H     0.44091   0.65165   0.40476   0.00000  Uiso   1.00
H300   H     0.40036   0.43578   0.37448   0.00000  Uiso   1.00
O301   O     0.50000   0.50000   0.25000   0.00000  Uiso   1.00
O302   O     0.48784   0.45970   0.15458   0.00000  Uiso   1.00
O303   O     0.46274   0.53724   0.34968   0.00000  Uiso   1.00
O304   O     0.54157   0.51092   0.14606   0.00000  Uiso   1.00
O305   O     0.50785   0.49213   0.34968   0.00000  Uiso   1.00
O306   O     0.57243   0.66136   0.17389   0.00000  Uiso   1.00
O307   O     0.57959   0.37747   0.23082   0.00000  Uiso   1.00
O308   O     0.42005   0.63422   0.25808   0.00000  Uiso   1.00
O309   O     0.41626   0.34290   0.32303   0.00000  Uiso   1.00
O310   O     0.49956   0.61135   0.38034   0.00000  Uiso   1.00
O311   O     0.43691   0.62907   0.42577   0.00000  Uiso   1.00
O312   O     0.51264   0.41352   0.28213   0.00000  Uiso   1.00
O313   O     0.46164   0.40476   0.37676   0.00000  Uiso   1.00
O314   O     0.41401   0.45143   0.39880   0.00000  Uiso   1.00
O315   O     0.47965   0.59418   0.27013   0.00000  Uiso   1.00
O316   O     0.40745   0.46625   0.23413   0.00000  Uiso   1.00
O317   O     0.60026   0.52605   0.21360   0.00000  Uiso   1.00
O318   O     0.40405   0.52211   0.28213   0.00000  Uiso   1.00
O319   O     0.58824   0.48559   0.27013   0.00000  Uiso   1.00
O320   O     0.47093   0.40277   0.23413   0.00000  Uiso   1.00
O321   O     0.53678   0.58953   0.21360   0.00000  Uiso   1.00
Zn322  Zn    0.52672   0.47327   0.28734   0.00000  Uiso   1.00
Zn323  Zn    0.46713   0.45791   0.21875   0.00000  Uiso   1.00
Zn324  Zn    0.54389   0.53109   0.20657   0.00000  Uiso   1.00
Zn325  Zn    0.46226   0.53773   0.28733   0.00000  Uiso   1.00
C326   C     0.71953   0.49290   0.25964   0.00000  Uiso   1.00
C327   C     0.84818   0.49927   0.05512   0.00000  Uiso   1.00
C328   C     0.85875   0.42952   0.06356   0.00000  Uiso   1.00
C329   C     0.94738   0.50715   0.24013   0.00000  Uiso   1.00
C330   C     0.80886   0.52826   0.42052   0.00000  Uiso   1.00
C331   C     0.99312   0.51040   0.23689   0.00000  Uiso   1.00
C332   C     0.67441   0.48955   0.26335   0.00000  Uiso   1.00
C333   C     0.84863   0.65619   0.23863   0.00000  Uiso   1.00
C334   C     0.81697   0.34524   0.26199   0.00000  Uiso   1.00
C335   C     0.82264   0.38931   0.25984   0.00000  Uiso   1.00
C336   C     0.84308   0.61115   0.24003   0.00000  Uiso   1.00
C337   C     0.79580   0.57802   0.48660   0.00000  Uiso   1.00
C338   C     0.85171   0.48106   0.12911   0.00000  Uiso   1.00
C339   C     0.81568   0.51860   0.37100   0.00000  Uiso   1.00
C340   C     0.84971   0.41585   0.02213   0.00000  Uiso   1.00
C341   C     0.85701   0.47097   0.08065   0.00000  Uiso   1.00
C342   C     0.80239   0.56926   0.43999   0.00000  Uiso   1.00
C343   C     0.89052   0.34276   0.21204   0.00000  Uiso   1.00
C344   C     0.77180   0.66064   0.28068   0.00000  Uiso   1.00
C345   C     0.80308   0.60398   0.41298   0.00000  Uiso   1.00
C346   C     0.78370   0.43518   0.40159   0.00000  Uiso   1.00
C347   C     0.80263   0.54947   0.01288   0.00000  Uiso   1.00
C348   C     0.81668   0.51127   0.49285   0.00000  Uiso   1.00
C349   C     0.81134   0.49780   0.44881   0.00000  Uiso   1.00
C350   C     0.83311   0.48500   0.01591   0.00000  Uiso   1.00
C351   C     0.83553   0.44288   0.49858   0.00000  Uiso   1.00
C352   C     0.82162   0.42783   0.45948   0.00000  Uiso   1.00
C353   C     0.80797   0.45446   0.43538   0.00000  Uiso   1.00
F354   F     0.86769   0.40183   0.08809   0.00000  Uiso   1.00
F355   F     0.98156   0.46371   0.29322   0.00000  Uiso   1.00
F356   F     0.81923   0.38659   0.44586   0.00000  Uiso   1.00
F357   F     0.85244   0.37544   0.00669   0.00000  Uiso   1.00
F358   F     0.85551   0.54022   0.06863   0.00000  Uiso   1.00
F359   F     0.79098   0.55786   0.05828   0.00000  Uiso   1.00
F360   F     0.78497   0.61546   0.00666   0.00000  Uiso   1.00
F361   F     0.68750   0.53501   0.20668   0.00000  Uiso   1.00
H362   H     0.94082   0.38786   0.20937   0.00000  Uiso   1.00
H363   H     0.71894   0.66230   0.33189   0.00000  Uiso   1.00
H364   H     0.77424   0.65165   0.40476   0.00000  Uiso   1.00
H365   H     0.73370   0.43578   0.37448   0.00000  Uiso   1.00
O366   O     0.83333   0.50000   0.25000   0.00000  Uiso   1.00
O367   O     0.82118   0.45970   0.15458   0.00000  Uiso   1.00
O368   O     0.79607   0.53724   0.34968   0.00000  Uiso   1.00
O369   O     0.87491   0.51092   0.14606   0.00000  Uiso   1.00
O370   O     0.84118   0.49213   0.34968   0.00000  Uiso   1.00
O371   O     0.90577   0.66136   0.17389   0.00000  Uiso   1.00
O372   O     0.91292   0.37747   0.23082   0.00000  Uiso   1.00
O373   O     0.75338   0.63422   0.25808   0.00000  Uiso   1.00
O374   O     0.74959   0.34290   0.32303   0.00000  Uiso   1.00
O375   O     0.83289   0.61135   0.38034   0.00000  Uiso   1.00
O376   O     0.77024   0.62907   0.42577   0.00000  Uiso   1.00
O377   O     0.84597   0.41352   0.28213   0.00000  Uiso   1.00
O378   O     0.79498   0.40476   0.37676   0.00000  Uiso   1.00
O379   O     0.74735   0.45143   0.39880   0.00000  Uiso   1.00
O380   O     0.81298   0.59418   0.27013   0.00000  Uiso   1.00
O381   O     0.74078   0.46625   0.23413   0.00000  Uiso   1.00
O382   O     0.93360   0.52605   0.21360   0.00000  Uiso   1.00
O383   O     0.73738   0.52211   0.28213   0.00000  Uiso   1.00
O384   O     0.92158   0.48559   0.27013   0.00000  Uiso   1.00
O385   O     0.80426   0.40277   0.23413   0.00000  Uiso   1.00
O386   O     0.87012   0.58953   0.21360   0.00000  Uiso   1.00
Zn387  Zn    0.86005   0.47327   0.28734   0.00000  Uiso   1.00
Zn388  Zn    0.80046   0.45791   0.21875   0.00000  Uiso   1.00
Zn389  Zn    0.87723   0.53109   0.20657   0.00000  Uiso   1.00
Zn390  Zn    0.79560   0.53773   0.28733   0.00000  Uiso   1.00
C391   C     0.05286   0.82623   0.25964   0.00000  Uiso   1.00
C392   C     0.18151   0.83260   0.05512   0.00000  Uiso   1.00
C393   C     0.19208   0.76285   0.06356   0.00000  Uiso   1.00
C394   C     0.28071   0.84048   0.24013   0.00000  Uiso   1.00
C395   C     0.14219   0.86159   0.42052   0.00000  Uiso   1.00
C396   C     0.32645   0.84373   0.23689   0.00000  Uiso   1.00
C397   C     0.00774   0.82288   0.26335   0.00000  Uiso   1.00
C398   C     0.18196   0.98952   0.23863   0.00000  Uiso   1.00
C399   C     0.15030   0.67857   0.26199   0.00000  Uiso   1.00
C400   C     0.15597   0.72264   0.25984   0.00000  Uiso   1.00
C401   C     0.17641   0.94449   0.24003   0.00000  Uiso   1.00
C402   C     0.12913   0.91135   0.48660   0.00000  Uiso   1.00
C403   C     0.18504   0.81439   0.12911   0.00000  Uiso   1.00
C404   C     0.14902   0.85194   0.37100   0.00000  Uiso   1.00
C405   C     0.18304   0.74918   0.02213   0.00000  Uiso   1.00
C406   C     0.19034   0.80430   0.08065   0.00000  Uiso   1.00
C407   C     0.13572   0.90260   0.43999   0.00000  Uiso   1.00
C408   C     0.22385   0.67610   0.21204   0.00000  Uiso   1.00
C409   C     0.10513   0.99397   0.28068   0.00000  Uiso   1.00
C410   C     0.13641   0.93732   0.41298   0.00000  Uiso   1.00
C411   C     0.11703   0.76852   0.40159   0.00000  Uiso   1.00
C412   C     0.13597   0.88280   0.01288   0.00000  Uiso   1.00
C413   C     0.15001   0.84461   0.49285   0.00000  Uiso   1.00
C414   C     0.14467   0.83113   0.44881   0.00000  Uiso   1.00
C415   C     0.16645   0.81834   0.01591   0.00000  Uiso   1.00
C416   C     0.16886   0.77621   0.49858   0.00000  Uiso   1.00
C417   C     0.15496   0.76116   0.45948   0.00000  Uiso   1.00
C418   C     0.14130   0.78779   0.43538   0.00000  Uiso   1.00
F419   F     0.20102   0.73517   0.08809   0.00000  Uiso   1.00
F420   F     0.31490   0.79704   0.29322   0.00000  Uiso   1.00
F421   F     0.15256   0.71992   0.44586   0.00000  Uiso   1.00
F422   F     0.18578   0.70877   0.00669   0.00000  Uiso   1.00
F423   F     0.18884   0.87355   0.06863   0.00000  Uiso   1.00
F424   F     0.12432   0.89119   0.05828   0.00000  Uiso   1.00
F425   F     0.11831   0.94880   0.00666   0.00000  Uiso   1.00
F426   F     0.02084   0.86834   0.20668   0.00000  Uiso   1.00
H427   H     0.27415   0.72120   0.20937   0.00000  Uiso   1.00
H428   H     0.05227   0.99563   0.33189   0.00000  Uiso   1.00
H429   H     0.10757   0.98498   0.40476   0.00000  Uiso   1.00
H430   H     0.06703   0.76911   0.37448   0.00000  Uiso   1.00
O431   O     0.16667   0.83333   0.25000   0.00000  Uiso   1.00
O432   O     0.15451   0.79304   0.15458   0.00000  Uiso   1.00
O433   O     0.12940   0.87058   0.34968   0.00000  Uiso   1.00
O434   O     0.20824   0.84425   0.14606   0.00000  Uiso   1.00
O435   O     0.17451   0.82546   0.34968   0.00000  Uiso   1.00
O436   O     0.23910   0.99470   0.17389   0.00000  Uiso   1.00
O437   O     0.24625   0.71080   0.23082   0.00000  Uiso   1.00
O438   O     0.08671   0.96755   0.25808   0.00000  Uiso   1.00
O439   O     0.08293   0.67623   0.32303   0.00000  Uiso   1.00
O440   O     0.16623   0.94468   0.38034   0.00000  Uiso   1.00
O441   O     0.10358   0.96240   0.42577   0.00000  Uiso   1.00
O442   O     0.17930   0.74686   0.28213   0.00000  Uiso   1.00
O443   O     0.12831   0.73809   0.37676   0.00000  Uiso   1.00
O444   O     0.08068   0.78476   0.39880   0.00000  Uiso   1.00
O445   O     0.14632   0.92751   0.27013   0.00000  Uiso   1.00
O446   O     0.07412   0.79958   0.23413   0.00000  Uiso   1.00
O447   O     0.26693   0.85939   0.21360   0.00000  Uiso   1.00
O448   O     0.07071   0.85544   0.28213   0.00000  Uiso   1.00
O449   O     0.25491   0.81892   0.27013   0.00000  Uiso   1.00
O450   O     0.13760   0.73610   0.23413   0.00000  Uiso   1.00
O451   O     0.20345   0.92286   0.21360   0.00000  Uiso   1.00
Zn452  Zn    0.19338   0.80661   0.28734   0.00000  Uiso   1.00
Zn453  Zn    0.13379   0.79124   0.21875   0.00000  Uiso   1.00
Zn454  Zn    0.21056   0.86442   0.20657   0.00000  Uiso   1.00
Zn455  Zn    0.12893   0.87106   0.28733   0.00000  Uiso   1.00
C456   C     0.38619   0.82623   0.25964   0.00000  Uiso   1.00
C457   C     0.51485   0.83260   0.05512   0.00000  Uiso   1.00
C458   C     0.52541   0.76285   0.06356   0.00000  Uiso   1.00
C459   C     0.61404   0.84048   0.24013   0.00000  Uiso   1.00
C460   C     0.47553   0.86159   0.42052   0.00000  Uiso   1.00
C461   C     0.65979   0.84373   0.23689   0.00000  Uiso   1.00
C462   C     0.34108   0.82288   0.26335   0.00000  Uiso   1.00
C463   C     0.51530   0.98952   0.23863   0.00000  Uiso   1.00
C464   C     0.48363   0.67857   0.26199   0.00000  Uiso   1.00
C465   C     0.48930   0.72264   0.25984   0.00000  Uiso   1.00
C466   C     0.50974   0.94449   0.24003   0.00000  Uiso   1.00
C467   C     0.46246   0.91135   0.48660   0.00000  Uiso   1.00
C468   C     0.51837   0.81439   0.12911   0.00000  Uiso   1.00
C469   C     0.48235   0.85194   0.37100   0.00000  Uiso   1.00
C470   C     0.51637   0.74918   0.02213   0.00000  Uiso   1.00
C471   C     0.52368   0.80430   0.08065   0.00000  Uiso   1.00
C472   C     0.46905   0.90260   0.43999   0.00000  Uiso   1.00
C473   C     0.55718   0.67610   0.21204   0.00000  Uiso   1.00
C474   C     0.43847   0.99397   0.28068   0.00000  Uiso   1.00
C475   C     0.46975   0.93732   0.41298   0.00000  Uiso   1.00
C476   C     0.45036   0.76852   0.40159   0.00000  Uiso   1.00
C477   C     0.46930   0.88280   0.01288   0.00000  Uiso   1.00
C478   C     0.48334   0.84461   0.49285   0.00000  Uiso   1.00
C479   C     0.47801   0.83113   0.44881   0.00000  Uiso   1.00
C480   C     0.49978   0.81834   0.01591   0.00000  Uiso   1.00
C481   C     0.50220   0.77621   0.49858   0.00000  Uiso   1.00
C482   C     0.48829   0.76116   0.45948   0.00000  Uiso   1.00
C483   C     0.47464   0.78779   0.43538   0.00000  Uiso   1.00
F484   F     0.53435   0.73517   0.08809   0.00000  Uiso   1.00
F485   F     0.64823   0.79704   0.29322   0.00000  Uiso   1.00
F486   F     0.48590   0.71992   0.44586   0.00000  Uiso   1.00
F487   F     0.51911   0.70877   0.00669   0.00000  Uiso   1.00
F488   F     0.52218   0.87355   0.06863   0.00000  Uiso   1.00
F489   F     0.45765   0.89119   0.05828   0.00000  Uiso   1.00
F490   F     0.45164   0.94880   0.00666   0.00000  Uiso   1.00
F491   F     0.35417   0.86834   0.20668   0.00000  Uiso   1.00
H492   H     0.60749   0.72120   0.20937   0.00000  Uiso   1.00
H493   H     0.38561   0.99563   0.33189   0.00000  Uiso   1.00
H494   H     0.44091   0.98498   0.40476   0.00000  Uiso   1.00
H495   H     0.40036   0.76911   0.37448   0.00000  Uiso   1.00
O496   O     0.50000   0.83333   0.25000   0.00000  Uiso   1.00
O497   O     0.48784   0.79304   0.15458   0.00000  Uiso   1.00
O498   O     0.46274   0.87058   0.34968   0.00000  Uiso   1.00
O499   O     0.54157   0.84425   0.14606   0.00000  Uiso   1.00
O500   O     0.50785   0.82546   0.34968   0.00000  Uiso   1.00
O501   O     0.57243   0.99470   0.17389   0.00000  Uiso   1.00
O502   O     0.57959   0.71080   0.23082   0.00000  Uiso   1.00
O503   O     0.42005   0.96755   0.25808   0.00000  Uiso   1.00
O504   O     0.41626   0.67623   0.32303   0.00000  Uiso   1.00
O505   O     0.49956   0.94468   0.38034   0.00000  Uiso   1.00
O506   O     0.43691   0.96240   0.42577   0.00000  Uiso   1.00
O507   O     0.51264   0.74686   0.28213   0.00000  Uiso   1.00
O508   O     0.46164   0.73809   0.37676   0.00000  Uiso   1.00
O509   O     0.41401   0.78476   0.39880   0.00000  Uiso   1.00
O510   O     0.47965   0.92751   0.27013   0.00000  Uiso   1.00
O511   O     0.40745   0.79958   0.23413   0.00000  Uiso   1.00
O512   O     0.60026   0.85939   0.21360   0.00000  Uiso   1.00
O513   O     0.40405   0.85544   0.28213   0.00000  Uiso   1.00
O514   O     0.58824   0.81892   0.27013   0.00000  Uiso   1.00
O515   O     0.47093   0.73610   0.23413   0.00000  Uiso   1.00
O516   O     0.53678   0.92286   0.21360   0.00000  Uiso   1.00
Zn517  Zn    0.52672   0.80661   0.28734   0.00000  Uiso   1.00
Zn518  Zn    0.46713   0.79124   0.21875   0.00000  Uiso   1.00
Zn519  Zn    0.54389   0.86442   0.20657   0.00000  Uiso   1.00
Zn520  Zn    0.46226   0.87106   0.28733   0.00000  Uiso   1.00
C521   C     0.71953   0.82623   0.25964   0.00000  Uiso   1.00
C522   C     0.84818   0.83260   0.05512   0.00000  Uiso   1.00
C523   C     0.85875   0.76285   0.06356   0.00000  Uiso   1.00
C524   C     0.94738   0.84048   0.24013   0.00000  Uiso   1.00
C525   C     0.80886   0.86159   0.42052   0.00000  Uiso   1.00
C526   C     0.99312   0.84373   0.23689   0.00000  Uiso   1.00
C527   C     0.67441   0.82288   0.26335   0.00000  Uiso   1.00
C528   C     0.84863   0.98952   0.23863   0.00000  Uiso   1.00
C529   C     0.81697   0.67857   0.26199   0.00000  Uiso   1.00
C530   C     0.82264   0.72264   0.25984   0.00000  Uiso   1.00
C531   C     0.84308   0.94449   0.24003   0.00000  Uiso   1.00
C532   C     0.79580   0.91135   0.48660   0.00000  Uiso   1.00
C533   C     0.85171   0.81439   0.12911   0.00000  Uiso   1.00
C534   C     0.81568   0.85194   0.37100   0.00000  Uiso   1.00
C535   C     0.84971   0.74918   0.02213   0.00000  Uiso   1.00
C536   C     0.85701   0.80430   0.08065   0.00000  Uiso   1.00
C537   C     0.80239   0.90260   0.43999   0.00000  Uiso   1.00
C538   C     0.89052   0.67610   0.21204   0.00000  Uiso   1.00
C539   C     0.77180   0.99397   0.28068   0.00000  Uiso   1.00
C540   C     0.80308   0.93732   0.41298   0.00000  Uiso   1.00
C541   C     0.78370   0.76852   0.40159   0.00000  Uiso   1.00
C542   C     0.80263   0.88280   0.01288   0.00000  Uiso   1.00
C543   C     0.81668   0.84461   0.49285   0.00000  Uiso   1.00
C544   C     0.81134   0.83113   0.44881   0.00000  Uiso   1.00
C545   C     0.83311   0.81834   0.01591   0.00000  Uiso   1.00
C546   C     0.83553   0.77621   0.49858   0.00000  Uiso   1.00
C547   C     0.82162   0.76116   0.45948   0.00000  Uiso   1.00
C548   C     0.80797   0.78779   0.43538   0.00000  Uiso   1.00
F549   F     0.86769   0.73517   0.08809   0.00000  Uiso   1.00
F550   F     0.98156   0.79704   0.29322   0.00000  Uiso   1.00
F551   F     0.81923   0.71992   0.44586   0.00000  Uiso   1.00
F552   F     0.85244   0.70877   0.00669   0.00000  Uiso   1.00
F553   F     0.85551   0.87355   0.06863   0.00000  Uiso   1.00
F554   F     0.79098   0.89119   0.05828   0.00000  Uiso   1.00
F555   F     0.78497   0.94880   0.00666   0.00000  Uiso   1.00
F556   F     0.68750   0.86834   0.20668   0.00000  Uiso   1.00
H557   H     0.94082   0.72120   0.20937   0.00000  Uiso   1.00
H558   H     0.71894   0.99563   0.33189   0.00000  Uiso   1.00
H559   H     0.77424   0.98498   0.40476   0.00000  Uiso   1.00
H560   H     0.73370   0.76911   0.37448   0.00000  Uiso   1.00
O561   O     0.83333   0.83333   0.25000   0.00000  Uiso   1.00
O562   O     0.82118   0.79304   0.15458   0.00000  Uiso   1.00
O563   O     0.79607   0.87058   0.34968   0.00000  Uiso   1.00
O564   O     0.87491   0.84425   0.14606   0.00000  Uiso   1.00
O565   O     0.84118   0.82546   0.34968   0.00000  Uiso   1.00
O566   O     0.90577   0.99470   0.17389   0.00000  Uiso   1.00
O567   O     0.91292   0.71080   0.23082   0.00000  Uiso   1.00
O568   O     0.75338   0.96755   0.25808   0.00000  Uiso   1.00
O569   O     0.74959   0.67623   0.32303   0.00000  Uiso   1.00
O570   O     0.83289   0.94468   0.38034   0.00000  Uiso   1.00
O571   O     0.77024   0.96240   0.42577   0.00000  Uiso   1.00
O572   O     0.84597   0.74686   0.28213   0.00000  Uiso   1.00
O573   O     0.79498   0.73809   0.37676   0.00000  Uiso   1.00
O574   O     0.74735   0.78476   0.39880   0.00000  Uiso   1.00
O575   O     0.81298   0.92751   0.27013   0.00000  Uiso   1.00
O576   O     0.74078   0.79958   0.23413   0.00000  Uiso   1.00
O577   O     0.93360   0.85939   0.21360   0.00000  Uiso   1.00
O578   O     0.73738   0.85544   0.28213   0.00000  Uiso   1.00
O579   O     0.92158   0.81892   0.27013   0.00000  Uiso   1.00
O580   O     0.80426   0.73610   0.23413   0.00000  Uiso   1.00
O581   O     0.87012   0.92286   0.21360   0.00000  Uiso   1.00
Zn582  Zn    0.86005   0.80661   0.28734   0.00000  Uiso   1.00
Zn583  Zn    0.80046   0.79124   0.21875   0.00000  Uiso   1.00
Zn584  Zn    0.87723   0.86442   0.20657   0.00000  Uiso   1.00
Zn585  Zn    0.79560   0.87106   0.28733   0.00000  Uiso   1.00
C586   C     0.05286   0.15956   0.75964   0.00000  Uiso   1.00
C587   C     0.18151   0.16593   0.55512   0.00000  Uiso   1.00
C588   C     0.19208   0.09619   0.56356   0.00000  Uiso   1.00
C589   C     0.28071   0.17381   0.74013   0.00000  Uiso   1.00
C590   C     0.14219   0.19493   0.92052   0.00000  Uiso   1.00
C591   C     0.32645   0.17707   0.73689   0.00000  Uiso   1.00
C592   C     0.00774   0.15622   0.76335   0.00000  Uiso   1.00
C593   C     0.18196   0.32285   0.73863   0.00000  Uiso   1.00
C594   C     0.15030   0.01191   0.76199   0.00000  Uiso   1.00
C595   C     0.15597   0.05598   0.75984   0.00000  Uiso   1.00
C596   C     0.17641   0.27782   0.74003   0.00000  Uiso   1.00
C597   C     0.12913   0.24468   0.98660   0.00000  Uiso   1.00
C598   C     0.18504   0.14773   0.62911   0.00000  Uiso   1.00
C599   C     0.14902   0.18527   0.87100   0.00000  Uiso   1.00
C600   C     0.18304   0.08251   0.52213   0.00000  Uiso   1.00
C601   C     0.19034   0.13763   0.58065   0.00000  Uiso   1.00
C602   C     0.13572   0.23593   0.93999   0.00000  Uiso   1.00
C603   C     0.22385   0.00943   0.71204   0.00000  Uiso   1.00
C604   C     0.10513   0.32730   0.78068   0.00000  Uiso   1.00
C605   C     0.13641   0.27065   0.91298   0.00000  Uiso   1.00
C606   C     0.11703   0.10185   0.90159   0.00000  Uiso   1.00
C607   C     0.13597   0.21613   0.51288   0.00000  Uiso   1.00
C608   C     0.15001   0.17794   0.99285   0.00000  Uiso   1.00
C609   C     0.14467   0.16446   0.94881   0.00000  Uiso   1.00
C610   C     0.16645   0.15167   0.51591   0.00000  Uiso   1.00
C611   C     0.16886   0.10955   0.99858   0.00000  Uiso   1.00
C612   C     0.15496   0.09450   0.95948   0.00000  Uiso   1.00
C613   C     0.14130   0.12112   0.93538   0.00000  Uiso   1.00
F614   F     0.20102   0.06850   0.58809   0.00000  Uiso   1.00
F615   F     0.31490   0.13037   0.79322   0.00000  Uiso   1.00
F616   F     0.15256   0.05326   0.94586   0.00000  Uiso   1.00
F617   F     0.18578   0.04210   0.50669   0.00000  Uiso   1.00
F618   F     0.18884   0.20689   0.56863   0.00000  Uiso   1.00
F619   F     0.12432   0.22452   0.55828   0.00000  Uiso   1.00
F620   F     0.11831   0.28213   0.50666   0.00000  Uiso   1.00
F621   F     0.02084   0.20168   0.70668   0.00000  Uiso   1.00
H622   H     0.27415   0.05453   0.70937   0.00000  Uiso   1.00
H623   H     0.05227   0.32896   0.83189   0.00000  Uiso   1.00
H624   H     0.10757   0.31831   0.90476   0.00000  Uiso   1.00
H625   H     0.06703   0.10244   0.87448   0.00000  Uiso   1.00
O626   O     0.16667   0.16667   0.75000   0.00000  Uiso   1.00
O627   O     0.15451   0.12637   0.65458   0.00000  Uiso   1.00
O628   O     0.12940   0.20391   0.84968   0.00000  Uiso   1.00
O629   O     0.20824   0.17759   0.64606   0.00000  Uiso   1.00
O630   O     0.17451   0.15880   0.84968   0.00000  Uiso   1.00
O631   O     0.23910   0.32803   0.67389   0.00000  Uiso   1.00
O632   O     0.24625   0.04414   0.73082   0.00000  Uiso   1.00
O633   O     0.08671   0.30089   0.75808   0.00000  Uiso   1.00
O634   O     0.08293   0.00956   0.82303   0.00000  Uiso   1.00
O635   O     0.16623   0.27801   0.88034   0.00000  Uiso   1.00
O636   O     0.10358   0.29574   0.92577   0.00000  Uiso   1.00
O637   O     0.17930   0.08019   0.78213   0.00000  Uiso   1.00
O638   O     0.12831   0.07142   0.87676   0.00000  Uiso   1.00
O639   O     0.08068   0.11810   0.89880   0.00000  Uiso   1.00
O640   O     0.14632   0.26085   0.77013   0.00000  Uiso   1.00
O641   O     0.07412   0.13291   0.73413   0.00000  Uiso   1.00
O642   O     0.26693   0.19272   0.71360   0.00000  Uiso   1.00
O643   O     0.07071   0.18878   0.78213   0.00000  Uiso   1.00
O644   O     0.25491   0.15226   0.77013   0.00000  Uiso   1.00
O645   O     0.13760   0.06944   0.73413   0.00000  Uiso   1.00
O646   O     0.20345   0.25620   0.71360   0.00000  Uiso   1.00
Zn647  Zn    0.19338   0.13994   0.78734   0.00000  Uiso   1.00
Zn648  Zn    0.13379   0.12458   0.71875   0.00000  Uiso   1.00
Zn649  Zn    0.21056   0.19775   0.70657   0.00000  Uiso   1.00
Zn650  Zn    0.12893   0.20439   0.78733   0.00000  Uiso   1.00
C651   C     0.38619   0.15956   0.75964   0.00000  Uiso   1.00
C652   C     0.51485   0.16593   0.55512   0.00000  Uiso   1.00
C653   C     0.52541   0.09619   0.56356   0.00000  Uiso   1.00
C654   C     0.61404   0.17381   0.74013   0.00000  Uiso   1.00
C655   C     0.47553   0.19493   0.92052   0.00000  Uiso   1.00
C656   C     0.65979   0.17707   0.73689   0.00000  Uiso   1.00
C657   C     0.34108   0.15622   0.76335   0.00000  Uiso   1.00
C658   C     0.51530   0.32285   0.73863   0.00000  Uiso   1.00
C659   C     0.48363   0.01191   0.76199   0.00000  Uiso   1.00
C660   C     0.48930   0.05598   0.75984   0.00000  Uiso   1.00
C661   C     0.50974   0.27782   0.74003   0.00000  Uiso   1.00
C662   C     0.46246   0.24468   0.98660   0.00000  Uiso   1.00
C663   C     0.51837   0.14773   0.62911   0.00000  Uiso   1.00
C664   C     0.48235   0.18527   0.87100   0.00000  Uiso   1.00
C665   C     0.51637   0.08251   0.52213   0.00000  Uiso   1.00
C666   C     0.52368   0.13763   0.58065   0.00000  Uiso   1.00
C667   C     0.46905   0.23593   0.93999   0.00000  Uiso   1.00
C668   C     0.55718   0.00943   0.71204   0.00000  Uiso   1.00
C669   C     0.43847   0.32730   0.78068   0.00000  Uiso   1.00
C670   C     0.46975   0.27065   0.91298   0.00000  Uiso   1.00
C671   C     0.45036   0.10185   0.90159   0.00000  Uiso   1.00
C672   C     0.46930   0.21613   0.51288   0.00000  Uiso   1.00
C673   C     0.48334   0.17794   0.99285   0.00000  Uiso   1.00
C674   C     0.47801   0.16446   0.94881   0.00000  Uiso   1.00
C675   C     0.49978   0.15167   0.51591   0.00000  Uiso   1.00
C676   C     0.50220   0.10955   0.99858   0.00000  Uiso   1.00
C677   C     0.48829   0.09450   0.95948   0.00000  Uiso   1.00
C678   C     0.47464   0.12112   0.93538   0.00000  Uiso   1.00
F679   F     0.53435   0.06850   0.58809   0.00000  Uiso   1.00
F680   F     0.64823   0.13037   0.79322   0.00000  Uiso   1.00
F681   F     0.48590   0.05326   0.94586   0.00000  Uiso   1.00
F682   F     0.51911   0.04210   0.50669   0.00000  Uiso   1.00
F683   F     0.52218   0.20689   0.56863   0.00000  Uiso   1.00
F684   F     0.45765   0.22452   0.55828   0.00000  Uiso   1.00
F685   F     0.45164   0.28213   0.50666   0.00000  Uiso   1.00
F686   F     0.35417   0.20168   0.70668   0.00000  Uiso   1.00
H687   H     0.60749   0.05453   0.70937   0.00000  Uiso   1.00
H688   H     0.38561   0.32896   0.83189   0.00000  Uiso   1.00
H689   H     0.44091   0.31831   0.90476   0.00000  Uiso   1.00
H690   H     0.40036   0.10244   0.87448   0.00000  Uiso   1.00
O691   O     0.50000   0.16667   0.75000   0.00000  Uiso   1.00
O692   O     0.48784   0.12637   0.65458   0.00000  Uiso   1.00
O693   O     0.46274   0.20391   0.84968   0.00000  Uiso   1.00
O694   O     0.54157   0.17759   0.64606   0.00000  Uiso   1.00
O695   O     0.50785   0.15880   0.84968   0.00000  Uiso   1.00
O696   O     0.57243   0.32803   0.67389   0.00000  Uiso   1.00
O697   O     0.57959   0.04414   0.73082   0.00000  Uiso   1.00
O698   O     0.42005   0.30089   0.75808   0.00000  Uiso   1.00
O699   O     0.41626   0.00956   0.82303   0.00000  Uiso   1.00
O700   O     0.49956   0.27801   0.88034   0.00000  Uiso   1.00
O701   O     0.43691   0.29574   0.92577   0.00000  Uiso   1.00
O702   O     0.51264   0.08019   0.78213   0.00000  Uiso   1.00
O703   O     0.46164   0.07142   0.87676   0.00000  Uiso   1.00
O704   O     0.41401   0.11810   0.89880   0.00000  Uiso   1.00
O705   O     0.47965   0.26085   0.77013   0.00000  Uiso   1.00
O706   O     0.40745   0.13291   0.73413   0.00000  Uiso   1.00
O707   O     0.60026   0.19272   0.71360   0.00000  Uiso   1.00
O708   O     0.40405   0.18878   0.78213   0.00000  Uiso   1.00
O709   O     0.58824   0.15226   0.77013   0.00000  Uiso   1.00
O710   O     0.47093   0.06944   0.73413   0.00000  Uiso   1.00
O711   O     0.53678   0.25620   0.71360   0.00000  Uiso   1.00
Zn712  Zn    0.52672   0.13994   0.78734   0.00000  Uiso   1.00
Zn713  Zn    0.46713   0.12458   0.71875   0.00000  Uiso   1.00
Zn714  Zn    0.54389   0.19775   0.70657   0.00000  Uiso   1.00
Zn715  Zn    0.46226   0.20439   0.78733   0.00000  Uiso   1.00
C716   C     0.71953   0.15956   0.75964   0.00000  Uiso   1.00
C717   C     0.84818   0.16593   0.55512   0.00000  Uiso   1.00
C718   C     0.85875   0.09619   0.56356   0.00000  Uiso   1.00
C719   C     0.94738   0.17381   0.74013   0.00000  Uiso   1.00
C720   C     0.80886   0.19493   0.92052   0.00000  Uiso   1.00
C721   C     0.99312   0.17707   0.73689   0.00000  Uiso   1.00
C722   C     0.67441   0.15622   0.76335   0.00000  Uiso   1.00
C723   C     0.84863   0.32285   0.73863   0.00000  Uiso   1.00
C724   C     0.81697   0.01191   0.76199   0.00000  Uiso   1.00
C725   C     0.82264   0.05598   0.75984   0.00000  Uiso   1.00
C726   C     0.84308   0.27782   0.74003   0.00000  Uiso   1.00
C727   C     0.79580   0.24468   0.98660   0.00000  Uiso   1.00
C728   C     0.85171   0.14773   0.62911   0.00000  Uiso   1.00
C729   C     0.81568   0.18527   0.87100   0.00000  Uiso   1.00
C730   C     0.84971   0.08251   0.52213   0.00000  Uiso   1.00
C731   C     0.85701   0.13763   0.58065   0.00000  Uiso   1.00
C732   C     0.80239   0.23593   0.93999   0.00000  Uiso   1.00
C733   C     0.89052   0.00943   0.71204   0.00000  Uiso   1.00
C734   C     0.77180   0.32730   0.78068   0.00000  Uiso   1.00
C735   C     0.80308   0.27065   0.91298   0.00000  Uiso   1.00
C736   C     0.78370   0.10185   0.90159   0.00000  Uiso   1.00
C737   C     0.80263   0.21613   0.51288   0.00000  Uiso   1.00
C738   C     0.81668   0.17794   0.99285   0.00000  Uiso   1.00
C739   C     0.81134   0.16446   0.94881   0.00000  Uiso   1.00
C740   C     0.83311   0.15167   0.51591   0.00000  Uiso   1.00
C741   C     0.83553   0.10955   0.99858   0.00000  Uiso   1.00
C742   C     0.82162   0.09450   0.95948   0.00000  Uiso   1.00
C743   C     0.80797   0.12112   0.93538   0.00000  Uiso   1.00
F744   F     0.86769   0.06850   0.58809   0.00000  Uiso   1.00
F745   F     0.98156   0.13037   0.79322   0.00000  Uiso   1.00
F746   F     0.81923   0.05326   0.94586   0.00000  Uiso   1.00
F747   F     0.85244   0.04210   0.50669   0.00000  Uiso   1.00
F748   F     0.85551   0.20689   0.56863   0.00000  Uiso   1.00
F749   F     0.79098   0.22452   0.55828   0.00000  Uiso   1.00
F750   F     0.78497   0.28213   0.50666   0.00000  Uiso   1.00
F751   F     0.68750   0.20168   0.70668   0.00000  Uiso   1.00
H752   H     0.94082   0.05453   0.70937   0.00000  Uiso   1.00
H753   H     0.71894   0.32896   0.83189   0.00000  Uiso   1.00
H754   H     0.77424   0.31831   0.90476   0.00000  Uiso   1.00
H755   H     0.73370   0.10244   0.87448   0.00000  Uiso   1.00
O756   O     0.83333   0.16667   0.75000   0.00000  Uiso   1.00
O757   O     0.82118   0.12637   0.65458   0.00000  Uiso   1.00
O758   O     0.79607   0.20391   0.84968   0.00000  Uiso   1.00
O759   O     0.87491   0.17759   0.64606   0.00000  Uiso   1.00
O760   O     0.84118   0.15880   0.84968   0.00000  Uiso   1.00
O761   O     0.90577   0.32803   0.67389   0.00000  Uiso   1.00
O762   O     0.91292   0.04414   0.73082   0.00000  Uiso   1.00
O763   O     0.75338   0.30089   0.75808   0.00000  Uiso   1.00
O764   O     0.74959   0.00956   0.82303   0.00000  Uiso   1.00
O765   O     0.83289   0.27801   0.88034   0.00000  Uiso   1.00
O766   O     0.77024   0.29574   0.92577   0.00000  Uiso   1.00
O767   O     0.84597   0.08019   0.78213   0.00000  Uiso   1.00
O768   O     0.79498   0.07142   0.87676   0.00000  Uiso   1.00
O769   O     0.74735   0.11810   0.89880   0.00000  Uiso   1.00
O770   O     0.81298   0.26085   0.77013   0.00000  Uiso   1.00
O771   O     0.74078   0.13291   0.73413   0.00000  Uiso   1.00
O772   O     0.93360   0.19272   0.71360   0.00000  Uiso   1.00
O773   O     0.73738   0.18878   0.78213   0.00000  Uiso   1.00
O774   O     0.92158   0.15226   0.77013   0.00000  Uiso   1.00
O775   O     0.80426   0.06944   0.73413   0.00000  Uiso   1.00
O776   O     0.87012   0.25620   0.71360   0.00000  Uiso   1.00
Zn777  Zn    0.86005   0.13994   0.78734   0.00000  Uiso   1.00
Zn778  Zn    0.80046   0.12458   0.71875   0.00000  Uiso   1.00
Zn779  Zn    0.87723   0.19775   0.70657   0.00000  Uiso   1.00
Zn780  Zn    0.79560   0.20439   0.78733   0.00000  Uiso   1.00
C781   C     0.05286   0.49290   0.75964   0.00000  Uiso   1.00
C782   C     0.18151   0.49927   0.55512   0.00000  Uiso   1.00
C783   C     0.19208   0.42952   0.56356   0.00000  Uiso   1.00
C784   C     0.28071   0.50715   0.74013   0.00000  Uiso   1.00
C785   C     0.14219   0.52826   0.92052   0.00000  Uiso   1.00
C786   C     0.32645   0.51040   0.73689   0.00000  Uiso   1.00
C787   C     0.00774   0.48955   0.76335   0.00000  Uiso   1.00
C788   C     0.18196   0.65619   0.73863   0.00000  Uiso   1.00
C789   C     0.15030   0.34524   0.76199   0.00000  Uiso   1.00
C790   C     0.15597   0.38931   0.75984   0.00000  Uiso   1.00
C791   C     0.17641   0.61115   0.74003   0.00000  Uiso   1.00
C792   C     0.12913   0.57802   0.98660   0.00000  Uiso   1.00
C793   C     0.18504   0.48106   0.62911   0.00000  Uiso   1.00
C794   C     0.14902   0.51860   0.87100   0.00000  Uiso   1.00
C795   C     0.18304   0.41585   0.52213   0.00000  Uiso   1.00
C796   C     0.19034   0.47097   0.58065   0.00000  Uiso   1.00
C797   C     0.13572   0.56926   0.93999   0.00000  Uiso   1.00
C798   C     0.22385   0.34276   0.71204   0.00000  Uiso   1.00
C799   C     0.10513   0.66064   0.78068   0.00000  Uiso   1.00
C800   C     0.13641   0.60398   0.91298   0.00000  Uiso   1.00
C801   C     0.11703   0.43518   0.90159   0.00000  Uiso   1.00
C802   C     0.13597   0.54947   0.51288   0.00000  Uiso   1.00
C803   C     0.15001   0.51127   0.99285   0.00000  Uiso   1.00
C804   C     0.14467   0.49780   0.94881   0.00000  Uiso   1.00
C805   C     0.16645   0.48500   0.51591   0.00000  Uiso   1.00
C806   C     0.16886   0.44288   0.99858   0.00000  Uiso   1.00
C807   C     0.15496   0.42783   0.95948   0.00000  Uiso   1.00
C808   C     0.14130   0.45446   0.93538   0.00000  Uiso   1.00
F809   F     0.20102   0.40183   0.58809   0.00000  Uiso   1.00
F810   F     0.31490   0.46371   0.79322   0.00000  Uiso   1.00
F811   F     0.15256   0.38659   0.94586   0.00000  Uiso   1.00
F812   F     0.18578   0.37544   0.50669   0.00000  Uiso   1.00
F813   F     0.18884   0.54022   0.56863   0.00000  Uiso   1.00
F814   F     0.12432   0.55786   0.55828   0.00000  Uiso   1.00
F815   F     0.11831   0.61546   0.50666   0.00000  Uiso   1.00
F816   F     0.02084   0.53501   0.70668   0.00000  Uiso   1.00
H817   H     0.27415   0.38786   0.70937   0.00000  Uiso   1.00
H818   H     0.05227   0.66230   0.83189   0.00000  Uiso   1.00
H819   H     0.10757   0.65165   0.90476   0.00000  Uiso   1.00
H820   H     0.06703   0.43578   0.87448   0.00000  Uiso   1.00
O821   O     0.16667   0.50000   0.75000   0.00000  Uiso   1.00
O822   O     0.15451   0.45970   0.65458   0.00000  Uiso   1.00
O823   O     0.12940   0.53724   0.84968   0.00000  Uiso   1.00
O824   O     0.20824   0.51092   0.64606   0.00000  Uiso   1.00
O825   O     0.17451   0.49213   0.84968   0.00000  Uiso   1.00
O826   O     0.23910   0.66136   0.67389   0.00000  Uiso   1.00
O827   O     0.24625   0.37747   0.73082   0.00000  Uiso   1.00
O828   O     0.08671   0.63422   0.75808   0.00000  Uiso   1.00
O829   O     0.08293   0.34290   0.82303   0.00000  Uiso   1.00
O830   O     0.16623   0.61135   0.88034   0.00000  Uiso   1.00
O831   O     0.10358   0.62907   0.92577   0.00000  Uiso   1.00
O832   O     0.17930   0.41352   0.78213   0.00000  Uiso   1.00
O833   O     0.12831   0.40476   0.87676   0.00000  Uiso   1.00
O834   O     0.08068   0.45143   0.89880   0.00000  Uiso   1.00
O835   O     0.14632   0.59418   0.77013   0.00000  Uiso   1.00
O836   O     0.07412   0.46625   0.73413   0.00000  Uiso   1.00
O837   O     0.26693   0.52605   0.71360   0.00000  Uiso   1.00
O838   O     0.07071   0.52211   0.78213   0.00000  Uiso   1.00
O839   O     0.25491   0.48559   0.77013   0.00000  Uiso   1.00
O840   O     0.13760   0.40277   0.73413   0.00000  Uiso   1.00
O841   O     0.20345   0.58953   0.71360   0.00000  Uiso   1.00
Zn842  Zn    0.19338   0.47327   0.78734   0.00000  Uiso   1.00
Zn843  Zn    0.13379   0.45791   0.71875   0.00000  Uiso   1.00
Zn844  Zn    0.21056   0.53109   0.70657   0.00000  Uiso   1.00
Zn845  Zn    0.12893   0.53773   0.78733   0.00000  Uiso   1.00
C846   C     0.38619   0.49290   0.75964   0.00000  Uiso   1.00
C847   C     0.51485   0.49927   0.55512   0.00000  Uiso   1.00
C848   C     0.52541   0.42952   0.56356   0.00000  Uiso   1.00
C849   C     0.61404   0.50715   0.74013   0.00000  Uiso   1.00
C850   C     0.47553   0.52826   0.92052   0.00000  Uiso   1.00
C851   C     0.65979   0.51040   0.73689   0.00000  Uiso   1.00
C852   C     0.34108   0.48955   0.76335   0.00000  Uiso   1.00
C853   C     0.51530   0.65619   0.73863   0.00000  Uiso   1.00
C854   C     0.48363   0.34524   0.76199   0.00000  Uiso   1.00
C855   C     0.48930   0.38931   0.75984   0.00000  Uiso   1.00
C856   C     0.50974   0.61115   0.74003   0.00000  Uiso   1.00
C857   C     0.46246   0.57802   0.98660   0.00000  Uiso   1.00
C858   C     0.51837   0.48106   0.62911   0.00000  Uiso   1.00
C859   C     0.48235   0.51860   0.87100   0.00000  Uiso   1.00
C860   C     0.51637   0.41585   0.52213   0.00000  Uiso   1.00
C861   C     0.52368   0.47097   0.58065   0.00000  Uiso   1.00
C862   C     0.46905   0.56926   0.93999   0.00000  Uiso   1.00
C863   C     0.55718   0.34276   0.71204   0.00000  Uiso   1.00
C864   C     0.43847   0.66064   0.78068   0.00000  Uiso   1.00
C865   C     0.46975   0.60398   0.91298   0.00000  Uiso   1.00
C866   C     0.45036   0.43518   0.90159   0.00000  Uiso   1.00
C867   C     0.46930   0.54947   0.51288   0.00000  Uiso   1.00
C868   C     0.48334   0.51127   0.99285   0.00000  Uiso   1.00
C869   C     0.47801   0.49780   0.94881   0.00000  Uiso   1.00
C870   C     0.49978   0.48500   0.51591   0.00000  Uiso   1.00
C871   C     0.50220   0.44288   0.99858   0.00000  Uiso   1.00
C872   C     0.48829   0.42783   0.95948   0.00000  Uiso   1.00
C873   C     0.47464   0.45446   0.93538   0.00000  Uiso   1.00
F874   F     0.53435   0.40183   0.58809   0.00000  Uiso   1.00
F875   F     0.64823   0.46371   0.79322   0.00000  Uiso   1.00
F876   F     0.48590   0.38659   0.94586   0.00000  Uiso   1.00
F877   F     0.51911   0.37544   0.50669   0.00000  Uiso   1.00
F878   F     0.52218   0.54022   0.56863   0.00000  Uiso   1.00
F879   F     0.45765   0.55786   0.55828   0.00000  Uiso   1.00
F880   F     0.45164   0.61546   0.50666   0.00000  Uiso   1.00
F881   F     0.35417   0.53501   0.70668   0.00000  Uiso   1.00
H882   H     0.60749   0.38786   0.70937   0.00000  Uiso   1.00
H883   H     0.38561   0.66230   0.83189   0.00000  Uiso   1.00
H884   H     0.44091   0.65165   0.90476   0.00000  Uiso   1.00
H885   H     0.40036   0.43578   0.87448   0.00000  Uiso   1.00
O886   O     0.50000   0.50000   0.75000   0.00000  Uiso   1.00
O887   O     0.48784   0.45970   0.65458   0.00000  Uiso   1.00
O888   O     0.46274   0.53724   0.84968   0.00000  Uiso   1.00
O889   O     0.54157   0.51092   0.64606   0.00000  Uiso   1.00
O890   O     0.50785   0.49213   0.84968   0.00000  Uiso   1.00
O891   O     0.57243   0.66136   0.67389   0.00000  Uiso   1.00
O892   O     0.57959   0.37747   0.73082   0.00000  Uiso   1.00
O893   O     0.42005   0.63422   0.75808   0.00000  Uiso   1.00
O894   O     0.41626   0.34290   0.82303   0.00000  Uiso   1.00
O895   O     0.49956   0.61135   0.88034   0.00000  Uiso   1.00
O896   O     0.43691   0.62907   0.92577   0.00000  Uiso   1.00
O897   O     0.51264   0.41352   0.78213   0.00000  Uiso   1.00
O898   O     0.46164   0.40476   0.87676   0.00000  Uiso   1.00
O899   O     0.41401   0.45143   0.89880   0.00000  Uiso   1.00
O900   O     0.47965   0.59418   0.77013   0.00000  Uiso   1.00
O901   O     0.40745   0.46625   0.73413   0.00000  Uiso   1.00
O902   O     0.60026   0.52605   0.71360   0.00000  Uiso   1.00
O903   O     0.40405   0.52211   0.78213   0.00000  Uiso   1.00
O904   O     0.58824   0.48559   0.77013   0.00000  Uiso   1.00
O905   O     0.47093   0.40277   0.73413   0.00000  Uiso   1.00
O906   O     0.53678   0.58953   0.71360   0.00000  Uiso   1.00
Zn907  Zn    0.52672   0.47327   0.78734   0.00000  Uiso   1.00
Zn908  Zn    0.46713   0.45791   0.71875   0.00000  Uiso   1.00
Zn909  Zn    0.54389   0.53109   0.70657   0.00000  Uiso   1.00
Zn910  Zn    0.46226   0.53773   0.78733   0.00000  Uiso   1.00
C911   C     0.71953   0.49290   0.75964   0.00000  Uiso   1.00
C912   C     0.84818   0.49927   0.55512   0.00000  Uiso   1.00
C913   C     0.85875   0.42952   0.56356   0.00000  Uiso   1.00
C914   C     0.94738   0.50715   0.74013   0.00000  Uiso   1.00
C915   C     0.80886   0.52826   0.92052   0.00000  Uiso   1.00
C916   C     0.99312   0.51040   0.73689   0.00000  Uiso   1.00
C917   C     0.67441   0.48955   0.76335   0.00000  Uiso   1.00
C918   C     0.84863   0.65619   0.73863   0.00000  Uiso   1.00
C919   C     0.81697   0.34524   0.76199   0.00000  Uiso   1.00
C920   C     0.82264   0.38931   0.75984   0.00000  Uiso   1.00
C921   C     0.84308   0.61115   0.74003   0.00000  Uiso   1.00
C922   C     0.79580   0.57802   0.98660   0.00000  Uiso   1.00
C923   C     0.85171   0.48106   0.62911   0.00000  Uiso   1.00
C924   C     0.81568   0.51860   0.87100   0.00000  Uiso   1.00
C925   C     0.84971   0.41585   0.52213   0.00000  Uiso   1.00
C926   C     0.85701   0.47097   0.58065   0.00000  Uiso   1.00
C927   C     0.80239   0.56926   0.93999   0.00000  Uiso   1.00
C928   C     0.89052   0.34276   0.71204   0.00000  Uiso   1.00
C929   C     0.77180   0.66064   0.78068   0.00000  Uiso   1.00
C930   C     0.80308   0.60398   0.91298   0.00000  Uiso   1.00
C931   C     0.78370   0.43518   0.90159   0.00000  Uiso   1.00
C932   C     0.80263   0.54947   0.51288   0.00000  Uiso   1.00
C933   C     0.81668   0.51127   0.99285   0.00000  Uiso   1.00
C934   C     0.81134   0.49780   0.94881   0.00000  Uiso   1.00
C935   C     0.83311   0.48500   0.51591   0.00000  Uiso   1.00
C936   C     0.83553   0.44288   0.99858   0.00000  Uiso   1.00
C937   C     0.82162   0.42783   0.95948   0.00000  Uiso   1.00
C938   C     0.80797   0.45446   0.93538   0.00000  Uiso   1.00
F939   F     0.86769   0.40183   0.58809   0.00000  Uiso   1.00
F940   F     0.98156   0.46371   0.79322   0.00000  Uiso   1.00
F941   F     0.81923   0.38659   0.94586   0.00000  Uiso   1.00
F942   F     0.85244   0.37544   0.50669   0.00000  Uiso   1.00
F943   F     0.85551   0.54022   0.56863   0.00000  Uiso   1.00
F944   F     0.79098   0.55786   0.55828   0.00000  Uiso   1.00
F945   F     0.78497   0.61546   0.50666   0.00000  Uiso   1.00
F946   F     0.68750   0.53501   0.70668   0.00000  Uiso   1.00
H947   H     0.94082   0.38786   0.70937   0.00000  Uiso   1.00
H948   H     0.71894   0.66230   0.83189   0.00000  Uiso   1.00
H949   H     0.77424   0.65165   0.90476   0.00000  Uiso   1.00
H950   H     0.73370   0.43578   0.87448   0.00000  Uiso   1.00
O951   O     0.83333   0.50000   0.75000   0.00000  Uiso   1.00
O952   O     0.82118   0.45970   0.65458   0.00000  Uiso   1.00
O953   O     0.79607   0.53724   0.84968   0.00000  Uiso   1.00
O954   O     0.87491   0.51092   0.64606   0.00000  Uiso   1.00
O955   O     0.84118   0.49213   0.84968   0.00000  Uiso   1.00
O956   O     0.90577   0.66136   0.67389   0.00000  Uiso   1.00
O957   O     0.91292   0.37747   0.73082   0.00000  Uiso   1.00
O958   O     0.75338   0.63422   0.75808   0.00000  Uiso   1.00
O959   O     0.74959   0.34290   0.82303   0.00000  Uiso   1.00
O960   O     0.83289   0.61135   0.88034   0.00000  Uiso   1.00
O961   O     0.77024   0.62907   0.92577   0.00000  Uiso   1.00
O962   O     0.84597   0.41352   0.78213   0.00000  Uiso   1.00
O963   O     0.79498   0.40476   0.87676   0.00000  Uiso   1.00
O964   O     0.74735   0.45143   0.89880   0.00000  Uiso   1.00
O965   O     0.81298   0.59418   0.77013   0.00000  Uiso   1.00
O966   O     0.74078   0.46625   0.73413   0.00000  Uiso   1.00
O967   O     0.93360   0.52605   0.71360   0.00000  Uiso   1.00
O968   O     0.73738   0.52211   0.78213   0.00000  Uiso   1.00
O969   O     0.92158   0.48559   0.77013   0.00000  Uiso   1.00
O970   O     0.80426   0.40277   0.73413   0.00000  Uiso   1.00
O971   O     0.87012   0.58953   0.71360   0.00000  Uiso   1.00
Zn972  Zn    0.86005   0.47327   0.78734   0.00000  Uiso   1.00
Zn973  Zn    0.80046   0.45791   0.71875   0.00000  Uiso   1.00
Zn974  Zn    0.87723   0.53109   0.70657   0.00000  Uiso   1.00
Zn975  Zn    0.79560   0.53773   0.78733   0.00000  Uiso   1.00
C976   C     0.05286   0.82623   0.75964   0.00000  Uiso   1.00
C977   C     0.18151   0.83260   0.55512   0.00000  Uiso   1.00
C978   C     0.19208   0.76285   0.56356   0.00000  Uiso   1.00
C979   C     0.28071   0.84048   0.74013   0.00000  Uiso   1.00
C980   C     0.14219   0.86159   0.92052   0.00000  Uiso   1.00
C981   C     0.32645   0.84373   0.73689   0.00000  Uiso   1.00
C982   C     0.00774   0.82288   0.76335   0.00000  Uiso   1.00
C983   C     0.18196   0.98952   0.73863   0.00000  Uiso   1.00
C984   C     0.15030   0.67857   0.76199   0.00000  Uiso   1.00
C985   C     0.15597   0.72264   0.75984   0.00000  Uiso   1.00
C986   C     0.17641   0.94449   0.74003   0.00000  Uiso   1.00
C987   C     0.12913   0.91135   0.98660   0.00000  Uiso   1.00
C988   C     0.18504   0.81439   0.62911   0.00000  Uiso   1.00
C989   C     0.14902   0.85194   0.87100   0.00000  Uiso   1.00
C990   C     0.18304   0.74918   0.52213   0.00000  Uiso   1.00
C991   C     0.19034   0.80430   0.58065   0.00000  Uiso   1.00
C992   C     0.13572   0.90260   0.93999   0.00000  Uiso   1.00
C993   C     0.22385   0.67610   0.71204   0.00000  Uiso   1.00
C994   C     0.10513   0.99397   0.78068   0.00000  Uiso   1.00
C995   C     0.13641   0.93732   0.91298   0.00000  Uiso   1.00
C996   C     0.11703   0.76852   0.90159   0.00000  Uiso   1.00
C997   C     0.13597   0.88280   0.51288   0.00000  Uiso   1.00
C998   C     0.15001   0.84461   0.99285   0.00000  Uiso   1.00
C999   C     0.14467   0.83113   0.94881   0.00000  Uiso   1.00
C1000  C     0.16645   0.81834   0.51591   0.00000  Uiso   1.00
C1001  C     0.16886   0.77621   0.99858   0.00000  Uiso   1.00
C1002  C     0.15496   0.76116   0.95948   0.00000  Uiso   1.00
C1003  C     0.14130   0.78779   0.93538   0.00000  Uiso   1.00
F1004  F     0.20102   0.73517   0.58809   0.00000  Uiso   1.00
F1005  F     0.31490   0.79704   0.79322   0.00000  Uiso   1.00
F1006  F     0.15256   0.71992   0.94586   0.00000  Uiso   1.00
F1007  F     0.18578   0.70877   0.50669   0.00000  Uiso   1.00
F1008  F     0.18884   0.87355   0.56863   0.00000  Uiso   1.00
F1009  F     0.12432   0.89119   0.55828   0.00000  Uiso   1.00
F1010  F     0.11831   0.94880   0.50666   0.00000  Uiso   1.00
F1011  F     0.02084   0.86834   0.70668   0.00000  Uiso   1.00
H1012  H     0.27415   0.72120   0.70937   0.00000  Uiso   1.00
H1013  H     0.05227   0.99563   0.83189   0.00000  Uiso   1.00
H1014  H     0.10757   0.98498   0.90476   0.00000  Uiso   1.00
H1015  H     0.06703   0.76911   0.87448   0.00000  Uiso   1.00
O1016  O     0.16667   0.83333   0.75000   0.00000  Uiso   1.00
O1017  O     0.15451   0.79304   0.65458   0.00000  Uiso   1.00
O1018  O     0.12940   0.87058   0.84968   0.00000  Uiso   1.00
O1019  O     0.20824   0.84425   0.64606   0.00000  Uiso   1.00
O1020  O     0.17451   0.82546   0.84968   0.00000  Uiso   1.00
O1021  O     0.23910   0.99470   0.67389   0.00000  Uiso   1.00
O1022  O     0.24625   0.71080   0.73082   0.00000  Uiso   1.00
O1023  O     0.08671   0.96755   0.75808   0.00000  Uiso   1.00
O1024  O     0.08293   0.67623   0.82303   0.00000  Uiso   1.00
O1025  O     0.16623   0.94468   0.88034   0.00000  Uiso   1.00
O1026  O     0.10358   0.96240   0.92577   0.00000  Uiso   1.00
O1027  O     0.17930   0.74686   0.78213   0.00000  Uiso   1.00
O1028  O     0.12831   0.73809   0.87676   0.00000  Uiso   1.00
O1029  O     0.08068   0.78476   0.89880   0.00000  Uiso   1.00
O1030  O     0.14632   0.92751   0.77013   0.00000  Uiso   1.00
O1031  O     0.07412   0.79958   0.73413   0.00000  Uiso   1.00
O1032  O     0.26693   0.85939   0.71360   0.00000  Uiso   1.00
O1033  O     0.07071   0.85544   0.78213   0.00000  Uiso   1.00
O1034  O     0.25491   0.81892   0.77013   0.00000  Uiso   1.00
O1035  O     0.13760   0.73610   0.73413   0.00000  Uiso   1.00
O1036  O     0.20345   0.92286   0.71360   0.00000  Uiso   1.00
Zn1037 Zn    0.19338   0.80661   0.78734   0.00000  Uiso   1.00
Zn1038 Zn    0.13379   0.79124   0.71875   0.00000  Uiso   1.00
Zn1039 Zn    0.21056   0.86442   0.70657   0.00000  Uiso   1.00
Zn1040 Zn    0.12893   0.87106   0.78733   0.00000  Uiso   1.00
C1041  C     0.38619   0.82623   0.75964   0.00000  Uiso   1.00
C1042  C     0.51485   0.83260   0.55512   0.00000  Uiso   1.00
C1043  C     0.52541   0.76285   0.56356   0.00000  Uiso   1.00
C1044  C     0.61404   0.84048   0.74013   0.00000  Uiso   1.00
C1045  C     0.47553   0.86159   0.92052   0.00000  Uiso   1.00
C1046  C     0.65979   0.84373   0.73689   0.00000  Uiso   1.00
C1047  C     0.34108   0.82288   0.76335   0.00000  Uiso   1.00
C1048  C     0.51530   0.98952   0.73863   0.00000  Uiso   1.00
C1049  C     0.48363   0.67857   0.76199   0.00000  Uiso   1.00
C1050  C     0.48930   0.72264   0.75984   0.00000  Uiso   1.00
C1051  C     0.50974   0.94449   0.74003   0.00000  Uiso   1.00
C1052  C     0.46246   0.91135   0.98660   0.00000  Uiso   1.00
C1053  C     0.51837   0.81439   0.62911   0.00000  Uiso   1.00
C1054  C     0.48235   0.85194   0.87100   0.00000  Uiso   1.00
C1055  C     0.51637   0.74918   0.52213   0.00000  Uiso   1.00
C1056  C     0.52368   0.80430   0.58065   0.00000  Uiso   1.00
C1057  C     0.46905   0.90260   0.93999   0.00000  Uiso   1.00
C1058  C     0.55718   0.67610   0.71204   0.00000  Uiso   1.00
C1059  C     0.43847   0.99397   0.78068   0.00000  Uiso   1.00
C1060  C     0.46975   0.93732   0.91298   0.00000  Uiso   1.00
C1061  C     0.45036   0.76852   0.90159   0.00000  Uiso   1.00
C1062  C     0.46930   0.88280   0.51288   0.00000  Uiso   1.00
C1063  C     0.48334   0.84461   0.99285   0.00000  Uiso   1.00
C1064  C     0.47801   0.83113   0.94881   0.00000  Uiso   1.00
C1065  C     0.49978   0.81834   0.51591   0.00000  Uiso   1.00
C1066  C     0.50220   0.77621   0.99858   0.00000  Uiso   1.00
C1067  C     0.48829   0.76116   0.95948   0.00000  Uiso   1.00
C1068  C     0.47464   0.78779   0.93538   0.00000  Uiso   1.00
F1069  F     0.53435   0.73517   0.58809   0.00000  Uiso   1.00
F1070  F     0.64823   0.79704   0.79322   0.00000  Uiso   1.00
F1071  F     0.48590   0.71992   0.94586   0.00000  Uiso   1.00
F1072  F     0.51911   0.70877   0.50669   0.00000  Uiso   1.00
F1073  F     0.52218   0.87355   0.56863   0.00000  Uiso   1.00
F1074  F     0.45765   0.89119   0.55828   0.00000  Uiso   1.00
F1075  F     0.45164   0.94880   0.50666   0.00000  Uiso   1.00
F1076  F     0.35417   0.86834   0.70668   0.00000  Uiso   1.00
H1077  H     0.60749   0.72120   0.70937   0.00000  Uiso   1.00
H1078  H     0.38561   0.99563   0.83189   0.00000  Uiso   1.00
H1079  H     0.44091   0.98498   0.90476   0.00000  Uiso   1.00
H1080  H     0.40036   0.76911   0.87448   0.00000  Uiso   1.00
O1081  O     0.50000   0.83333   0.75000   0.00000  Uiso   1.00
O1082  O     0.48784   0.79304   0.65458   0.00000  Uiso   1.00
O1083  O     0.46274   0.87058   0.84968   0.00000  Uiso   1.00
O1084  O     0.54157   0.84425   0.64606   0.00000  Uiso   1.00
O1085  O     0.50785   0.82546   0.84968   0.00000  Uiso   1.00
O1086  O     0.57243   0.99470   0.67389   0.00000  Uiso   1.00
O1087  O     0.57959   0.71080   0.73082   0.00000  Uiso   1.00
O1088  O     0.42005   0.96755   0.75808   0.00000  Uiso   1.00
O1089  O     0.41626   0.67623   0.82303   0.00000  Uiso   1.00
O1090  O     0.49956   0.94468   0.88034   0.00000  Uiso   1.00
O1091  O     0.43691   0.96240   0.92577   0.00000  Uiso   1.00
O1092  O     0.51264   0.74686   0.78213   0.00000  Uiso   1.00
O1093  O     0.46164   0.73809   0.87676   0.00000  Uiso   1.00
O1094  O     0.41401   0.78476   0.89880   0.00000  Uiso   1.00
O1095  O     0.47965   0.92751   0.77013   0.00000  Uiso   1.00
O1096  O     0.40745   0.79958   0.73413   0.00000  Uiso   1.00
O1097  O     0.60026   0.85939   0.71360   0.00000  Uiso   1.00
O1098  O     0.40405   0.85544   0.78213   0.00000  Uiso   1.00
O1099  O     0.58824   0.81892   0.77013   0.00000  Uiso   1.00
O1100  O     0.47093   0.73610   0.73413   0.00000  Uiso   1.00
O1101  O     0.53678   0.92286   0.71360   0.00000  Uiso   1.00
Zn1102 Zn    0.52672   0.80661   0.78734   0.00000  Uiso   1.00
Zn1103 Zn    0.46713   0.79124   0.71875   0.00000  Uiso   1.00
Zn1104 Zn    0.54389   0.86442   0.70657   0.00000  Uiso   1.00
Zn1105 Zn    0.46226   0.87106   0.78733   0.00000  Uiso   1.00
C1106  C     0.71953   0.82623   0.75964   0.00000  Uiso   1.00
C1107  C     0.84818   0.83260   0.55512   0.00000  Uiso   1.00
C1108  C     0.85875   0.76285   0.56356   0.00000  Uiso   1.00
C1109  C     0.94738   0.84048   0.74013   0.00000  Uiso   1.00
C1110  C     0.80886   0.86159   0.92052   0.00000  Uiso   1.00
C1111  C     0.99312   0.84373   0.73689   0.00000  Uiso   1.00
C1112  C     0.67441   0.82288   0.76335   0.00000  Uiso   1.00
C1113  C     0.84863   0.98952   0.73863   0.00000  Uiso   1.00
C1114  C     0.81697   0.67857   0.76199   0.00000  Uiso   1.00
C1115  C     0.82264   0.72264   0.75984   0.00000  Uiso   1.00
C1116  C     0.84308   0.94449   0.74003   0.00000  Uiso   1.00
C1117  C     0.79580   0.91135   0.98660   0.00000  Uiso   1.00
C1118  C     0.85171   0.81439   0.62911   0.00000  Uiso   1.00
C1119  C     0.81568   0.85194   0.87100   0.00000  Uiso   1.00
C1120  C     0.84971   0.74918   0.52213   0.00000  Uiso   1.00
C1121  C     0.85701   0.80430   0.58065   0.00000  Uiso   1.00
C1122  C     0.80239   0.90260   0.93999   0.00000  Uiso   1.00
C1123  C     0.89052   0.67610   0.71204   0.00000  Uiso   1.00
C1124  C     0.77180   0.99397   0.78068   0.00000  Uiso   1.00
C1125  C     0.80308   0.93732   0.91298   0.00000  Uiso   1.00
C1126  C     0.78370   0.76852   0.90159   0.00000  Uiso   1.00
C1127  C     0.80263   0.88280   0.51288   0.00000  Uiso   1.00
C1128  C     0.81668   0.84461   0.99285   0.00000  Uiso   1.00
C1129  C     0.81134   0.83113   0.94881   0.00000  Uiso   1.00
C1130  C     0.83311   0.81834   0.51591   0.00000  Uiso   1.00
C1131  C     0.83553   0.77621   0.99858   0.00000  Uiso   1.00
C1132  C     0.82162   0.76116   0.95948   0.00000  Uiso   1.00
C1133  C     0.80797   0.78779   0.93538   0.00000  Uiso   1.00
F1134  F     0.86769   0.73517   0.58809   0.00000  Uiso   1.00
F1135  F     0.98156   0.79704   0.79322   0.00000  Uiso   1.00
F1136  F     0.81923   0.71992   0.94586   0.00000  Uiso   1.00
F1137  F     0.85244   0.70877   0.50669   0.00000  Uiso   1.00
F1138  F     0.85551   0.87355   0.56863   0.00000  Uiso   1.00
F1139  F     0.79098   0.89119   0.55828   0.00000  Uiso   1.00
F1140  F     0.78497   0.94880   0.50666   0.00000  Uiso   1.00
F1141  F     0.68750   0.86834   0.70668   0.00000  Uiso   1.00
H1142  H     0.94082   0.72120   0.70937   0.00000  Uiso   1.00
H1143  H     0.71894   0.99563   0.83189   0.00000  Uiso   1.00
H1144  H     0.77424   0.98498   0.90476   0.00000  Uiso   1.00
H1145  H     0.73370   0.76911   0.87448   0.00000  Uiso   1.00
O1146  O     0.83333   0.83333   0.75000   0.00000  Uiso   1.00
O1147  O     0.82118   0.79304   0.65458   0.00000  Uiso   1.00
O1148  O     0.79607   0.87058   0.84968   0.00000  Uiso   1.00
O1149  O     0.87491   0.84425   0.64606   0.00000  Uiso   1.00
O1150  O     0.84118   0.82546   0.84968   0.00000  Uiso   1.00
O1151  O     0.90577   0.99470   0.67389   0.00000  Uiso   1.00
O1152  O     0.91292   0.71080   0.73082   0.00000  Uiso   1.00
O1153  O     0.75338   0.96755   0.75808   0.00000  Uiso   1.00
O1154  O     0.74959   0.67623   0.82303   0.00000  Uiso   1.00
O1155  O     0.83289   0.94468   0.88034   0.00000  Uiso   1.00
O1156  O     0.77024   0.96240   0.92577   0.00000  Uiso   1.00
O1157  O     0.84597   0.74686   0.78213   0.00000  Uiso   1.00
O1158  O     0.79498   0.73809   0.87676   0.00000  Uiso   1.00
O1159  O     0.74735   0.78476   0.89880   0.00000  Uiso   1.00
O1160  O     0.81298   0.92751   0.77013   0.00000  Uiso   1.00
O1161  O     0.74078   0.79958   0.73413   0.00000  Uiso   1.00
O1162  O     0.93360   0.85939   0.71360   0.00000  Uiso   1.00
O1163  O     0.73738   0.85544   0.78213   0.00000  Uiso   1.00
O1164  O     0.92158   0.81892   0.77013   0.00000  Uiso   1.00
O1165  O     0.80426   0.73610   0.73413   0.00000  Uiso   1.00
O1166  O     0.87012   0.92286   0.71360   0.00000  Uiso   1.00
Zn1167 Zn    0.86005   0.80661   0.78734   0.00000  Uiso   1.00
Zn1168 Zn    0.80046   0.79124   0.71875   0.00000  Uiso   1.00
Zn1169 Zn    0.87723   0.86442   0.70657   0.00000  Uiso   1.00
Zn1170 Zn    0.79560   0.87106   0.78733   0.00000  Uiso   1.00
loop_
_geom_bond_atom_site_label_1
_geom_bond_atom_site_label_2
_geom_bond_distance
_geom_bond_site_symmetry_2
_ccdc_geom_bond_type
C1     O58     1.266   .     A
C1     O56     1.264   .     A
C1     C7      1.433   .     S
C2     C16     1.394   .     A
C2     F33     1.357   .     S
C2     C25     1.419   .     A
C3     C15     1.389   .     A
C3     F29     1.359   .     S
C3     C16     1.398   .     A
C4     O57     1.287   .     A
C4     O59     1.279   .     A
C4     C6      1.456   .     S
C5     C14     1.485   .     S
C5     C24     1.428   .     A
C5     C17     1.426   .     A
C6     C72     1.342   .     S
C6     F101    1.362   .     S
C7     C136    1.342   1_455 S
C7     F160    1.361   1_455 S
C8     C11     1.462   .     S
C8     C204    1.358   .     S
C8     C213    1.495   .     S
C9     C10     1.434   .     S
C9     C398    1.358   1_545 S
C9     C409    1.489   1_545 S
C10    O60     1.263   .     A
C10    O52     1.275   .     A
C11    O61     1.275   .     A
C11    O55     1.272   .     A
C12    C17     1.397   .     A
C12    C607    1.388   .     S
C12    F620    1.359   .     S
C13    O42     1.269   .     A
C13    O44     1.283   .     A
C13    C16     1.461   .     S
C14    O43     1.285   .     A
C14    O45     1.295   .     A
C15    F32     1.359   .     S
C15    C611    1.409   1_554 S
C17    C20     1.485   .     S
C18    O47     1.398   .     S
C18    C398    1.495   1_545 S
C18    O436    1.223   1_545 S
C19    O48     1.224   .     D
C19    C204    1.489   .     S
C19    O244    1.397   .     S
C20    O51     1.398   .     S
C20    O50     1.223   .     D
C21    O53     1.223   .     D
C21    C28     1.488   .     S
C21    O54     1.399   .     S
C22    F34     1.357   .     S
C22    C597    1.388   1_554 S
C22    C608    1.414   1_554 S
C23    C24     1.420   .     A
C23    C607    1.414   .     S
C23    C610    1.423   .     S
C24    C28     1.424   .     A
C25    C608    1.423   1_554 S
C25    C611    1.423   1_554 S
C26    C27     1.402   .     A
C26    C610    1.423   .     S
C26    C600    1.409   .     S
C27    F31     1.360   .     S
C27    C28     1.401   .     A
F30    C72     1.361   .     S
F35    C597    1.359   1_554 S
F36    C136    1.362   1_455 S
H37    O47     1.014   .     S
H38    O244    1.014   .     S
H39    O51     1.014   .     S
H40    O54     1.014   .     S
O41    Zn62    1.964   .     S
O41    Zn65    1.939   .     S
O41    Zn63    1.928   .     S
O41    Zn64    1.941   .     S
O42    Zn63    1.923   .     S
O43    Zn65    1.928   .     S
O44    Zn64    1.916   .     S
O45    Zn62    1.915   .     S
O46    C213    1.223   .     S
O49    H428    1.014   1_545 S
O49    C409    1.397   1_545 S
O52    Zn62    1.935   .     S
O55    Zn65    1.944   .     S
O56    Zn63    1.934   .     S
O57    Zn64    1.939   .     S
O58    Zn65    1.929   .     S
O59    Zn62    1.927   .     S
O60    Zn63    1.953   .     S
O61    Zn64    1.943   .     S
C66    O123    1.266   .     A
C66    O121    1.264   .     A
C66    C72     1.433   .     S
C67    C81     1.394   .     A
C67    F98     1.357   .     S
C67    C90     1.419   .     A
C68    C80     1.389   .     A
C68    F94     1.359   .     S
C68    C81     1.398   .     A
C69    O122    1.287   .     A
C69    O124    1.279   .     A
C69    C71     1.456   .     S
C70    C79     1.485   .     S
C70    C89     1.428   .     A
C70    C82     1.426   .     A
C71    C137    1.342   .     S
C71    F166    1.362   .     S
C73    C76     1.462   .     S
C73    C269    1.358   .     S
C73    C278    1.495   .     S
C74    C75     1.434   .     S
C74    C463    1.358   1_545 S
C74    C474    1.489   1_545 S
C75    O125    1.263   .     A
C75    O117    1.275   .     A
C76    O126    1.275   .     A
C76    O120    1.272   .     A
C77    C82     1.397   .     A
C77    C672    1.388   .     S
C77    F685    1.359   .     S
C78    O107    1.269   .     A
C78    O109    1.283   .     A
C78    C81     1.461   .     S
C79    O108    1.285   .     A
C79    O110    1.295   .     A
C80    F97     1.359   .     S
C80    C676    1.409   1_554 S
C82    C85     1.485   .     S
C83    O112    1.398   .     S
C83    C463    1.495   1_545 S
C83    O501    1.223   1_545 S
C84    O113    1.224   .     D
C84    C269    1.489   .     S
C84    O309    1.397   .     S
C85    O116    1.398   .     S
C85    O115    1.223   .     D
C86    O118    1.223   .     D
C86    C93     1.488   .     S
C86    O119    1.399   .     S
C87    F99     1.357   .     S
C87    C662    1.388   1_554 S
C87    C673    1.414   1_554 S
C88    C89     1.420   .     A
C88    C672    1.414   .     S
C88    C675    1.423   .     S
C89    C93     1.424   .     A
C90    C673    1.423   1_554 S
C90    C676    1.423   1_554 S
C91    C92     1.402   .     A
C91    C675    1.423   .     S
C91    C665    1.409   .     S
C92    F96     1.360   .     S
C92    C93     1.401   .     A
F95    C137    1.361   .     S
F100   C662    1.359   1_554 S
H102   O112    1.014   .     S
H103   O309    1.014   .     S
H104   O116    1.014   .     S
H105   O119    1.014   .     S
O106   Zn127   1.964   .     S
O106   Zn130   1.939   .     S
O106   Zn128   1.928   .     S
O106   Zn129   1.941   .     S
O107   Zn128   1.923   .     S
O108   Zn130   1.928   .     S
O109   Zn129   1.916   .     S
O110   Zn127   1.915   .     S
O111   C278    1.223   .     S
O114   H493    1.014   1_545 S
O114   C474    1.397   1_545 S
O117   Zn127   1.935   .     S
O120   Zn130   1.944   .     S
O121   Zn128   1.934   .     S
O122   Zn129   1.939   .     S
O123   Zn130   1.929   .     S
O124   Zn127   1.927   .     S
O125   Zn128   1.953   .     S
O126   Zn129   1.943   .     S
C131   O188    1.266   .     A
C131   O186    1.264   .     A
C131   C137    1.433   .     S
C132   C146    1.394   .     A
C132   F163    1.357   .     S
C132   C155    1.419   .     A
C133   C145    1.389   .     A
C133   F159    1.359   .     S
C133   C146    1.398   .     A
C134   O187    1.287   .     A
C134   O189    1.279   .     A
C134   C136    1.456   .     S
C135   C144    1.485   .     S
C135   C154    1.428   .     A
C135   C147    1.426   .     A
C136   C7      1.342   1_655 S
C136   F36     1.362   1_655 S
C138   C141    1.462   .     S
C138   C334    1.358   .     S
C138   C343    1.495   .     S
C139   C140    1.434   .     S
C139   C528    1.358   1_545 S
C139   C539    1.489   1_545 S
C140   O190    1.263   .     A
C140   O182    1.275   .     A
C141   O191    1.275   .     A
C141   O185    1.272   .     A
C142   C147    1.397   .     A
C142   C737    1.388   .     S
C142   F750    1.359   .     S
C143   O172    1.269   .     A
C143   O174    1.283   .     A
C143   C146    1.461   .     S
C144   O173    1.285   .     A
C144   O175    1.295   .     A
C145   F162    1.359   .     S
C145   C741    1.409   1_554 S
C147   C150    1.485   .     S
C148   O177    1.398   .     S
C148   C528    1.495   1_545 S
C148   O566    1.223   1_545 S
C149   O178    1.224   .     D
C149   C334    1.489   .     S
C149   O374    1.397   .     S
C150   O181    1.398   .     S
C150   O180    1.223   .     D
C151   O183    1.223   .     D
C151   C158    1.488   .     S
C151   O184    1.399   .     S
C152   F164    1.357   .     S
C152   C727    1.388   1_554 S
C152   C738    1.414   1_554 S
C153   C154    1.420   .     A
C153   C737    1.414   .     S
C153   C740    1.423   .     S
C154   C158    1.424   .     A
C155   C738    1.423   1_554 S
C155   C741    1.423   1_554 S
C156   C157    1.402   .     A
C156   C740    1.423   .     S
C156   C730    1.409   .     S
C157   F161    1.360   .     S
C157   C158    1.401   .     A
F160   C7      1.361   1_655 S
F165   C727    1.359   1_554 S
H167   O177    1.014   .     S
H168   O374    1.014   .     S
H169   O181    1.014   .     S
H170   O184    1.014   .     S
O171   Zn192   1.964   .     S
O171   Zn195   1.939   .     S
O171   Zn193   1.928   .     S
O171   Zn194   1.941   .     S
O172   Zn193   1.923   .     S
O173   Zn195   1.928   .     S
O174   Zn194   1.916   .     S
O175   Zn192   1.915   .     S
O176   C343    1.223   .     S
O179   H558    1.014   1_545 S
O179   C539    1.397   1_545 S
O182   Zn192   1.935   .     S
O185   Zn195   1.944   .     S
O186   Zn193   1.934   .     S
O187   Zn194   1.939   .     S
O188   Zn195   1.929   .     S
O189   Zn192   1.927   .     S
O190   Zn193   1.953   .     S
O191   Zn194   1.943   .     S
C196   O253    1.266   .     A
C196   O251    1.264   .     A
C196   C202    1.433   .     S
C197   C211    1.394   .     A
C197   F228    1.357   .     S
C197   C220    1.419   .     A
C198   C210    1.389   .     A
C198   F224    1.359   .     S
C198   C211    1.398   .     A
C199   O252    1.287   .     A
C199   O254    1.279   .     A
C199   C201    1.456   .     S
C200   C209    1.485   .     S
C200   C219    1.428   .     A
C200   C212    1.426   .     A
C201   C267    1.342   .     S
C201   F296    1.362   .     S
C202   C331    1.342   1_455 S
C202   F355    1.361   1_455 S
C203   C206    1.462   .     S
C203   C399    1.358   .     S
C203   C408    1.495   .     S
C204   C205    1.434   .     S
C205   O255    1.263   .     A
C205   O247    1.275   .     A
C206   O256    1.275   .     A
C206   O250    1.272   .     A
C207   C212    1.397   .     A
C207   C802    1.388   .     S
C207   F815    1.359   .     S
C208   O237    1.269   .     A
C208   O239    1.283   .     A
C208   C211    1.461   .     S
C209   O238    1.285   .     A
C209   O240    1.295   .     A
C210   F227    1.359   .     S
C210   C806    1.409   1_554 S
C212   C215    1.485   .     S
C213   O242    1.398   .     S
C214   O243    1.224   .     D
C214   C399    1.489   .     S
C214   O439    1.397   .     S
C215   O246    1.398   .     S
C215   O245    1.223   .     D
C216   O248    1.223   .     D
C216   C223    1.488   .     S
C216   O249    1.399   .     S
C217   F229    1.357   .     S
C217   C792    1.388   1_554 S
C217   C803    1.414   1_554 S
C218   C219    1.420   .     A
C218   C802    1.414   .     S
C218   C805    1.423   .     S
C219   C223    1.424   .     A
C220   C803    1.423   1_554 S
C220   C806    1.423   1_554 S
C221   C222    1.402   .     A
C221   C805    1.423   .     S
C221   C795    1.409   .     S
C222   F226    1.360   .     S
C222   C223    1.401   .     A
F225   C267    1.361   .     S
F230   C792    1.359   1_554 S
F231   C331    1.362   1_455 S
H232   O242    1.014   .     S
H233   O439    1.014   .     S
H234   O246    1.014   .     S
H235   O249    1.014   .     S
O236   Zn257   1.964   .     S
O236   Zn260   1.939   .     S
O236   Zn258   1.928   .     S
O236   Zn259   1.941   .     S
O237   Zn258   1.923   .     S
O238   Zn260   1.928   .     S
O239   Zn259   1.916   .     S
O240   Zn257   1.915   .     S
O241   C408    1.223   .     S
O247   Zn257   1.935   .     S
O250   Zn260   1.944   .     S
O251   Zn258   1.934   .     S
O252   Zn259   1.939   .     S
O253   Zn260   1.929   .     S
O254   Zn257   1.927   .     S
O255   Zn258   1.953   .     S
O256   Zn259   1.943   .     S
C261   O318    1.266   .     A
C261   O316    1.264   .     A
C261   C267    1.433   .     S
C262   C276    1.394   .     A
C262   F293    1.357   .     S
C262   C285    1.419   .     A
C263   C275    1.389   .     A
C263   F289    1.359   .     S
C263   C276    1.398   .     A
C264   O317    1.287   .     A
C264   O319    1.279   .     A
C264   C266    1.456   .     S
C265   C274    1.485   .     S
C265   C284    1.428   .     A
C265   C277    1.426   .     A
C266   C332    1.342   .     S
C266   F361    1.362   .     S
C268   C271    1.462   .     S
C268   C464    1.358   .     S
C268   C473    1.495   .     S
C269   C270    1.434   .     S
C270   O320    1.263   .     A
C270   O312    1.275   .     A
C271   O321    1.275   .     A
C271   O315    1.272   .     A
C272   C277    1.397   .     A
C272   C867    1.388   .     S
C272   F880    1.359   .     S
C273   O302    1.269   .     A
C273   O304    1.283   .     A
C273   C276    1.461   .     S
C274   O303    1.285   .     A
C274   O305    1.295   .     A
C275   F292    1.359   .     S
C275   C871    1.409   1_554 S
C277   C280    1.485   .     S
C278   O307    1.398   .     S
C279   O308    1.224   .     D
C279   C464    1.489   .     S
C279   O504    1.397   .     S
C280   O311    1.398   .     S
C280   O310    1.223   .     D
C281   O313    1.223   .     D
C281   C288    1.488   .     S
C281   O314    1.399   .     S
C282   F294    1.357   .     S
C282   C857    1.388   1_554 S
C282   C868    1.414   1_554 S
C283   C284    1.420   .     A
C283   C867    1.414   .     S
C283   C870    1.423   .     S
C284   C288    1.424   .     A
C285   C868    1.423   1_554 S
C285   C871    1.423   1_554 S
C286   C287    1.402   .     A
C286   C870    1.423   .     S
C286   C860    1.409   .     S
C287   F291    1.360   .     S
C287   C288    1.401   .     A
F290   C332    1.361   .     S
F295   C857    1.359   1_554 S
H297   O307    1.014   .     S
H298   O504    1.014   .     S
H299   O311    1.014   .     S
H300   O314    1.014   .     S
O301   Zn322   1.964   .     S
O301   Zn325   1.939   .     S
O301   Zn323   1.928   .     S
O301   Zn324   1.941   .     S
O302   Zn323   1.923   .     S
O303   Zn325   1.928   .     S
O304   Zn324   1.916   .     S
O305   Zn322   1.915   .     S
O306   C473    1.223   .     S
O312   Zn322   1.935   .     S
O315   Zn325   1.944   .     S
O316   Zn323   1.934   .     S
O317   Zn324   1.939   .     S
O318   Zn325   1.929   .     S
O319   Zn322   1.927   .     S
O320   Zn323   1.953   .     S
O321   Zn324   1.943   .     S
C326   O383    1.266   .     A
C326   O381    1.264   .     A
C326   C332    1.433   .     S
C327   C341    1.394   .     A
C327   F358    1.357   .     S
C327   C350    1.419   .     A
C328   C340    1.389   .     A
C328   F354    1.359   .     S
C328   C341    1.398   .     A
C329   O382    1.287   .     A
C329   O384    1.279   .     A
C329   C331    1.456   .     S
C330   C339    1.485   .     S
C330   C349    1.428   .     A
C330   C342    1.426   .     A
C331   C202    1.342   1_655 S
C331   F231    1.362   1_655 S
C333   C336    1.462   .     S
C333   C529    1.358   .     S
C333   C538    1.495   .     S
C334   C335    1.434   .     S
C335   O385    1.263   .     A
C335   O377    1.275   .     A
C336   O386    1.275   .     A
C336   O380    1.272   .     A
C337   C342    1.397   .     A
C337   C932    1.388   .     S
C337   F945    1.359   .     S
C338   O367    1.269   .     A
C338   O369    1.283   .     A
C338   C341    1.461   .     S
C339   O368    1.285   .     A
C339   O370    1.295   .     A
C340   F357    1.359   .     S
C340   C936    1.409   1_554 S
C342   C345    1.485   .     S
C343   O372    1.398   .     S
C344   O373    1.224   .     D
C344   C529    1.489   .     S
C344   O569    1.397   .     S
C345   O376    1.398   .     S
C345   O375    1.223   .     D
C346   O378    1.223   .     D
C346   C353    1.488   .     S
C346   O379    1.399   .     S
C347   F359    1.357   .     S
C347   C922    1.388   1_554 S
C347   C933    1.414   1_554 S
C348   C349    1.420   .     A
C348   C932    1.414   .     S
C348   C935    1.423   .     S
C349   C353    1.424   .     A
C350   C933    1.423   1_554 S
C350   C936    1.423   1_554 S
C351   C352    1.402   .     A
C351   C935    1.423   .     S
C351   C925    1.409   .     S
C352   F356    1.360   .     S
C352   C353    1.401   .     A
F355   C202    1.361   1_655 S
F360   C922    1.359   1_554 S
H362   O372    1.014   .     S
H363   O569    1.014   .     S
H364   O376    1.014   .     S
H365   O379    1.014   .     S
O366   Zn387   1.964   .     S
O366   Zn390   1.939   .     S
O366   Zn388   1.928   .     S
O366   Zn389   1.941   .     S
O367   Zn388   1.923   .     S
O368   Zn390   1.928   .     S
O369   Zn389   1.916   .     S
O370   Zn387   1.915   .     S
O371   C538    1.223   .     S
O377   Zn387   1.935   .     S
O380   Zn390   1.944   .     S
O381   Zn388   1.934   .     S
O382   Zn389   1.939   .     S
O383   Zn390   1.929   .     S
O384   Zn387   1.927   .     S
O385   Zn388   1.953   .     S
O386   Zn389   1.943   .     S
C391   O448    1.266   .     A
C391   O446    1.264   .     A
C391   C397    1.433   .     S
C392   C406    1.394   .     A
C392   F423    1.357   .     S
C392   C415    1.419   .     A
C393   C405    1.389   .     A
C393   F419    1.359   .     S
C393   C406    1.398   .     A
C394   O447    1.287   .     A
C394   O449    1.279   .     A
C394   C396    1.456   .     S
C395   C404    1.485   .     S
C395   C414    1.428   .     A
C395   C407    1.426   .     A
C396   C462    1.342   .     S
C396   F491    1.362   .     S
C397   C526    1.342   1_455 S
C397   F550    1.361   1_455 S
C398   C401    1.462   .     S
C398   C9      1.358   1_565 S
C398   C18     1.495   1_565 S
C399   C400    1.434   .     S
C400   O450    1.263   .     A
C400   O442    1.275   .     A
C401   O451    1.275   .     A
C401   O445    1.272   .     A
C402   C407    1.397   .     A
C402   C997    1.388   .     S
C402   F1010   1.359   .     S
C403   O432    1.269   .     A
C403   O434    1.283   .     A
C403   C406    1.461   .     S
C404   O433    1.285   .     A
C404   O435    1.295   .     A
C405   F422    1.359   .     S
C405   C1001   1.409   1_554 S
C407   C410    1.485   .     S
C408   O437    1.398   .     S
C409   O438    1.224   .     D
C409   C9      1.489   1_565 S
C409   O49     1.397   1_565 S
C410   O441    1.398   .     S
C410   O440    1.223   .     D
C411   O443    1.223   .     D
C411   C418    1.488   .     S
C411   O444    1.399   .     S
C412   F424    1.357   .     S
C412   C987    1.388   1_554 S
C412   C998    1.414   1_554 S
C413   C414    1.420   .     A
C413   C997    1.414   .     S
C413   C1000   1.423   .     S
C414   C418    1.424   .     A
C415   C998    1.423   1_554 S
C415   C1001   1.423   1_554 S
C416   C417    1.402   .     A
C416   C1000   1.423   .     S
C416   C990    1.409   .     S
C417   F421    1.360   .     S
C417   C418    1.401   .     A
F420   C462    1.361   .     S
F425   C987    1.359   1_554 S
F426   C526    1.362   1_455 S
H427   O437    1.014   .     S
H428   O49     1.014   1_565 S
H429   O441    1.014   .     S
H430   O444    1.014   .     S
O431   Zn452   1.964   .     S
O431   Zn455   1.939   .     S
O431   Zn453   1.928   .     S
O431   Zn454   1.941   .     S
O432   Zn453   1.923   .     S
O433   Zn455   1.928   .     S
O434   Zn454   1.916   .     S
O435   Zn452   1.915   .     S
O436   C18     1.223   1_565 S
O442   Zn452   1.935   .     S
O445   Zn455   1.944   .     S
O446   Zn453   1.934   .     S
O447   Zn454   1.939   .     S
O448   Zn455   1.929   .     S
O449   Zn452   1.927   .     S
O450   Zn453   1.953   .     S
O451   Zn454   1.943   .     S
C456   O513    1.266   .     A
C456   O511    1.264   .     A
C456   C462    1.433   .     S
C457   C471    1.394   .     A
C457   F488    1.357   .     S
C457   C480    1.419   .     A
C458   C470    1.389   .     A
C458   F484    1.359   .     S
C458   C471    1.398   .     A
C459   O512    1.287   .     A
C459   O514    1.279   .     A
C459   C461    1.456   .     S
C460   C469    1.485   .     S
C460   C479    1.428   .     A
C460   C472    1.426   .     A
C461   C527    1.342   .     S
C461   F556    1.362   .     S
C463   C466    1.462   .     S
C463   C74     1.358   1_565 S
C463   C83     1.495   1_565 S
C464   C465    1.434   .     S
C465   O515    1.263   .     A
C465   O507    1.275   .     A
C466   O516    1.275   .     A
C466   O510    1.272   .     A
C467   C472    1.397   .     A
C467   C1062   1.388   .     S
C467   F1075   1.359   .     S
C468   O497    1.269   .     A
C468   O499    1.283   .     A
C468   C471    1.461   .     S
C469   O498    1.285   .     A
C469   O500    1.295   .     A
C470   F487    1.359   .     S
C470   C1066   1.409   1_554 S
C472   C475    1.485   .     S
C473   O502    1.398   .     S
C474   O503    1.224   .     D
C474   C74     1.489   1_565 S
C474   O114    1.397   1_565 S
C475   O506    1.398   .     S
C475   O505    1.223   .     D
C476   O508    1.223   .     D
C476   C483    1.488   .     S
C476   O509    1.399   .     S
C477   F489    1.357   .     S
C477   C1052   1.388   1_554 S
C477   C1063   1.414   1_554 S
C478   C479    1.420   .     A
C478   C1062   1.414   .     S
C478   C1065   1.423   .     S
C479   C483    1.424   .     A
C480   C1063   1.423   1_554 S
C480   C1066   1.423   1_554 S
C481   C482    1.402   .     A
C481   C1065   1.423   .     S
C481   C1055   1.409   .     S
C482   F486    1.360   .     S
C482   C483    1.401   .     A
F485   C527    1.361   .     S
F490   C1052   1.359   1_554 S
H492   O502    1.014   .     S
H493   O114    1.014   1_565 S
H494   O506    1.014   .     S
H495   O509    1.014   .     S
O496   Zn517   1.964   .     S
O496   Zn520   1.939   .     S
O496   Zn518   1.928   .     S
O496   Zn519   1.941   .     S
O497   Zn518   1.923   .     S
O498   Zn520   1.928   .     S
O499   Zn519   1.916   .     S
O500   Zn517   1.915   .     S
O501   C83     1.223   1_565 S
O507   Zn517   1.935   .     S
O510   Zn520   1.944   .     S
O511   Zn518   1.934   .     S
O512   Zn519   1.939   .     S
O513   Zn520   1.929   .     S
O514   Zn517   1.927   .     S
O515   Zn518   1.953   .     S
O516   Zn519   1.943   .     S
C521   O578    1.266   .     A
C521   O576    1.264   .     A
C521   C527    1.433   .     S
C522   C536    1.394   .     A
C522   F553    1.357   .     S
C522   C545    1.419   .     A
C523   C535    1.389   .     A
C523   F549    1.359   .     S
C523   C536    1.398   .     A
C524   O577    1.287   .     A
C524   O579    1.279   .     A
C524   C526    1.456   .     S
C525   C534    1.485   .     S
C525   C544    1.428   .     A
C525   C537    1.426   .     A
C526   C397    1.342   1_655 S
C526   F426    1.362   1_655 S
C528   C531    1.462   .     S
C528   C139    1.358   1_565 S
C528   C148    1.495   1_565 S
C529   C530    1.434   .     S
C530   O580    1.263   .     A
C530   O572    1.275   .     A
C531   O581    1.275   .     A
C531   O575    1.272   .     A
C532   C537    1.397   .     A
C532   C1127   1.388   .     S
C532   F1140   1.359   .     S
C533   O562    1.269   .     A
C533   O564    1.283   .     A
C533   C536    1.461   .     S
C534   O563    1.285   .     A
C534   O565    1.295   .     A
C535   F552    1.359   .     S
C535   C1131   1.409   1_554 S
C537   C540    1.485   .     S
C538   O567    1.398   .     S
C539   O568    1.224   .     D
C539   C139    1.489   1_565 S
C539   O179    1.397   1_565 S
C540   O571    1.398   .     S
C540   O570    1.223   .     D
C541   O573    1.223   .     D
C541   C548    1.488   .     S
C541   O574    1.399   .     S
C542   F554    1.357   .     S
C542   C1117   1.388   1_554 S
C542   C1128   1.414   1_554 S
C543   C544    1.420   .     A
C543   C1127   1.414   .     S
C543   C1130   1.423   .     S
C544   C548    1.424   .     A
C545   C1128   1.423   1_554 S
C545   C1131   1.423   1_554 S
C546   C547    1.402   .     A
C546   C1130   1.423   .     S
C546   C1120   1.409   .     S
C547   F551    1.360   .     S
C547   C548    1.401   .     A
F550   C397    1.361   1_655 S
F555   C1117   1.359   1_554 S
H557   O567    1.014   .     S
H558   O179    1.014   1_565 S
H559   O571    1.014   .     S
H560   O574    1.014   .     S
O561   Zn582   1.964   .     S
O561   Zn585   1.939   .     S
O561   Zn583   1.928   .     S
O561   Zn584   1.941   .     S
O562   Zn583   1.923   .     S
O563   Zn585   1.928   .     S
O564   Zn584   1.916   .     S
O565   Zn582   1.915   .     S
O566   C148    1.223   1_565 S
O572   Zn582   1.935   .     S
O575   Zn585   1.944   .     S
O576   Zn583   1.934   .     S
O577   Zn584   1.939   .     S
O578   Zn585   1.929   .     S
O579   Zn582   1.927   .     S
O580   Zn583   1.953   .     S
O581   Zn584   1.943   .     S
C586   O643    1.266   .     A
C586   O641    1.264   .     A
C586   C592    1.433   .     S
C587   C601    1.394   .     A
C587   F618    1.357   .     S
C587   C610    1.419   .     A
C588   C600    1.389   .     A
C588   F614    1.359   .     S
C588   C601    1.398   .     A
C589   O642    1.287   .     A
C589   O644    1.279   .     A
C589   C591    1.456   .     S
C590   C599    1.485   .     S
C590   C609    1.428   .     A
C590   C602    1.426   .     A
C591   C657    1.342   .     S
C591   F686    1.362   .     S
C592   C721    1.342   1_455 S
C592   F745    1.361   1_455 S
C593   C596    1.462   .     S
C593   C789    1.358   .     S
C593   C798    1.495   .     S
C594   C595    1.434   .     S
C594   C983    1.358   1_545 S
C594   C994    1.489   1_545 S
C595   O645    1.263   .     A
C595   O637    1.275   .     A
C596   O646    1.275   .     A
C596   O640    1.272   .     A
C597   C602    1.397   .     A
C597   C22     1.388   1_556 S
C597   F35     1.359   1_556 S
C598   O627    1.269   .     A
C598   O629    1.283   .     A
C598   C601    1.461   .     S
C599   O628    1.285   .     A
C599   O630    1.295   .     A
C600   F617    1.359   .     S
C602   C605    1.485   .     S
C603   O632    1.398   .     S
C603   C983    1.495   1_545 S
C603   O1021   1.223   1_545 S
C604   O633    1.224   .     D
C604   C789    1.489   .     S
C604   O829    1.397   .     S
C605   O636    1.398   .     S
C605   O635    1.223   .     D
C606   O638    1.223   .     D
C606   C613    1.488   .     S
C606   O639    1.399   .     S
C607   F619    1.357   .     S
C608   C609    1.420   .     A
C608   C22     1.414   1_556 S
C608   C25     1.423   1_556 S
C609   C613    1.424   .     A
C611   C612    1.402   .     A
C611   C25     1.423   1_556 S
C611   C15     1.409   1_556 S
C612   F616    1.360   .     S
C612   C613    1.401   .     A
F615   C657    1.361   .     S
F621   C721    1.362   1_455 S
H622   O632    1.014   .     S
H623   O829    1.014   .     S
H624   O636    1.014   .     S
H625   O639    1.014   .     S
O626   Zn647   1.964   .     S
O626   Zn650   1.939   .     S
O626   Zn648   1.928   .     S
O626   Zn649   1.941   .     S
O627   Zn648   1.923   .     S
O628   Zn650   1.928   .     S
O629   Zn649   1.916   .     S
O630   Zn647   1.915   .     S
O631   C798    1.223   .     S
O634   H1013   1.014   1_545 S
O634   C994    1.397   1_545 S
O637   Zn647   1.935   .     S
O640   Zn650   1.944   .     S
O641   Zn648   1.934   .     S
O642   Zn649   1.939   .     S
O643   Zn650   1.929   .     S
O644   Zn647   1.927   .     S
O645   Zn648   1.953   .     S
O646   Zn649   1.943   .     S
C651   O708    1.266   .     A
C651   O706    1.264   .     A
C651   C657    1.433   .     S
C652   C666    1.394   .     A
C652   F683    1.357   .     S
C652   C675    1.419   .     A
C653   C665    1.389   .     A
C653   F679    1.359   .     S
C653   C666    1.398   .     A
C654   O707    1.287   .     A
C654   O709    1.279   .     A
C654   C656    1.456   .     S
C655   C664    1.485   .     S
C655   C674    1.428   .     A
C655   C667    1.426   .     A
C656   C722    1.342   .     S
C656   F751    1.362   .     S
C658   C661    1.462   .     S
C658   C854    1.358   .     S
C658   C863    1.495   .     S
C659   C660    1.434   .     S
C659   C1048   1.358   1_545 S
C659   C1059   1.489   1_545 S
C660   O710    1.263   .     A
C660   O702    1.275   .     A
C661   O711    1.275   .     A
C661   O705    1.272   .     A
C662   C667    1.397   .     A
C662   C87     1.388   1_556 S
C662   F100    1.359   1_556 S
C663   O692    1.269   .     A
C663   O694    1.283   .     A
C663   C666    1.461   .     S
C664   O693    1.285   .     A
C664   O695    1.295   .     A
C665   F682    1.359   .     S
C667   C670    1.485   .     S
C668   O697    1.398   .     S
C668   C1048   1.495   1_545 S
C668   O1086   1.223   1_545 S
C669   O698    1.224   .     D
C669   C854    1.489   .     S
C669   O894    1.397   .     S
C670   O701    1.398   .     S
C670   O700    1.223   .     D
C671   O703    1.223   .     D
C671   C678    1.488   .     S
C671   O704    1.399   .     S
C672   F684    1.357   .     S
C673   C674    1.420   .     A
C673   C87     1.414   1_556 S
C673   C90     1.423   1_556 S
C674   C678    1.424   .     A
C676   C677    1.402   .     A
C676   C90     1.423   1_556 S
C676   C80     1.409   1_556 S
C677   F681    1.360   .     S
C677   C678    1.401   .     A
F680   C722    1.361   .     S
H687   O697    1.014   .     S
H688   O894    1.014   .     S
H689   O701    1.014   .     S
H690   O704    1.014   .     S
O691   Zn712   1.964   .     S
O691   Zn715   1.939   .     S
O691   Zn713   1.928   .     S
O691   Zn714   1.941   .     S
O692   Zn713   1.923   .     S
O693   Zn715   1.928   .     S
O694   Zn714   1.916   .     S
O695   Zn712   1.915   .     S
O696   C863    1.223   .     S
O699   H1078   1.014   1_545 S
O699   C1059   1.397   1_545 S
O702   Zn712   1.935   .     S
O705   Zn715   1.944   .     S
O706   Zn713   1.934   .     S
O707   Zn714   1.939   .     S
O708   Zn715   1.929   .     S
O709   Zn712   1.927   .     S
O710   Zn713   1.953   .     S
O711   Zn714   1.943   .     S
C716   O773    1.266   .     A
C716   O771    1.264   .     A
C716   C722    1.433   .     S
C717   C731    1.394   .     A
C717   F748    1.357   .     S
C717   C740    1.419   .     A
C718   C730    1.389   .     A
C718   F744    1.359   .     S
C718   C731    1.398   .     A
C719   O772    1.287   .     A
C719   O774    1.279   .     A
C719   C721    1.456   .     S
C720   C729    1.485   .     S
C720   C739    1.428   .     A
C720   C732    1.426   .     A
C721   C592    1.342   1_655 S
C721   F621    1.362   1_655 S
C723   C726    1.462   .     S
C723   C919    1.358   .     S
C723   C928    1.495   .     S
C724   C725    1.434   .     S
C724   C1113   1.358   1_545 S
C724   C1124   1.489   1_545 S
C725   O775    1.263   .     A
C725   O767    1.275   .     A
C726   O776    1.275   .     A
C726   O770    1.272   .     A
C727   C732    1.397   .     A
C727   C152    1.388   1_556 S
C727   F165    1.359   1_556 S
C728   O757    1.269   .     A
C728   O759    1.283   .     A
C728   C731    1.461   .     S
C729   O758    1.285   .     A
C729   O760    1.295   .     A
C730   F747    1.359   .     S
C732   C735    1.485   .     S
C733   O762    1.398   .     S
C733   C1113   1.495   1_545 S
C733   O1151   1.223   1_545 S
C734   O763    1.224   .     D
C734   C919    1.489   .     S
C734   O959    1.397   .     S
C735   O766    1.398   .     S
C735   O765    1.223   .     D
C736   O768    1.223   .     D
C736   C743    1.488   .     S
C736   O769    1.399   .     S
C737   F749    1.357   .     S
C738   C739    1.420   .     A
C738   C152    1.414   1_556 S
C738   C155    1.423   1_556 S
C739   C743    1.424   .     A
C741   C742    1.402   .     A
C741   C155    1.423   1_556 S
C741   C145    1.409   1_556 S
C742   F746    1.360   .     S
C742   C743    1.401   .     A
F745   C592    1.361   1_655 S
H752   O762    1.014   .     S
H753   O959    1.014   .     S
H754   O766    1.014   .     S
H755   O769    1.014   .     S
O756   Zn777   1.964   .     S
O756   Zn780   1.939   .     S
O756   Zn778   1.928   .     S
O756   Zn779   1.941   .     S
O757   Zn778   1.923   .     S
O758   Zn780   1.928   .     S
O759   Zn779   1.916   .     S
O760   Zn777   1.915   .     S
O761   C928    1.223   .     S
O764   H1143   1.014   1_545 S
O764   C1124   1.397   1_545 S
O767   Zn777   1.935   .     S
O770   Zn780   1.944   .     S
O771   Zn778   1.934   .     S
O772   Zn779   1.939   .     S
O773   Zn780   1.929   .     S
O774   Zn777   1.927   .     S
O775   Zn778   1.953   .     S
O776   Zn779   1.943   .     S
C781   O838    1.266   .     A
C781   O836    1.264   .     A
C781   C787    1.433   .     S
C782   C796    1.394   .     A
C782   F813    1.357   .     S
C782   C805    1.419   .     A
C783   C795    1.389   .     A
C783   F809    1.359   .     S
C783   C796    1.398   .     A
C784   O837    1.287   .     A
C784   O839    1.279   .     A
C784   C786    1.456   .     S
C785   C794    1.485   .     S
C785   C804    1.428   .     A
C785   C797    1.426   .     A
C786   C852    1.342   .     S
C786   F881    1.362   .     S
C787   C916    1.342   1_455 S
C787   F940    1.361   1_455 S
C788   C791    1.462   .     S
C788   C984    1.358   .     S
C788   C993    1.495   .     S
C789   C790    1.434   .     S
C790   O840    1.263   .     A
C790   O832    1.275   .     A
C791   O841    1.275   .     A
C791   O835    1.272   .     A
C792   C797    1.397   .     A
C792   C217    1.388   1_556 S
C792   F230    1.359   1_556 S
C793   O822    1.269   .     A
C793   O824    1.283   .     A
C793   C796    1.461   .     S
C794   O823    1.285   .     A
C794   O825    1.295   .     A
C795   F812    1.359   .     S
C797   C800    1.485   .     S
C798   O827    1.398   .     S
C799   O828    1.224   .     D
C799   C984    1.489   .     S
C799   O1024   1.397   .     S
C800   O831    1.398   .     S
C800   O830    1.223   .     D
C801   O833    1.223   .     D
C801   C808    1.488   .     S
C801   O834    1.399   .     S
C802   F814    1.357   .     S
C803   C804    1.420   .     A
C803   C217    1.414   1_556 S
C803   C220    1.423   1_556 S
C804   C808    1.424   .     A
C806   C807    1.402   .     A
C806   C220    1.423   1_556 S
C806   C210    1.409   1_556 S
C807   F811    1.360   .     S
C807   C808    1.401   .     A
F810   C852    1.361   .     S
F816   C916    1.362   1_455 S
H817   O827    1.014   .     S
H818   O1024   1.014   .     S
H819   O831    1.014   .     S
H820   O834    1.014   .     S
O821   Zn842   1.964   .     S
O821   Zn845   1.939   .     S
O821   Zn843   1.928   .     S
O821   Zn844   1.941   .     S
O822   Zn843   1.923   .     S
O823   Zn845   1.928   .     S
O824   Zn844   1.916   .     S
O825   Zn842   1.915   .     S
O826   C993    1.223   .     S
O832   Zn842   1.935   .     S
O835   Zn845   1.944   .     S
O836   Zn843   1.934   .     S
O837   Zn844   1.939   .     S
O838   Zn845   1.929   .     S
O839   Zn842   1.927   .     S
O840   Zn843   1.953   .     S
O841   Zn844   1.943   .     S
C846   O903    1.266   .     A
C846   O901    1.264   .     A
C846   C852    1.433   .     S
C847   C861    1.394   .     A
C847   F878    1.357   .     S
C847   C870    1.419   .     A
C848   C860    1.389   .     A
C848   F874    1.359   .     S
C848   C861    1.398   .     A
C849   O902    1.287   .     A
C849   O904    1.279   .     A
C849   C851    1.456   .     S
C850   C859    1.485   .     S
C850   C869    1.428   .     A
C850   C862    1.426   .     A
C851   C917    1.342   .     S
C851   F946    1.362   .     S
C853   C856    1.462   .     S
C853   C1049   1.358   .     S
C853   C1058   1.495   .     S
C854   C855    1.434   .     S
C855   O905    1.263   .     A
C855   O897    1.275   .     A
C856   O906    1.275   .     A
C856   O900    1.272   .     A
C857   C862    1.397   .     A
C857   C282    1.388   1_556 S
C857   F295    1.359   1_556 S
C858   O887    1.269   .     A
C858   O889    1.283   .     A
C858   C861    1.461   .     S
C859   O888    1.285   .     A
C859   O890    1.295   .     A
C860   F877    1.359   .     S
C862   C865    1.485   .     S
C863   O892    1.398   .     S
C864   O893    1.224   .     D
C864   C1049   1.489   .     S
C864   O1089   1.397   .     S
C865   O896    1.398   .     S
C865   O895    1.223   .     D
C866   O898    1.223   .     D
C866   C873    1.488   .     S
C866   O899    1.399   .     S
C867   F879    1.357   .     S
C868   C869    1.420   .     A
C868   C282    1.414   1_556 S
C868   C285    1.423   1_556 S
C869   C873    1.424   .     A
C871   C872    1.402   .     A
C871   C285    1.423   1_556 S
C871   C275    1.409   1_556 S
C872   F876    1.360   .     S
C872   C873    1.401   .     A
F875   C917    1.361   .     S
H882   O892    1.014   .     S
H883   O1089   1.014   .     S
H884   O896    1.014   .     S
H885   O899    1.014   .     S
O886   Zn907   1.964   .     S
O886   Zn910   1.939   .     S
O886   Zn908   1.928   .     S
O886   Zn909   1.941   .     S
O887   Zn908   1.923   .     S
O888   Zn910   1.928   .     S
O889   Zn909   1.916   .     S
O890   Zn907   1.915   .     S
O891   C1058   1.223   .     S
O897   Zn907   1.935   .     S
O900   Zn910   1.944   .     S
O901   Zn908   1.934   .     S
O902   Zn909   1.939   .     S
O903   Zn910   1.929   .     S
O904   Zn907   1.927   .     S
O905   Zn908   1.953   .     S
O906   Zn909   1.943   .     S
C911   O968    1.266   .     A
C911   O966    1.264   .     A
C911   C917    1.433   .     S
C912   C926    1.394   .     A
C912   F943    1.357   .     S
C912   C935    1.419   .     A
C913   C925    1.389   .     A
C913   F939    1.359   .     S
C913   C926    1.398   .     A
C914   O967    1.287   .     A
C914   O969    1.279   .     A
C914   C916    1.456   .     S
C915   C924    1.485   .     S
C915   C934    1.428   .     A
C915   C927    1.426   .     A
C916   C787    1.342   1_655 S
C916   F816    1.362   1_655 S
C918   C921    1.462   .     S
C918   C1114   1.358   .     S
C918   C1123   1.495   .     S
C919   C920    1.434   .     S
C920   O970    1.263   .     A
C920   O962    1.275   .     A
C921   O971    1.275   .     A
C921   O965    1.272   .     A
C922   C927    1.397   .     A
C922   C347    1.388   1_556 S
C922   F360    1.359   1_556 S
C923   O952    1.269   .     A
C923   O954    1.283   .     A
C923   C926    1.461   .     S
C924   O953    1.285   .     A
C924   O955    1.295   .     A
C925   F942    1.359   .     S
C927   C930    1.485   .     S
C928   O957    1.398   .     S
C929   O958    1.224   .     D
C929   C1114   1.489   .     S
C929   O1154   1.397   .     S
C930   O961    1.398   .     S
C930   O960    1.223   .     D
C931   O963    1.223   .     D
C931   C938    1.488   .     S
C931   O964    1.399   .     S
C932   F944    1.357   .     S
C933   C934    1.420   .     A
C933   C347    1.414   1_556 S
C933   C350    1.423   1_556 S
C934   C938    1.424   .     A
C936   C937    1.402   .     A
C936   C350    1.423   1_556 S
C936   C340    1.409   1_556 S
C937   F941    1.360   .     S
C937   C938    1.401   .     A
F940   C787    1.361   1_655 S
H947   O957    1.014   .     S
H948   O1154   1.014   .     S
H949   O961    1.014   .     S
H950   O964    1.014   .     S
O951   Zn972   1.964   .     S
O951   Zn975   1.939   .     S
O951   Zn973   1.928   .     S
O951   Zn974   1.941   .     S
O952   Zn973   1.923   .     S
O953   Zn975   1.928   .     S
O954   Zn974   1.916   .     S
O955   Zn972   1.915   .     S
O956   C1123   1.223   .     S
O962   Zn972   1.935   .     S
O965   Zn975   1.944   .     S
O966   Zn973   1.934   .     S
O967   Zn974   1.939   .     S
O968   Zn975   1.929   .     S
O969   Zn972   1.927   .     S
O970   Zn973   1.953   .     S
O971   Zn974   1.943   .     S
C976   O1033   1.266   .     A
C976   O1031   1.264   .     A
C976   C982    1.433   .     S
C977   C991    1.394   .     A
C977   F1008   1.357   .     S
C977   C1000   1.419   .     A
C978   C990    1.389   .     A
C978   F1004   1.359   .     S
C978   C991    1.398   .     A
C979   O1032   1.287   .     A
C979   O1034   1.279   .     A
C979   C981    1.456   .     S
C980   C989    1.485   .     S
C980   C999    1.428   .     A
C980   C992    1.426   .     A
C981   C1047   1.342   .     S
C981   F1076   1.362   .     S
C982   C1111   1.342   1_455 S
C982   F1135   1.361   1_455 S
C983   C986    1.462   .     S
C983   C594    1.358   1_565 S
C983   C603    1.495   1_565 S
C984   C985    1.434   .     S
C985   O1035   1.263   .     A
C985   O1027   1.275   .     A
C986   O1036   1.275   .     A
C986   O1030   1.272   .     A
C987   C992    1.397   .     A
C987   C412    1.388   1_556 S
C987   F425    1.359   1_556 S
C988   O1017   1.269   .     A
C988   O1019   1.283   .     A
C988   C991    1.461   .     S
C989   O1018   1.285   .     A
C989   O1020   1.295   .     A
C990   F1007   1.359   .     S
C992   C995    1.485   .     S
C993   O1022   1.398   .     S
C994   O1023   1.224   .     D
C994   C594    1.489   1_565 S
C994   O634    1.397   1_565 S
C995   O1026   1.398   .     S
C995   O1025   1.223   .     D
C996   O1028   1.223   .     D
C996   C1003   1.488   .     S
C996   O1029   1.399   .     S
C997   F1009   1.357   .     S
C998   C999    1.420   .     A
C998   C412    1.414   1_556 S
C998   C415    1.423   1_556 S
C999   C1003   1.424   .     A
C1001  C1002   1.402   .     A
C1001  C415    1.423   1_556 S
C1001  C405    1.409   1_556 S
C1002  F1006   1.360   .     S
C1002  C1003   1.401   .     A
F1005  C1047   1.361   .     S
F1011  C1111   1.362   1_455 S
H1012  O1022   1.014   .     S
H1013  O634    1.014   1_565 S
H1014  O1026   1.014   .     S
H1015  O1029   1.014   .     S
O1016  Zn1037  1.964   .     S
O1016  Zn1040  1.939   .     S
O1016  Zn1038  1.928   .     S
O1016  Zn1039  1.941   .     S
O1017  Zn1038  1.923   .     S
O1018  Zn1040  1.928   .     S
O1019  Zn1039  1.916   .     S
O1020  Zn1037  1.915   .     S
O1021  C603    1.223   1_565 S
O1027  Zn1037  1.935   .     S
O1030  Zn1040  1.944   .     S
O1031  Zn1038  1.934   .     S
O1032  Zn1039  1.939   .     S
O1033  Zn1040  1.929   .     S
O1034  Zn1037  1.927   .     S
O1035  Zn1038  1.953   .     S
O1036  Zn1039  1.943   .     S
C1041  O1098   1.266   .     A
C1041  O1096   1.264   .     A
C1041  C1047   1.433   .     S
C1042  C1056   1.394   .     A
C1042  F1073   1.357   .     S
C1042  C1065   1.419   .     A
C1043  C1055   1.389   .     A
C1043  F1069   1.359   .     S
C1043  C1056   1.398   .     A
C1044  O1097   1.287   .     A
C1044  O1099   1.279   .     A
C1044  C1046   1.456   .     S
C1045  C1054   1.485   .     S
C1045  C1064   1.428   .     A
C1045  C1057   1.426   .     A
C1046  C1112   1.342   .     S
C1046  F1141   1.362   .     S
C1048  C1051   1.462   .     S
C1048  C659    1.358   1_565 S
C1048  C668    1.495   1_565 S
C1049  C1050   1.434   .     S
C1050  O1100   1.263   .     A
C1050  O1092   1.275   .     A
C1051  O1101   1.275   .     A
C1051  O1095   1.272   .     A
C1052  C1057   1.397   .     A
C1052  C477    1.388   1_556 S
C1052  F490    1.359   1_556 S
C1053  O1082   1.269   .     A
C1053  O1084   1.283   .     A
C1053  C1056   1.461   .     S
C1054  O1083   1.285   .     A
C1054  O1085   1.295   .     A
C1055  F1072   1.359   .     S
C1057  C1060   1.485   .     S
C1058  O1087   1.398   .     S
C1059  O1088   1.224   .     D
C1059  C659    1.489   1_565 S
C1059  O699    1.397   1_565 S
C1060  O1091   1.398   .     S
C1060  O1090   1.223   .     D
C1061  O1093   1.223   .     D
C1061  C1068   1.488   .     S
C1061  O1094   1.399   .     S
C1062  F1074   1.357   .     S
C1063  C1064   1.420   .     A
C1063  C477    1.414   1_556 S
C1063  C480    1.423   1_556 S
C1064  C1068   1.424   .     A
C1066  C1067   1.402   .     A
C1066  C480    1.423   1_556 S
C1066  C470    1.409   1_556 S
C1067  F1071   1.360   .     S
C1067  C1068   1.401   .     A
F1070  C1112   1.361   .     S
H1077  O1087   1.014   .     S
H1078  O699    1.014   1_565 S
H1079  O1091   1.014   .     S
H1080  O1094   1.014   .     S
O1081  Zn1102  1.964   .     S
O1081  Zn1105  1.939   .     S
O1081  Zn1103  1.928   .     S
O1081  Zn1104  1.941   .     S
O1082  Zn1103  1.923   .     S
O1083  Zn1105  1.928   .     S
O1084  Zn1104  1.916   .     S
O1085  Zn1102  1.915   .     S
O1086  C668    1.223   1_565 S
O1092  Zn1102  1.935   .     S
O1095  Zn1105  1.944   .     S
O1096  Zn1103  1.934   .     S
O1097  Zn1104  1.939   .     S
O1098  Zn1105  1.929   .     S
O1099  Zn1102  1.927   .     S
O1100  Zn1103  1.953   .     S
O1101  Zn1104  1.943   .     S
C1106  O1163   1.266   .     A
C1106  O1161   1.264   .     A
C1106  C1112   1.433   .     S
C1107  C1121   1.394   .     A
C1107  F1138   1.357   .     S
C1107  C1130   1.419   .     A
C1108  C1120   1.389   .     A
C1108  F1134   1.359   .     S
C1108  C1121   1.398   .     A
C1109  O1162   1.287   .     A
C1109  O1164   1.279   .     A
C1109  C1111   1.456   .     S
C1110  C1119   1.485   .     S
C1110  C1129   1.428   .     A
C1110  C1122   1.426   .     A
C1111  C982    1.342   1_655 S
C1111  F1011   1.362   1_655 S
C1113  C1116   1.462   .     S
C1113  C724    1.358   1_565 S
C1113  C733    1.495   1_565 S
C1114  C1115   1.434   .     S
C1115  O1165   1.263   .     A
C1115  O1157   1.275   .     A
C1116  O1166   1.275   .     A
C1116  O1160   1.272   .     A
C1117  C1122   1.397   .     A
C1117  C542    1.388   1_556 S
C1117  F555    1.359   1_556 S
C1118  O1147   1.269   .     A
C1118  O1149   1.283   .     A
C1118  C1121   1.461   .     S
C1119  O1148   1.285   .     A
C1119  O1150   1.295   .     A
C1120  F1137   1.359   .     S
C1122  C1125   1.485   .     S
C1123  O1152   1.398   .     S
C1124  O1153   1.224   .     D
C1124  C724    1.489   1_565 S
C1124  O764    1.397   1_565 S
C1125  O1156   1.398   .     S
C1125  O1155   1.223   .     D
C1126  O1158   1.223   .     D
C1126  C1133   1.488   .     S
C1126  O1159   1.399   .     S
C1127  F1139   1.357   .     S
C1128  C1129   1.420   .     A
C1128  C542    1.414   1_556 S
C1128  C545    1.423   1_556 S
C1129  C1133   1.424   .     A
C1131  C1132   1.402   .     A
C1131  C545    1.423   1_556 S
C1131  C535    1.409   1_556 S
C1132  F1136   1.360   .     S
C1132  C1133   1.401   .     A
F1135  C982    1.361   1_655 S
H1142  O1152   1.014   .     S
H1143  O764    1.014   1_565 S
H1144  O1156   1.014   .     S
H1145  O1159   1.014   .     S
O1146  Zn1167  1.964   .     S
O1146  Zn1170  1.939   .     S
O1146  Zn1168  1.928   .     S
O1146  Zn1169  1.941   .     S
O1147  Zn1168  1.923   .     S
O1148  Zn1170  1.928   .     S
O1149  Zn1169  1.916   .     S
O1150  Zn1167  1.915   .     S
O1151  C733    1.223   1_565 S
O1157  Zn1167  1.935   .     S
O1160  Zn1170  1.944   .     S
O1161  Zn1168  1.934   .     S
O1162  Zn1169  1.939   .     S
O1163  Zn1170  1.929   .     S
O1164  Zn1167  1.927   .     S
O1165  Zn1168  1.953   .     S
O1166  Zn1169  1.943   .     S
