data_str_m2_o1_o10_pcu_sym.2
_audit_creation_date              2020-01-03
_audit_creation_method            'Materials Studio'
_symmetry_space_group_name_H-M    'P1'
_symmetry_Int_Tables_number       1
_symmetry_cell_setting            triclinic
loop_
_symmetry_equiv_pos_as_xyz
  x,y,z
_cell_length_a                    26.3876
_cell_length_b                    32.3039
_cell_length_c                    28.6183
_cell_angle_alpha                 89.6875
_cell_angle_beta                  97.4209
_cell_angle_gamma                 90.6600
loop_
_atom_site_label
_atom_site_type_symbol
_atom_site_fract_x
_atom_site_fract_y
_atom_site_fract_z
_atom_site_U_iso_or_equiv
_atom_site_adp_type
_atom_site_occupancy
C1     C     0.16658   0.08751   0.16676   0.00000  Uiso   1.00
C2     C     0.20906   0.02164   0.18962   0.00000  Uiso   1.00
C3     C     0.16628   0.29038   0.16635   0.00000  Uiso   1.00
C4     C     0.16636   0.04288   0.16696   0.00000  Uiso   1.00
C5     C     0.13545   0.14035   0.02139   0.00000  Uiso   1.00
C6     C     0.19785   0.19302   0.31193   0.00000  Uiso   1.00
C7     C     0.13535   0.14020   0.30506   0.00000  Uiso   1.00
C8     C     0.19796   0.19315   0.02827   0.00000  Uiso   1.00
C9     C     0.16641   0.24579   0.16654   0.00000  Uiso   1.00
C10    C     0.06818   0.16620   0.15486   0.00000  Uiso   1.00
C11    C     0.26516   0.16719   0.17846   0.00000  Uiso   1.00
C12    C     0.01339   0.16169   0.14887   0.00000  Uiso   1.00
C13    C     0.31993   0.17183   0.18440   0.00000  Uiso   1.00
C14    C     0.12348   0.02127   0.14431   0.00000  Uiso   1.00
C15    C     0.20883   0.31177   0.18934   0.00000  Uiso   1.00
C16    C     0.12350   0.31155   0.14390   0.00000  Uiso   1.00
Cu17   Cu    0.16667   0.16667   0.21355   0.00000  Uiso   1.00
Cu18   Cu    0.16667   0.16666   0.11978   0.00000  Uiso   1.00
H19    H     0.11048   0.11933   0.03743   0.00000  Uiso   1.00
H20    H     0.28422   0.29828   0.19613   0.00000  Uiso   1.00
H21    H     0.06573   0.26991   0.14633   0.00000  Uiso   1.00
H22    H     0.08977   0.27205   0.09411   0.00000  Uiso   1.00
H23    H     0.26694   0.06325   0.18739   0.00000  Uiso   1.00
H24    H     0.24269   0.06110   0.23954   0.00000  Uiso   1.00
H25    H     0.11222   0.08195   0.28811   0.00000  Uiso   1.00
H26    H     0.06503   0.11712   0.28326   0.00000  Uiso   1.00
H27    H     0.22097   0.25143   0.04522   0.00000  Uiso   1.00
H28    H     0.26824   0.21634   0.05001   0.00000  Uiso   1.00
H29    H     0.22276   0.21410   0.29587   0.00000  Uiso   1.00
H30    H     0.33077   0.16214   0.07755   0.00000  Uiso   1.00
H31    H     0.00516   0.11448   0.10195   0.00000  Uiso   1.00
H32    H     0.00265   0.17175   0.25571   0.00000  Uiso   1.00
H33    H     0.32793   0.21928   0.23097   0.00000  Uiso   1.00
H34    H     0.08918   0.06102   0.09525   0.00000  Uiso   1.00
H35    H     0.06581   0.06161   0.14784   0.00000  Uiso   1.00
H36    H     0.25814   0.29744   0.24724   0.00000  Uiso   1.00
N37    N     0.16668   0.16668   0.28403   0.00000  Uiso   1.00
N38    N     0.23073   0.22139   0.05649   0.00000  Uiso   1.00
N39    N     0.16665   0.16666   0.04931   0.00000  Uiso   1.00
N40    N     0.32253   0.14355   0.10568   0.00000  Uiso   1.00
N41    N     0.01076   0.19024   0.22745   0.00000  Uiso   1.00
N42    N     0.07896   0.04253   0.12267   0.00000  Uiso   1.00
N43    N     0.25203   0.28927   0.21164   0.00000  Uiso   1.00
N44    N     0.07917   0.28980   0.12161   0.00000  Uiso   1.00
N45    N     0.25335   0.04338   0.21204   0.00000  Uiso   1.00
N46    N     0.10254   0.11200   0.27682   0.00000  Uiso   1.00
O47    O     0.16666   0.10655   0.20625   0.00000  Uiso   1.00
O48    O     0.16667   0.22678   0.12709   0.00000  Uiso   1.00
O49    O     0.16666   0.10654   0.12706   0.00000  Uiso   1.00
O50    O     0.16667   0.22679   0.20628   0.00000  Uiso   1.00
O51    O     0.09161   0.16667   0.19712   0.00000  Uiso   1.00
O52    O     0.24172   0.16666   0.13621   0.00000  Uiso   1.00
O53    O     0.09161   0.16666   0.11793   0.00000  Uiso   1.00
O54    O     0.24172   0.16667   0.21540   0.00000  Uiso   1.00
C55    C     0.49991   0.08751   0.16676   0.00000  Uiso   1.00
C56    C     0.54240   0.02164   0.18962   0.00000  Uiso   1.00
C57    C     0.49962   0.29038   0.16635   0.00000  Uiso   1.00
C58    C     0.49969   0.04288   0.16696   0.00000  Uiso   1.00
C59    C     0.46878   0.14035   0.02139   0.00000  Uiso   1.00
C60    C     0.53119   0.19302   0.31193   0.00000  Uiso   1.00
C61    C     0.46869   0.14020   0.30506   0.00000  Uiso   1.00
C62    C     0.53129   0.19315   0.02827   0.00000  Uiso   1.00
C63    C     0.49974   0.24579   0.16654   0.00000  Uiso   1.00
C64    C     0.40151   0.16620   0.15486   0.00000  Uiso   1.00
C65    C     0.59849   0.16719   0.17846   0.00000  Uiso   1.00
C66    C     0.34672   0.16169   0.14887   0.00000  Uiso   1.00
C67    C     0.65327   0.17183   0.18440   0.00000  Uiso   1.00
C68    C     0.45681   0.02127   0.14431   0.00000  Uiso   1.00
C69    C     0.54216   0.31177   0.18934   0.00000  Uiso   1.00
C70    C     0.45683   0.31155   0.14390   0.00000  Uiso   1.00
Cu71   Cu    0.50000   0.16667   0.21355   0.00000  Uiso   1.00
Cu72   Cu    0.50000   0.16666   0.11978   0.00000  Uiso   1.00
H73    H     0.44381   0.11933   0.03743   0.00000  Uiso   1.00
H74    H     0.61755   0.29828   0.19613   0.00000  Uiso   1.00
H75    H     0.39906   0.26991   0.14633   0.00000  Uiso   1.00
H76    H     0.42310   0.27205   0.09411   0.00000  Uiso   1.00
H77    H     0.60027   0.06325   0.18739   0.00000  Uiso   1.00
H78    H     0.57603   0.06110   0.23954   0.00000  Uiso   1.00
H79    H     0.44555   0.08195   0.28811   0.00000  Uiso   1.00
H80    H     0.39836   0.11712   0.28326   0.00000  Uiso   1.00
H81    H     0.55430   0.25143   0.04522   0.00000  Uiso   1.00
H82    H     0.60157   0.21634   0.05001   0.00000  Uiso   1.00
H83    H     0.55609   0.21410   0.29587   0.00000  Uiso   1.00
H84    H     0.66410   0.16214   0.07755   0.00000  Uiso   1.00
H85    H     0.33849   0.11448   0.10195   0.00000  Uiso   1.00
H86    H     0.33598   0.17175   0.25571   0.00000  Uiso   1.00
H87    H     0.66127   0.21928   0.23097   0.00000  Uiso   1.00
H88    H     0.42251   0.06102   0.09525   0.00000  Uiso   1.00
H89    H     0.39915   0.06161   0.14784   0.00000  Uiso   1.00
H90    H     0.59147   0.29744   0.24724   0.00000  Uiso   1.00
N91    N     0.50001   0.16668   0.28403   0.00000  Uiso   1.00
N92    N     0.56406   0.22139   0.05649   0.00000  Uiso   1.00
N93    N     0.49999   0.16666   0.04931   0.00000  Uiso   1.00
N94    N     0.65586   0.14355   0.10568   0.00000  Uiso   1.00
N95    N     0.34409   0.19024   0.22745   0.00000  Uiso   1.00
N96    N     0.41229   0.04253   0.12267   0.00000  Uiso   1.00
N97    N     0.58536   0.28927   0.21164   0.00000  Uiso   1.00
N98    N     0.41251   0.28980   0.12161   0.00000  Uiso   1.00
N99    N     0.58668   0.04338   0.21204   0.00000  Uiso   1.00
N100   N     0.43587   0.11200   0.27682   0.00000  Uiso   1.00
O101   O     0.50000   0.10655   0.20625   0.00000  Uiso   1.00
O102   O     0.50000   0.22678   0.12709   0.00000  Uiso   1.00
O103   O     0.50000   0.10654   0.12706   0.00000  Uiso   1.00
O104   O     0.50000   0.22679   0.20628   0.00000  Uiso   1.00
O105   O     0.42495   0.16667   0.19712   0.00000  Uiso   1.00
O106   O     0.57505   0.16666   0.13621   0.00000  Uiso   1.00
O107   O     0.42494   0.16666   0.11793   0.00000  Uiso   1.00
O108   O     0.57506   0.16667   0.21540   0.00000  Uiso   1.00
C109   C     0.83324   0.08751   0.16676   0.00000  Uiso   1.00
C110   C     0.87573   0.02164   0.18962   0.00000  Uiso   1.00
C111   C     0.83295   0.29038   0.16635   0.00000  Uiso   1.00
C112   C     0.83303   0.04288   0.16696   0.00000  Uiso   1.00
C113   C     0.80211   0.14035   0.02139   0.00000  Uiso   1.00
C114   C     0.86452   0.19302   0.31193   0.00000  Uiso   1.00
C115   C     0.80202   0.14020   0.30506   0.00000  Uiso   1.00
C116   C     0.86462   0.19315   0.02827   0.00000  Uiso   1.00
C117   C     0.83308   0.24579   0.16654   0.00000  Uiso   1.00
C118   C     0.73484   0.16620   0.15486   0.00000  Uiso   1.00
C119   C     0.93182   0.16719   0.17846   0.00000  Uiso   1.00
C120   C     0.68006   0.16169   0.14887   0.00000  Uiso   1.00
C121   C     0.98660   0.17183   0.18440   0.00000  Uiso   1.00
C122   C     0.79014   0.02127   0.14431   0.00000  Uiso   1.00
C123   C     0.87550   0.31177   0.18934   0.00000  Uiso   1.00
C124   C     0.79017   0.31155   0.14390   0.00000  Uiso   1.00
Cu125  Cu    0.83333   0.16667   0.21355   0.00000  Uiso   1.00
Cu126  Cu    0.83333   0.16666   0.11978   0.00000  Uiso   1.00
H127   H     0.77714   0.11933   0.03743   0.00000  Uiso   1.00
H128   H     0.95089   0.29828   0.19613   0.00000  Uiso   1.00
H129   H     0.73240   0.26991   0.14633   0.00000  Uiso   1.00
H130   H     0.75644   0.27205   0.09411   0.00000  Uiso   1.00
H131   H     0.93360   0.06325   0.18739   0.00000  Uiso   1.00
H132   H     0.90936   0.06110   0.23954   0.00000  Uiso   1.00
H133   H     0.77888   0.08195   0.28811   0.00000  Uiso   1.00
H134   H     0.73170   0.11712   0.28326   0.00000  Uiso   1.00
H135   H     0.88763   0.25143   0.04522   0.00000  Uiso   1.00
H136   H     0.93491   0.21634   0.05001   0.00000  Uiso   1.00
H137   H     0.88942   0.21410   0.29587   0.00000  Uiso   1.00
H138   H     0.99743   0.16214   0.07755   0.00000  Uiso   1.00
H139   H     0.67182   0.11448   0.10195   0.00000  Uiso   1.00
H140   H     0.66932   0.17175   0.25571   0.00000  Uiso   1.00
H141   H     0.99460   0.21928   0.23097   0.00000  Uiso   1.00
H142   H     0.75584   0.06102   0.09525   0.00000  Uiso   1.00
H143   H     0.73248   0.06161   0.14784   0.00000  Uiso   1.00
H144   H     0.92480   0.29744   0.24724   0.00000  Uiso   1.00
N145   N     0.83335   0.16668   0.28403   0.00000  Uiso   1.00
N146   N     0.89740   0.22139   0.05649   0.00000  Uiso   1.00
N147   N     0.83332   0.16666   0.04931   0.00000  Uiso   1.00
N148   N     0.98919   0.14355   0.10568   0.00000  Uiso   1.00
N149   N     0.67742   0.19024   0.22745   0.00000  Uiso   1.00
N150   N     0.74563   0.04253   0.12267   0.00000  Uiso   1.00
N151   N     0.91870   0.28927   0.21164   0.00000  Uiso   1.00
N152   N     0.74584   0.28980   0.12161   0.00000  Uiso   1.00
N153   N     0.92002   0.04338   0.21204   0.00000  Uiso   1.00
N154   N     0.76921   0.11200   0.27682   0.00000  Uiso   1.00
O155   O     0.83333   0.10655   0.20625   0.00000  Uiso   1.00
O156   O     0.83334   0.22678   0.12709   0.00000  Uiso   1.00
O157   O     0.83333   0.10654   0.12706   0.00000  Uiso   1.00
O158   O     0.83334   0.22679   0.20628   0.00000  Uiso   1.00
O159   O     0.75828   0.16667   0.19712   0.00000  Uiso   1.00
O160   O     0.90839   0.16666   0.13621   0.00000  Uiso   1.00
O161   O     0.75828   0.16666   0.11793   0.00000  Uiso   1.00
O162   O     0.90839   0.16667   0.21540   0.00000  Uiso   1.00
C163   C     0.16658   0.42085   0.16676   0.00000  Uiso   1.00
C164   C     0.20906   0.35498   0.18962   0.00000  Uiso   1.00
C165   C     0.16628   0.62371   0.16635   0.00000  Uiso   1.00
C166   C     0.16636   0.37621   0.16696   0.00000  Uiso   1.00
C167   C     0.13545   0.47368   0.02139   0.00000  Uiso   1.00
C168   C     0.19785   0.52635   0.31193   0.00000  Uiso   1.00
C169   C     0.13535   0.47353   0.30506   0.00000  Uiso   1.00
C170   C     0.19796   0.52649   0.02827   0.00000  Uiso   1.00
C171   C     0.16641   0.57913   0.16654   0.00000  Uiso   1.00
C172   C     0.06818   0.49954   0.15486   0.00000  Uiso   1.00
C173   C     0.26516   0.50052   0.17846   0.00000  Uiso   1.00
C174   C     0.01339   0.49503   0.14887   0.00000  Uiso   1.00
C175   C     0.31993   0.50516   0.18440   0.00000  Uiso   1.00
C176   C     0.12348   0.35460   0.14431   0.00000  Uiso   1.00
C177   C     0.20883   0.64511   0.18934   0.00000  Uiso   1.00
C178   C     0.12350   0.64488   0.14390   0.00000  Uiso   1.00
Cu179  Cu    0.16667   0.50001   0.21355   0.00000  Uiso   1.00
Cu180  Cu    0.16667   0.49999   0.11978   0.00000  Uiso   1.00
H181   H     0.11048   0.45266   0.03743   0.00000  Uiso   1.00
H182   H     0.28422   0.63162   0.19613   0.00000  Uiso   1.00
H183   H     0.06573   0.60324   0.14633   0.00000  Uiso   1.00
H184   H     0.08977   0.60538   0.09411   0.00000  Uiso   1.00
H185   H     0.26694   0.39658   0.18739   0.00000  Uiso   1.00
H186   H     0.24269   0.39443   0.23954   0.00000  Uiso   1.00
H187   H     0.11222   0.41528   0.28811   0.00000  Uiso   1.00
H188   H     0.06503   0.45045   0.28326   0.00000  Uiso   1.00
H189   H     0.22097   0.58476   0.04522   0.00000  Uiso   1.00
H190   H     0.26824   0.54968   0.05001   0.00000  Uiso   1.00
H191   H     0.22276   0.54744   0.29587   0.00000  Uiso   1.00
H192   H     0.33077   0.49548   0.07755   0.00000  Uiso   1.00
H193   H     0.00516   0.44781   0.10195   0.00000  Uiso   1.00
H194   H     0.00265   0.50509   0.25571   0.00000  Uiso   1.00
H195   H     0.32793   0.55261   0.23097   0.00000  Uiso   1.00
H196   H     0.08918   0.39435   0.09525   0.00000  Uiso   1.00
H197   H     0.06581   0.39495   0.14784   0.00000  Uiso   1.00
H198   H     0.25814   0.63078   0.24724   0.00000  Uiso   1.00
N199   N     0.16668   0.50001   0.28403   0.00000  Uiso   1.00
N200   N     0.23073   0.55472   0.05649   0.00000  Uiso   1.00
N201   N     0.16665   0.49999   0.04931   0.00000  Uiso   1.00
N202   N     0.32253   0.47689   0.10568   0.00000  Uiso   1.00
N203   N     0.01076   0.52357   0.22745   0.00000  Uiso   1.00
N204   N     0.07896   0.37586   0.12267   0.00000  Uiso   1.00
N205   N     0.25203   0.62260   0.21164   0.00000  Uiso   1.00
N206   N     0.07917   0.62313   0.12161   0.00000  Uiso   1.00
N207   N     0.25335   0.37671   0.21204   0.00000  Uiso   1.00
N208   N     0.10254   0.44533   0.27682   0.00000  Uiso   1.00
O209   O     0.16666   0.43989   0.20625   0.00000  Uiso   1.00
O210   O     0.16667   0.56011   0.12709   0.00000  Uiso   1.00
O211   O     0.16666   0.43988   0.12706   0.00000  Uiso   1.00
O212   O     0.16667   0.56012   0.20628   0.00000  Uiso   1.00
O213   O     0.09161   0.50000   0.19712   0.00000  Uiso   1.00
O214   O     0.24172   0.50000   0.13621   0.00000  Uiso   1.00
O215   O     0.09161   0.49999   0.11793   0.00000  Uiso   1.00
O216   O     0.24172   0.50001   0.21540   0.00000  Uiso   1.00
C217   C     0.49991   0.42085   0.16676   0.00000  Uiso   1.00
C218   C     0.54240   0.35498   0.18962   0.00000  Uiso   1.00
C219   C     0.49962   0.62371   0.16635   0.00000  Uiso   1.00
C220   C     0.49969   0.37621   0.16696   0.00000  Uiso   1.00
C221   C     0.46878   0.47368   0.02139   0.00000  Uiso   1.00
C222   C     0.53119   0.52635   0.31193   0.00000  Uiso   1.00
C223   C     0.46869   0.47353   0.30506   0.00000  Uiso   1.00
C224   C     0.53129   0.52649   0.02827   0.00000  Uiso   1.00
C225   C     0.49974   0.57913   0.16654   0.00000  Uiso   1.00
C226   C     0.40151   0.49954   0.15486   0.00000  Uiso   1.00
C227   C     0.59849   0.50052   0.17846   0.00000  Uiso   1.00
C228   C     0.34672   0.49503   0.14887   0.00000  Uiso   1.00
C229   C     0.65327   0.50516   0.18440   0.00000  Uiso   1.00
C230   C     0.45681   0.35460   0.14431   0.00000  Uiso   1.00
C231   C     0.54216   0.64511   0.18934   0.00000  Uiso   1.00
C232   C     0.45683   0.64488   0.14390   0.00000  Uiso   1.00
Cu233  Cu    0.50000   0.50001   0.21355   0.00000  Uiso   1.00
Cu234  Cu    0.50000   0.49999   0.11978   0.00000  Uiso   1.00
H235   H     0.44381   0.45266   0.03743   0.00000  Uiso   1.00
H236   H     0.61755   0.63162   0.19613   0.00000  Uiso   1.00
H237   H     0.39906   0.60324   0.14633   0.00000  Uiso   1.00
H238   H     0.42310   0.60538   0.09411   0.00000  Uiso   1.00
H239   H     0.60027   0.39658   0.18739   0.00000  Uiso   1.00
H240   H     0.57603   0.39443   0.23954   0.00000  Uiso   1.00
H241   H     0.44555   0.41528   0.28811   0.00000  Uiso   1.00
H242   H     0.39836   0.45045   0.28326   0.00000  Uiso   1.00
H243   H     0.55430   0.58476   0.04522   0.00000  Uiso   1.00
H244   H     0.60157   0.54968   0.05001   0.00000  Uiso   1.00
H245   H     0.55609   0.54744   0.29587   0.00000  Uiso   1.00
H246   H     0.66410   0.49548   0.07755   0.00000  Uiso   1.00
H247   H     0.33849   0.44781   0.10195   0.00000  Uiso   1.00
H248   H     0.33598   0.50509   0.25571   0.00000  Uiso   1.00
H249   H     0.66127   0.55261   0.23097   0.00000  Uiso   1.00
H250   H     0.42251   0.39435   0.09525   0.00000  Uiso   1.00
H251   H     0.39915   0.39495   0.14784   0.00000  Uiso   1.00
H252   H     0.59147   0.63078   0.24724   0.00000  Uiso   1.00
N253   N     0.50001   0.50001   0.28403   0.00000  Uiso   1.00
N254   N     0.56406   0.55472   0.05649   0.00000  Uiso   1.00
N255   N     0.49999   0.49999   0.04931   0.00000  Uiso   1.00
N256   N     0.65586   0.47689   0.10568   0.00000  Uiso   1.00
N257   N     0.34409   0.52357   0.22745   0.00000  Uiso   1.00
N258   N     0.41229   0.37586   0.12267   0.00000  Uiso   1.00
N259   N     0.58536   0.62260   0.21164   0.00000  Uiso   1.00
N260   N     0.41251   0.62313   0.12161   0.00000  Uiso   1.00
N261   N     0.58668   0.37671   0.21204   0.00000  Uiso   1.00
N262   N     0.43587   0.44533   0.27682   0.00000  Uiso   1.00
O263   O     0.50000   0.43989   0.20625   0.00000  Uiso   1.00
O264   O     0.50000   0.56011   0.12709   0.00000  Uiso   1.00
O265   O     0.50000   0.43988   0.12706   0.00000  Uiso   1.00
O266   O     0.50000   0.56012   0.20628   0.00000  Uiso   1.00
O267   O     0.42495   0.50000   0.19712   0.00000  Uiso   1.00
O268   O     0.57505   0.50000   0.13621   0.00000  Uiso   1.00
O269   O     0.42494   0.49999   0.11793   0.00000  Uiso   1.00
O270   O     0.57506   0.50001   0.21540   0.00000  Uiso   1.00
C271   C     0.83324   0.42085   0.16676   0.00000  Uiso   1.00
C272   C     0.87573   0.35498   0.18962   0.00000  Uiso   1.00
C273   C     0.83295   0.62371   0.16635   0.00000  Uiso   1.00
C274   C     0.83303   0.37621   0.16696   0.00000  Uiso   1.00
C275   C     0.80211   0.47368   0.02139   0.00000  Uiso   1.00
C276   C     0.86452   0.52635   0.31193   0.00000  Uiso   1.00
C277   C     0.80202   0.47353   0.30506   0.00000  Uiso   1.00
C278   C     0.86462   0.52649   0.02827   0.00000  Uiso   1.00
C279   C     0.83308   0.57913   0.16654   0.00000  Uiso   1.00
C280   C     0.73484   0.49954   0.15486   0.00000  Uiso   1.00
C281   C     0.93182   0.50052   0.17846   0.00000  Uiso   1.00
C282   C     0.68006   0.49503   0.14887   0.00000  Uiso   1.00
C283   C     0.98660   0.50516   0.18440   0.00000  Uiso   1.00
C284   C     0.79014   0.35460   0.14431   0.00000  Uiso   1.00
C285   C     0.87550   0.64511   0.18934   0.00000  Uiso   1.00
C286   C     0.79017   0.64488   0.14390   0.00000  Uiso   1.00
Cu287  Cu    0.83333   0.50001   0.21355   0.00000  Uiso   1.00
Cu288  Cu    0.83333   0.49999   0.11978   0.00000  Uiso   1.00
H289   H     0.77714   0.45266   0.03743   0.00000  Uiso   1.00
H290   H     0.95089   0.63162   0.19613   0.00000  Uiso   1.00
H291   H     0.73240   0.60324   0.14633   0.00000  Uiso   1.00
H292   H     0.75644   0.60538   0.09411   0.00000  Uiso   1.00
H293   H     0.93360   0.39658   0.18739   0.00000  Uiso   1.00
H294   H     0.90936   0.39443   0.23954   0.00000  Uiso   1.00
H295   H     0.77888   0.41528   0.28811   0.00000  Uiso   1.00
H296   H     0.73170   0.45045   0.28326   0.00000  Uiso   1.00
H297   H     0.88763   0.58476   0.04522   0.00000  Uiso   1.00
H298   H     0.93491   0.54968   0.05001   0.00000  Uiso   1.00
H299   H     0.88942   0.54744   0.29587   0.00000  Uiso   1.00
H300   H     0.99743   0.49548   0.07755   0.00000  Uiso   1.00
H301   H     0.67182   0.44781   0.10195   0.00000  Uiso   1.00
H302   H     0.66932   0.50509   0.25571   0.00000  Uiso   1.00
H303   H     0.99460   0.55261   0.23097   0.00000  Uiso   1.00
H304   H     0.75584   0.39435   0.09525   0.00000  Uiso   1.00
H305   H     0.73248   0.39495   0.14784   0.00000  Uiso   1.00
H306   H     0.92480   0.63078   0.24724   0.00000  Uiso   1.00
N307   N     0.83335   0.50001   0.28403   0.00000  Uiso   1.00
N308   N     0.89740   0.55472   0.05649   0.00000  Uiso   1.00
N309   N     0.83332   0.49999   0.04931   0.00000  Uiso   1.00
N310   N     0.98919   0.47689   0.10568   0.00000  Uiso   1.00
N311   N     0.67742   0.52357   0.22745   0.00000  Uiso   1.00
N312   N     0.74563   0.37586   0.12267   0.00000  Uiso   1.00
N313   N     0.91870   0.62260   0.21164   0.00000  Uiso   1.00
N314   N     0.74584   0.62313   0.12161   0.00000  Uiso   1.00
N315   N     0.92002   0.37671   0.21204   0.00000  Uiso   1.00
N316   N     0.76921   0.44533   0.27682   0.00000  Uiso   1.00
O317   O     0.83333   0.43989   0.20625   0.00000  Uiso   1.00
O318   O     0.83334   0.56011   0.12709   0.00000  Uiso   1.00
O319   O     0.83333   0.43988   0.12706   0.00000  Uiso   1.00
O320   O     0.83334   0.56012   0.20628   0.00000  Uiso   1.00
O321   O     0.75828   0.50000   0.19712   0.00000  Uiso   1.00
O322   O     0.90839   0.50000   0.13621   0.00000  Uiso   1.00
O323   O     0.75828   0.49999   0.11793   0.00000  Uiso   1.00
O324   O     0.90839   0.50001   0.21540   0.00000  Uiso   1.00
C325   C     0.16658   0.75418   0.16676   0.00000  Uiso   1.00
C326   C     0.20906   0.68831   0.18962   0.00000  Uiso   1.00
C327   C     0.16628   0.95704   0.16635   0.00000  Uiso   1.00
C328   C     0.16636   0.70955   0.16696   0.00000  Uiso   1.00
C329   C     0.13545   0.80702   0.02139   0.00000  Uiso   1.00
C330   C     0.19785   0.85968   0.31193   0.00000  Uiso   1.00
C331   C     0.13535   0.80687   0.30506   0.00000  Uiso   1.00
C332   C     0.19796   0.85982   0.02827   0.00000  Uiso   1.00
C333   C     0.16641   0.91246   0.16654   0.00000  Uiso   1.00
C334   C     0.06818   0.83287   0.15486   0.00000  Uiso   1.00
C335   C     0.26516   0.83386   0.17846   0.00000  Uiso   1.00
C336   C     0.01339   0.82836   0.14887   0.00000  Uiso   1.00
C337   C     0.31993   0.83850   0.18440   0.00000  Uiso   1.00
C338   C     0.12348   0.68793   0.14431   0.00000  Uiso   1.00
C339   C     0.20883   0.97844   0.18934   0.00000  Uiso   1.00
C340   C     0.12350   0.97822   0.14390   0.00000  Uiso   1.00
Cu341  Cu    0.16667   0.83334   0.21355   0.00000  Uiso   1.00
Cu342  Cu    0.16667   0.83333   0.11978   0.00000  Uiso   1.00
H343   H     0.11048   0.78599   0.03743   0.00000  Uiso   1.00
H344   H     0.28422   0.96495   0.19613   0.00000  Uiso   1.00
H345   H     0.06573   0.93657   0.14633   0.00000  Uiso   1.00
H346   H     0.08977   0.93872   0.09411   0.00000  Uiso   1.00
H347   H     0.26694   0.72992   0.18739   0.00000  Uiso   1.00
H348   H     0.24269   0.72777   0.23954   0.00000  Uiso   1.00
H349   H     0.11222   0.74861   0.28811   0.00000  Uiso   1.00
H350   H     0.06503   0.78379   0.28326   0.00000  Uiso   1.00
H351   H     0.22097   0.91810   0.04522   0.00000  Uiso   1.00
H352   H     0.26824   0.88301   0.05001   0.00000  Uiso   1.00
H353   H     0.22276   0.88077   0.29587   0.00000  Uiso   1.00
H354   H     0.33077   0.82881   0.07755   0.00000  Uiso   1.00
H355   H     0.00516   0.78115   0.10195   0.00000  Uiso   1.00
H356   H     0.00265   0.83842   0.25571   0.00000  Uiso   1.00
H357   H     0.32793   0.88595   0.23097   0.00000  Uiso   1.00
H358   H     0.08918   0.72769   0.09525   0.00000  Uiso   1.00
H359   H     0.06581   0.72828   0.14784   0.00000  Uiso   1.00
H360   H     0.25814   0.96411   0.24724   0.00000  Uiso   1.00
N361   N     0.16668   0.83334   0.28403   0.00000  Uiso   1.00
N362   N     0.23073   0.88806   0.05649   0.00000  Uiso   1.00
N363   N     0.16665   0.83332   0.04931   0.00000  Uiso   1.00
N364   N     0.32253   0.81022   0.10568   0.00000  Uiso   1.00
N365   N     0.01076   0.85690   0.22745   0.00000  Uiso   1.00
N366   N     0.07896   0.70919   0.12267   0.00000  Uiso   1.00
N367   N     0.25203   0.95594   0.21164   0.00000  Uiso   1.00
N368   N     0.07917   0.95647   0.12161   0.00000  Uiso   1.00
N369   N     0.25335   0.71004   0.21204   0.00000  Uiso   1.00
N370   N     0.10254   0.77867   0.27682   0.00000  Uiso   1.00
O371   O     0.16666   0.77322   0.20625   0.00000  Uiso   1.00
O372   O     0.16667   0.89345   0.12709   0.00000  Uiso   1.00
O373   O     0.16666   0.77321   0.12706   0.00000  Uiso   1.00
O374   O     0.16667   0.89346   0.20628   0.00000  Uiso   1.00
O375   O     0.09161   0.83334   0.19712   0.00000  Uiso   1.00
O376   O     0.24172   0.83333   0.13621   0.00000  Uiso   1.00
O377   O     0.09161   0.83333   0.11793   0.00000  Uiso   1.00
O378   O     0.24172   0.83334   0.21540   0.00000  Uiso   1.00
C379   C     0.49991   0.75418   0.16676   0.00000  Uiso   1.00
C380   C     0.54240   0.68831   0.18962   0.00000  Uiso   1.00
C381   C     0.49962   0.95704   0.16635   0.00000  Uiso   1.00
C382   C     0.49969   0.70955   0.16696   0.00000  Uiso   1.00
C383   C     0.46878   0.80702   0.02139   0.00000  Uiso   1.00
C384   C     0.53119   0.85968   0.31193   0.00000  Uiso   1.00
C385   C     0.46869   0.80687   0.30506   0.00000  Uiso   1.00
C386   C     0.53129   0.85982   0.02827   0.00000  Uiso   1.00
C387   C     0.49974   0.91246   0.16654   0.00000  Uiso   1.00
C388   C     0.40151   0.83287   0.15486   0.00000  Uiso   1.00
C389   C     0.59849   0.83386   0.17846   0.00000  Uiso   1.00
C390   C     0.34672   0.82836   0.14887   0.00000  Uiso   1.00
C391   C     0.65327   0.83850   0.18440   0.00000  Uiso   1.00
C392   C     0.45681   0.68793   0.14431   0.00000  Uiso   1.00
C393   C     0.54216   0.97844   0.18934   0.00000  Uiso   1.00
C394   C     0.45683   0.97822   0.14390   0.00000  Uiso   1.00
Cu395  Cu    0.50000   0.83334   0.21355   0.00000  Uiso   1.00
Cu396  Cu    0.50000   0.83333   0.11978   0.00000  Uiso   1.00
H397   H     0.44381   0.78599   0.03743   0.00000  Uiso   1.00
H398   H     0.61755   0.96495   0.19613   0.00000  Uiso   1.00
H399   H     0.39906   0.93657   0.14633   0.00000  Uiso   1.00
H400   H     0.42310   0.93872   0.09411   0.00000  Uiso   1.00
H401   H     0.60027   0.72992   0.18739   0.00000  Uiso   1.00
H402   H     0.57603   0.72777   0.23954   0.00000  Uiso   1.00
H403   H     0.44555   0.74861   0.28811   0.00000  Uiso   1.00
H404   H     0.39836   0.78379   0.28326   0.00000  Uiso   1.00
H405   H     0.55430   0.91810   0.04522   0.00000  Uiso   1.00
H406   H     0.60157   0.88301   0.05001   0.00000  Uiso   1.00
H407   H     0.55609   0.88077   0.29587   0.00000  Uiso   1.00
H408   H     0.66410   0.82881   0.07755   0.00000  Uiso   1.00
H409   H     0.33849   0.78115   0.10195   0.00000  Uiso   1.00
H410   H     0.33598   0.83842   0.25571   0.00000  Uiso   1.00
H411   H     0.66127   0.88595   0.23097   0.00000  Uiso   1.00
H412   H     0.42251   0.72769   0.09525   0.00000  Uiso   1.00
H413   H     0.39915   0.72828   0.14784   0.00000  Uiso   1.00
H414   H     0.59147   0.96411   0.24724   0.00000  Uiso   1.00
N415   N     0.50001   0.83334   0.28403   0.00000  Uiso   1.00
N416   N     0.56406   0.88806   0.05649   0.00000  Uiso   1.00
N417   N     0.49999   0.83332   0.04931   0.00000  Uiso   1.00
N418   N     0.65586   0.81022   0.10568   0.00000  Uiso   1.00
N419   N     0.34409   0.85690   0.22745   0.00000  Uiso   1.00
N420   N     0.41229   0.70919   0.12267   0.00000  Uiso   1.00
N421   N     0.58536   0.95594   0.21164   0.00000  Uiso   1.00
N422   N     0.41251   0.95647   0.12161   0.00000  Uiso   1.00
N423   N     0.58668   0.71004   0.21204   0.00000  Uiso   1.00
N424   N     0.43587   0.77867   0.27682   0.00000  Uiso   1.00
O425   O     0.50000   0.77322   0.20625   0.00000  Uiso   1.00
O426   O     0.50000   0.89345   0.12709   0.00000  Uiso   1.00
O427   O     0.50000   0.77321   0.12706   0.00000  Uiso   1.00
O428   O     0.50000   0.89346   0.20628   0.00000  Uiso   1.00
O429   O     0.42495   0.83334   0.19712   0.00000  Uiso   1.00
O430   O     0.57505   0.83333   0.13621   0.00000  Uiso   1.00
O431   O     0.42494   0.83333   0.11793   0.00000  Uiso   1.00
O432   O     0.57506   0.83334   0.21540   0.00000  Uiso   1.00
C433   C     0.83324   0.75418   0.16676   0.00000  Uiso   1.00
C434   C     0.87573   0.68831   0.18962   0.00000  Uiso   1.00
C435   C     0.83295   0.95704   0.16635   0.00000  Uiso   1.00
C436   C     0.83303   0.70955   0.16696   0.00000  Uiso   1.00
C437   C     0.80211   0.80702   0.02139   0.00000  Uiso   1.00
C438   C     0.86452   0.85968   0.31193   0.00000  Uiso   1.00
C439   C     0.80202   0.80687   0.30506   0.00000  Uiso   1.00
C440   C     0.86462   0.85982   0.02827   0.00000  Uiso   1.00
C441   C     0.83308   0.91246   0.16654   0.00000  Uiso   1.00
C442   C     0.73484   0.83287   0.15486   0.00000  Uiso   1.00
C443   C     0.93182   0.83386   0.17846   0.00000  Uiso   1.00
C444   C     0.68006   0.82836   0.14887   0.00000  Uiso   1.00
C445   C     0.98660   0.83850   0.18440   0.00000  Uiso   1.00
C446   C     0.79014   0.68793   0.14431   0.00000  Uiso   1.00
C447   C     0.87550   0.97844   0.18934   0.00000  Uiso   1.00
C448   C     0.79017   0.97822   0.14390   0.00000  Uiso   1.00
Cu449  Cu    0.83333   0.83334   0.21355   0.00000  Uiso   1.00
Cu450  Cu    0.83333   0.83333   0.11978   0.00000  Uiso   1.00
H451   H     0.77714   0.78599   0.03743   0.00000  Uiso   1.00
H452   H     0.95089   0.96495   0.19613   0.00000  Uiso   1.00
H453   H     0.73240   0.93657   0.14633   0.00000  Uiso   1.00
H454   H     0.75644   0.93872   0.09411   0.00000  Uiso   1.00
H455   H     0.93360   0.72992   0.18739   0.00000  Uiso   1.00
H456   H     0.90936   0.72777   0.23954   0.00000  Uiso   1.00
H457   H     0.77888   0.74861   0.28811   0.00000  Uiso   1.00
H458   H     0.73170   0.78379   0.28326   0.00000  Uiso   1.00
H459   H     0.88763   0.91810   0.04522   0.00000  Uiso   1.00
H460   H     0.93491   0.88301   0.05001   0.00000  Uiso   1.00
H461   H     0.88942   0.88077   0.29587   0.00000  Uiso   1.00
H462   H     0.99743   0.82881   0.07755   0.00000  Uiso   1.00
H463   H     0.67182   0.78115   0.10195   0.00000  Uiso   1.00
H464   H     0.66932   0.83842   0.25571   0.00000  Uiso   1.00
H465   H     0.99460   0.88595   0.23097   0.00000  Uiso   1.00
H466   H     0.75584   0.72769   0.09525   0.00000  Uiso   1.00
H467   H     0.73248   0.72828   0.14784   0.00000  Uiso   1.00
H468   H     0.92480   0.96411   0.24724   0.00000  Uiso   1.00
N469   N     0.83335   0.83334   0.28403   0.00000  Uiso   1.00
N470   N     0.89740   0.88806   0.05649   0.00000  Uiso   1.00
N471   N     0.83332   0.83332   0.04931   0.00000  Uiso   1.00
N472   N     0.98919   0.81022   0.10568   0.00000  Uiso   1.00
N473   N     0.67742   0.85690   0.22745   0.00000  Uiso   1.00
N474   N     0.74563   0.70919   0.12267   0.00000  Uiso   1.00
N475   N     0.91870   0.95594   0.21164   0.00000  Uiso   1.00
N476   N     0.74584   0.95647   0.12161   0.00000  Uiso   1.00
N477   N     0.92002   0.71004   0.21204   0.00000  Uiso   1.00
N478   N     0.76921   0.77867   0.27682   0.00000  Uiso   1.00
O479   O     0.83333   0.77322   0.20625   0.00000  Uiso   1.00
O480   O     0.83334   0.89345   0.12709   0.00000  Uiso   1.00
O481   O     0.83333   0.77321   0.12706   0.00000  Uiso   1.00
O482   O     0.83334   0.89346   0.20628   0.00000  Uiso   1.00
O483   O     0.75828   0.83334   0.19712   0.00000  Uiso   1.00
O484   O     0.90839   0.83333   0.13621   0.00000  Uiso   1.00
O485   O     0.75828   0.83333   0.11793   0.00000  Uiso   1.00
O486   O     0.90839   0.83334   0.21540   0.00000  Uiso   1.00
C487   C     0.16658   0.08751   0.50009   0.00000  Uiso   1.00
C488   C     0.20906   0.02164   0.52295   0.00000  Uiso   1.00
C489   C     0.16628   0.29038   0.49968   0.00000  Uiso   1.00
C490   C     0.16636   0.04288   0.50030   0.00000  Uiso   1.00
C491   C     0.13545   0.14035   0.35472   0.00000  Uiso   1.00
C492   C     0.19785   0.19302   0.64527   0.00000  Uiso   1.00
C493   C     0.13535   0.14020   0.63839   0.00000  Uiso   1.00
C494   C     0.19796   0.19315   0.36160   0.00000  Uiso   1.00
C495   C     0.16641   0.24579   0.49987   0.00000  Uiso   1.00
C496   C     0.06818   0.16620   0.48819   0.00000  Uiso   1.00
C497   C     0.26516   0.16719   0.51180   0.00000  Uiso   1.00
C498   C     0.01339   0.16169   0.48221   0.00000  Uiso   1.00
C499   C     0.31993   0.17183   0.51773   0.00000  Uiso   1.00
C500   C     0.12348   0.02127   0.47765   0.00000  Uiso   1.00
C501   C     0.20883   0.31177   0.52267   0.00000  Uiso   1.00
C502   C     0.12350   0.31155   0.47723   0.00000  Uiso   1.00
Cu503  Cu    0.16667   0.16667   0.54689   0.00000  Uiso   1.00
Cu504  Cu    0.16667   0.16666   0.45311   0.00000  Uiso   1.00
H505   H     0.11048   0.11933   0.37076   0.00000  Uiso   1.00
H506   H     0.28422   0.29828   0.52947   0.00000  Uiso   1.00
H507   H     0.06573   0.26991   0.47966   0.00000  Uiso   1.00
H508   H     0.08977   0.27205   0.42744   0.00000  Uiso   1.00
H509   H     0.26694   0.06325   0.52072   0.00000  Uiso   1.00
H510   H     0.24269   0.06110   0.57287   0.00000  Uiso   1.00
H511   H     0.11222   0.08195   0.62145   0.00000  Uiso   1.00
H512   H     0.06503   0.11712   0.61659   0.00000  Uiso   1.00
H513   H     0.22097   0.25143   0.37855   0.00000  Uiso   1.00
H514   H     0.26824   0.21634   0.38335   0.00000  Uiso   1.00
H515   H     0.22276   0.21410   0.62920   0.00000  Uiso   1.00
H516   H     0.33077   0.16214   0.41089   0.00000  Uiso   1.00
H517   H     0.00516   0.11448   0.43528   0.00000  Uiso   1.00
H518   H     0.00265   0.17175   0.58904   0.00000  Uiso   1.00
H519   H     0.32793   0.21928   0.56430   0.00000  Uiso   1.00
H520   H     0.08918   0.06102   0.42858   0.00000  Uiso   1.00
H521   H     0.06581   0.06161   0.48117   0.00000  Uiso   1.00
H522   H     0.25814   0.29744   0.58057   0.00000  Uiso   1.00
N523   N     0.16668   0.16668   0.61736   0.00000  Uiso   1.00
N524   N     0.23073   0.22139   0.38983   0.00000  Uiso   1.00
N525   N     0.16665   0.16666   0.38264   0.00000  Uiso   1.00
N526   N     0.32253   0.14355   0.43901   0.00000  Uiso   1.00
N527   N     0.01076   0.19024   0.56078   0.00000  Uiso   1.00
N528   N     0.07896   0.04253   0.45601   0.00000  Uiso   1.00
N529   N     0.25203   0.28927   0.54497   0.00000  Uiso   1.00
N530   N     0.07917   0.28980   0.45495   0.00000  Uiso   1.00
N531   N     0.25335   0.04338   0.54538   0.00000  Uiso   1.00
N532   N     0.10254   0.11200   0.61016   0.00000  Uiso   1.00
O533   O     0.16666   0.10655   0.53958   0.00000  Uiso   1.00
O534   O     0.16667   0.22678   0.46042   0.00000  Uiso   1.00
O535   O     0.16666   0.10654   0.46039   0.00000  Uiso   1.00
O536   O     0.16667   0.22679   0.53961   0.00000  Uiso   1.00
O537   O     0.09161   0.16667   0.53046   0.00000  Uiso   1.00
O538   O     0.24172   0.16666   0.46954   0.00000  Uiso   1.00
O539   O     0.09161   0.16666   0.45127   0.00000  Uiso   1.00
O540   O     0.24172   0.16667   0.54873   0.00000  Uiso   1.00
C541   C     0.49991   0.08751   0.50009   0.00000  Uiso   1.00
C542   C     0.54240   0.02164   0.52295   0.00000  Uiso   1.00
C543   C     0.49962   0.29038   0.49968   0.00000  Uiso   1.00
C544   C     0.49969   0.04288   0.50030   0.00000  Uiso   1.00
C545   C     0.46878   0.14035   0.35472   0.00000  Uiso   1.00
C546   C     0.53119   0.19302   0.64527   0.00000  Uiso   1.00
C547   C     0.46869   0.14020   0.63839   0.00000  Uiso   1.00
C548   C     0.53129   0.19315   0.36160   0.00000  Uiso   1.00
C549   C     0.49974   0.24579   0.49987   0.00000  Uiso   1.00
C550   C     0.40151   0.16620   0.48819   0.00000  Uiso   1.00
C551   C     0.59849   0.16719   0.51180   0.00000  Uiso   1.00
C552   C     0.34672   0.16169   0.48221   0.00000  Uiso   1.00
C553   C     0.65327   0.17183   0.51773   0.00000  Uiso   1.00
C554   C     0.45681   0.02127   0.47765   0.00000  Uiso   1.00
C555   C     0.54216   0.31177   0.52267   0.00000  Uiso   1.00
C556   C     0.45683   0.31155   0.47723   0.00000  Uiso   1.00
Cu557  Cu    0.50000   0.16667   0.54689   0.00000  Uiso   1.00
Cu558  Cu    0.50000   0.16666   0.45311   0.00000  Uiso   1.00
H559   H     0.44381   0.11933   0.37076   0.00000  Uiso   1.00
H560   H     0.61755   0.29828   0.52947   0.00000  Uiso   1.00
H561   H     0.39906   0.26991   0.47966   0.00000  Uiso   1.00
H562   H     0.42310   0.27205   0.42744   0.00000  Uiso   1.00
H563   H     0.60027   0.06325   0.52072   0.00000  Uiso   1.00
H564   H     0.57603   0.06110   0.57287   0.00000  Uiso   1.00
H565   H     0.44555   0.08195   0.62145   0.00000  Uiso   1.00
H566   H     0.39836   0.11712   0.61659   0.00000  Uiso   1.00
H567   H     0.55430   0.25143   0.37855   0.00000  Uiso   1.00
H568   H     0.60157   0.21634   0.38335   0.00000  Uiso   1.00
H569   H     0.55609   0.21410   0.62920   0.00000  Uiso   1.00
H570   H     0.66410   0.16214   0.41089   0.00000  Uiso   1.00
H571   H     0.33849   0.11448   0.43528   0.00000  Uiso   1.00
H572   H     0.33598   0.17175   0.58904   0.00000  Uiso   1.00
H573   H     0.66127   0.21928   0.56430   0.00000  Uiso   1.00
H574   H     0.42251   0.06102   0.42858   0.00000  Uiso   1.00
H575   H     0.39915   0.06161   0.48117   0.00000  Uiso   1.00
H576   H     0.59147   0.29744   0.58057   0.00000  Uiso   1.00
N577   N     0.50001   0.16668   0.61736   0.00000  Uiso   1.00
N578   N     0.56406   0.22139   0.38983   0.00000  Uiso   1.00
N579   N     0.49999   0.16666   0.38264   0.00000  Uiso   1.00
N580   N     0.65586   0.14355   0.43901   0.00000  Uiso   1.00
N581   N     0.34409   0.19024   0.56078   0.00000  Uiso   1.00
N582   N     0.41229   0.04253   0.45601   0.00000  Uiso   1.00
N583   N     0.58536   0.28927   0.54497   0.00000  Uiso   1.00
N584   N     0.41251   0.28980   0.45495   0.00000  Uiso   1.00
N585   N     0.58668   0.04338   0.54538   0.00000  Uiso   1.00
N586   N     0.43587   0.11200   0.61016   0.00000  Uiso   1.00
O587   O     0.50000   0.10655   0.53958   0.00000  Uiso   1.00
O588   O     0.50000   0.22678   0.46042   0.00000  Uiso   1.00
O589   O     0.50000   0.10654   0.46039   0.00000  Uiso   1.00
O590   O     0.50000   0.22679   0.53961   0.00000  Uiso   1.00
O591   O     0.42495   0.16667   0.53046   0.00000  Uiso   1.00
O592   O     0.57505   0.16666   0.46954   0.00000  Uiso   1.00
O593   O     0.42494   0.16666   0.45127   0.00000  Uiso   1.00
O594   O     0.57506   0.16667   0.54873   0.00000  Uiso   1.00
C595   C     0.83324   0.08751   0.50009   0.00000  Uiso   1.00
C596   C     0.87573   0.02164   0.52295   0.00000  Uiso   1.00
C597   C     0.83295   0.29038   0.49968   0.00000  Uiso   1.00
C598   C     0.83303   0.04288   0.50030   0.00000  Uiso   1.00
C599   C     0.80211   0.14035   0.35472   0.00000  Uiso   1.00
C600   C     0.86452   0.19302   0.64527   0.00000  Uiso   1.00
C601   C     0.80202   0.14020   0.63839   0.00000  Uiso   1.00
C602   C     0.86462   0.19315   0.36160   0.00000  Uiso   1.00
C603   C     0.83308   0.24579   0.49987   0.00000  Uiso   1.00
C604   C     0.73484   0.16620   0.48819   0.00000  Uiso   1.00
C605   C     0.93182   0.16719   0.51180   0.00000  Uiso   1.00
C606   C     0.68006   0.16169   0.48221   0.00000  Uiso   1.00
C607   C     0.98660   0.17183   0.51773   0.00000  Uiso   1.00
C608   C     0.79014   0.02127   0.47765   0.00000  Uiso   1.00
C609   C     0.87550   0.31177   0.52267   0.00000  Uiso   1.00
C610   C     0.79017   0.31155   0.47723   0.00000  Uiso   1.00
Cu611  Cu    0.83333   0.16667   0.54689   0.00000  Uiso   1.00
Cu612  Cu    0.83333   0.16666   0.45311   0.00000  Uiso   1.00
H613   H     0.77714   0.11933   0.37076   0.00000  Uiso   1.00
H614   H     0.95089   0.29828   0.52947   0.00000  Uiso   1.00
H615   H     0.73240   0.26991   0.47966   0.00000  Uiso   1.00
H616   H     0.75644   0.27205   0.42744   0.00000  Uiso   1.00
H617   H     0.93360   0.06325   0.52072   0.00000  Uiso   1.00
H618   H     0.90936   0.06110   0.57287   0.00000  Uiso   1.00
H619   H     0.77888   0.08195   0.62145   0.00000  Uiso   1.00
H620   H     0.73170   0.11712   0.61659   0.00000  Uiso   1.00
H621   H     0.88763   0.25143   0.37855   0.00000  Uiso   1.00
H622   H     0.93491   0.21634   0.38335   0.00000  Uiso   1.00
H623   H     0.88942   0.21410   0.62920   0.00000  Uiso   1.00
H624   H     0.99743   0.16214   0.41089   0.00000  Uiso   1.00
H625   H     0.67182   0.11448   0.43528   0.00000  Uiso   1.00
H626   H     0.66932   0.17175   0.58904   0.00000  Uiso   1.00
H627   H     0.99460   0.21928   0.56430   0.00000  Uiso   1.00
H628   H     0.75584   0.06102   0.42858   0.00000  Uiso   1.00
H629   H     0.73248   0.06161   0.48117   0.00000  Uiso   1.00
H630   H     0.92480   0.29744   0.58057   0.00000  Uiso   1.00
N631   N     0.83335   0.16668   0.61736   0.00000  Uiso   1.00
N632   N     0.89740   0.22139   0.38983   0.00000  Uiso   1.00
N633   N     0.83332   0.16666   0.38264   0.00000  Uiso   1.00
N634   N     0.98919   0.14355   0.43901   0.00000  Uiso   1.00
N635   N     0.67742   0.19024   0.56078   0.00000  Uiso   1.00
N636   N     0.74563   0.04253   0.45601   0.00000  Uiso   1.00
N637   N     0.91870   0.28927   0.54497   0.00000  Uiso   1.00
N638   N     0.74584   0.28980   0.45495   0.00000  Uiso   1.00
N639   N     0.92002   0.04338   0.54538   0.00000  Uiso   1.00
N640   N     0.76921   0.11200   0.61016   0.00000  Uiso   1.00
O641   O     0.83333   0.10655   0.53958   0.00000  Uiso   1.00
O642   O     0.83334   0.22678   0.46042   0.00000  Uiso   1.00
O643   O     0.83333   0.10654   0.46039   0.00000  Uiso   1.00
O644   O     0.83334   0.22679   0.53961   0.00000  Uiso   1.00
O645   O     0.75828   0.16667   0.53046   0.00000  Uiso   1.00
O646   O     0.90839   0.16666   0.46954   0.00000  Uiso   1.00
O647   O     0.75828   0.16666   0.45127   0.00000  Uiso   1.00
O648   O     0.90839   0.16667   0.54873   0.00000  Uiso   1.00
C649   C     0.16658   0.42085   0.50009   0.00000  Uiso   1.00
C650   C     0.20906   0.35498   0.52295   0.00000  Uiso   1.00
C651   C     0.16628   0.62371   0.49968   0.00000  Uiso   1.00
C652   C     0.16636   0.37621   0.50030   0.00000  Uiso   1.00
C653   C     0.13545   0.47368   0.35472   0.00000  Uiso   1.00
C654   C     0.19785   0.52635   0.64527   0.00000  Uiso   1.00
C655   C     0.13535   0.47353   0.63839   0.00000  Uiso   1.00
C656   C     0.19796   0.52649   0.36160   0.00000  Uiso   1.00
C657   C     0.16641   0.57913   0.49987   0.00000  Uiso   1.00
C658   C     0.06818   0.49954   0.48819   0.00000  Uiso   1.00
C659   C     0.26516   0.50052   0.51180   0.00000  Uiso   1.00
C660   C     0.01339   0.49503   0.48221   0.00000  Uiso   1.00
C661   C     0.31993   0.50516   0.51773   0.00000  Uiso   1.00
C662   C     0.12348   0.35460   0.47765   0.00000  Uiso   1.00
C663   C     0.20883   0.64511   0.52267   0.00000  Uiso   1.00
C664   C     0.12350   0.64488   0.47723   0.00000  Uiso   1.00
Cu665  Cu    0.16667   0.50001   0.54689   0.00000  Uiso   1.00
Cu666  Cu    0.16667   0.49999   0.45311   0.00000  Uiso   1.00
H667   H     0.11048   0.45266   0.37076   0.00000  Uiso   1.00
H668   H     0.28422   0.63162   0.52947   0.00000  Uiso   1.00
H669   H     0.06573   0.60324   0.47966   0.00000  Uiso   1.00
H670   H     0.08977   0.60538   0.42744   0.00000  Uiso   1.00
H671   H     0.26694   0.39658   0.52072   0.00000  Uiso   1.00
H672   H     0.24269   0.39443   0.57287   0.00000  Uiso   1.00
H673   H     0.11222   0.41528   0.62145   0.00000  Uiso   1.00
H674   H     0.06503   0.45045   0.61659   0.00000  Uiso   1.00
H675   H     0.22097   0.58476   0.37855   0.00000  Uiso   1.00
H676   H     0.26824   0.54968   0.38335   0.00000  Uiso   1.00
H677   H     0.22276   0.54744   0.62920   0.00000  Uiso   1.00
H678   H     0.33077   0.49548   0.41089   0.00000  Uiso   1.00
H679   H     0.00516   0.44781   0.43528   0.00000  Uiso   1.00
H680   H     0.00265   0.50509   0.58904   0.00000  Uiso   1.00
H681   H     0.32793   0.55261   0.56430   0.00000  Uiso   1.00
H682   H     0.08918   0.39435   0.42858   0.00000  Uiso   1.00
H683   H     0.06581   0.39495   0.48117   0.00000  Uiso   1.00
H684   H     0.25814   0.63078   0.58057   0.00000  Uiso   1.00
N685   N     0.16668   0.50001   0.61736   0.00000  Uiso   1.00
N686   N     0.23073   0.55472   0.38983   0.00000  Uiso   1.00
N687   N     0.16665   0.49999   0.38264   0.00000  Uiso   1.00
N688   N     0.32253   0.47689   0.43901   0.00000  Uiso   1.00
N689   N     0.01076   0.52357   0.56078   0.00000  Uiso   1.00
N690   N     0.07896   0.37586   0.45601   0.00000  Uiso   1.00
N691   N     0.25203   0.62260   0.54497   0.00000  Uiso   1.00
N692   N     0.07917   0.62313   0.45495   0.00000  Uiso   1.00
N693   N     0.25335   0.37671   0.54538   0.00000  Uiso   1.00
N694   N     0.10254   0.44533   0.61016   0.00000  Uiso   1.00
O695   O     0.16666   0.43989   0.53958   0.00000  Uiso   1.00
O696   O     0.16667   0.56011   0.46042   0.00000  Uiso   1.00
O697   O     0.16666   0.43988   0.46039   0.00000  Uiso   1.00
O698   O     0.16667   0.56012   0.53961   0.00000  Uiso   1.00
O699   O     0.09161   0.50000   0.53046   0.00000  Uiso   1.00
O700   O     0.24172   0.50000   0.46954   0.00000  Uiso   1.00
O701   O     0.09161   0.49999   0.45127   0.00000  Uiso   1.00
O702   O     0.24172   0.50001   0.54873   0.00000  Uiso   1.00
C703   C     0.49991   0.42085   0.50009   0.00000  Uiso   1.00
C704   C     0.54240   0.35498   0.52295   0.00000  Uiso   1.00
C705   C     0.49962   0.62371   0.49968   0.00000  Uiso   1.00
C706   C     0.49969   0.37621   0.50030   0.00000  Uiso   1.00
C707   C     0.46878   0.47368   0.35472   0.00000  Uiso   1.00
C708   C     0.53119   0.52635   0.64527   0.00000  Uiso   1.00
C709   C     0.46869   0.47353   0.63839   0.00000  Uiso   1.00
C710   C     0.53129   0.52649   0.36160   0.00000  Uiso   1.00
C711   C     0.49974   0.57913   0.49987   0.00000  Uiso   1.00
C712   C     0.40151   0.49954   0.48819   0.00000  Uiso   1.00
C713   C     0.59849   0.50052   0.51180   0.00000  Uiso   1.00
C714   C     0.34672   0.49503   0.48221   0.00000  Uiso   1.00
C715   C     0.65327   0.50516   0.51773   0.00000  Uiso   1.00
C716   C     0.45681   0.35460   0.47765   0.00000  Uiso   1.00
C717   C     0.54216   0.64511   0.52267   0.00000  Uiso   1.00
C718   C     0.45683   0.64488   0.47723   0.00000  Uiso   1.00
Cu719  Cu    0.50000   0.50001   0.54689   0.00000  Uiso   1.00
Cu720  Cu    0.50000   0.49999   0.45311   0.00000  Uiso   1.00
H721   H     0.44381   0.45266   0.37076   0.00000  Uiso   1.00
H722   H     0.61755   0.63162   0.52947   0.00000  Uiso   1.00
H723   H     0.39906   0.60324   0.47966   0.00000  Uiso   1.00
H724   H     0.42310   0.60538   0.42744   0.00000  Uiso   1.00
H725   H     0.60027   0.39658   0.52072   0.00000  Uiso   1.00
H726   H     0.57603   0.39443   0.57287   0.00000  Uiso   1.00
H727   H     0.44555   0.41528   0.62145   0.00000  Uiso   1.00
H728   H     0.39836   0.45045   0.61659   0.00000  Uiso   1.00
H729   H     0.55430   0.58476   0.37855   0.00000  Uiso   1.00
H730   H     0.60157   0.54968   0.38335   0.00000  Uiso   1.00
H731   H     0.55609   0.54744   0.62920   0.00000  Uiso   1.00
H732   H     0.66410   0.49548   0.41089   0.00000  Uiso   1.00
H733   H     0.33849   0.44781   0.43528   0.00000  Uiso   1.00
H734   H     0.33598   0.50509   0.58904   0.00000  Uiso   1.00
H735   H     0.66127   0.55261   0.56430   0.00000  Uiso   1.00
H736   H     0.42251   0.39435   0.42858   0.00000  Uiso   1.00
H737   H     0.39915   0.39495   0.48117   0.00000  Uiso   1.00
H738   H     0.59147   0.63078   0.58057   0.00000  Uiso   1.00
N739   N     0.50001   0.50001   0.61736   0.00000  Uiso   1.00
N740   N     0.56406   0.55472   0.38983   0.00000  Uiso   1.00
N741   N     0.49999   0.49999   0.38264   0.00000  Uiso   1.00
N742   N     0.65586   0.47689   0.43901   0.00000  Uiso   1.00
N743   N     0.34409   0.52357   0.56078   0.00000  Uiso   1.00
N744   N     0.41229   0.37586   0.45601   0.00000  Uiso   1.00
N745   N     0.58536   0.62260   0.54497   0.00000  Uiso   1.00
N746   N     0.41251   0.62313   0.45495   0.00000  Uiso   1.00
N747   N     0.58668   0.37671   0.54538   0.00000  Uiso   1.00
N748   N     0.43587   0.44533   0.61016   0.00000  Uiso   1.00
O749   O     0.50000   0.43989   0.53958   0.00000  Uiso   1.00
O750   O     0.50000   0.56011   0.46042   0.00000  Uiso   1.00
O751   O     0.50000   0.43988   0.46039   0.00000  Uiso   1.00
O752   O     0.50000   0.56012   0.53961   0.00000  Uiso   1.00
O753   O     0.42495   0.50000   0.53046   0.00000  Uiso   1.00
O754   O     0.57505   0.50000   0.46954   0.00000  Uiso   1.00
O755   O     0.42494   0.49999   0.45127   0.00000  Uiso   1.00
O756   O     0.57506   0.50001   0.54873   0.00000  Uiso   1.00
C757   C     0.83324   0.42085   0.50009   0.00000  Uiso   1.00
C758   C     0.87573   0.35498   0.52295   0.00000  Uiso   1.00
C759   C     0.83295   0.62371   0.49968   0.00000  Uiso   1.00
C760   C     0.83303   0.37621   0.50030   0.00000  Uiso   1.00
C761   C     0.80211   0.47368   0.35472   0.00000  Uiso   1.00
C762   C     0.86452   0.52635   0.64527   0.00000  Uiso   1.00
C763   C     0.80202   0.47353   0.63839   0.00000  Uiso   1.00
C764   C     0.86462   0.52649   0.36160   0.00000  Uiso   1.00
C765   C     0.83308   0.57913   0.49987   0.00000  Uiso   1.00
C766   C     0.73484   0.49954   0.48819   0.00000  Uiso   1.00
C767   C     0.93182   0.50052   0.51180   0.00000  Uiso   1.00
C768   C     0.68006   0.49503   0.48221   0.00000  Uiso   1.00
C769   C     0.98660   0.50516   0.51773   0.00000  Uiso   1.00
C770   C     0.79014   0.35460   0.47765   0.00000  Uiso   1.00
C771   C     0.87550   0.64511   0.52267   0.00000  Uiso   1.00
C772   C     0.79017   0.64488   0.47723   0.00000  Uiso   1.00
Cu773  Cu    0.83333   0.50001   0.54689   0.00000  Uiso   1.00
Cu774  Cu    0.83333   0.49999   0.45311   0.00000  Uiso   1.00
H775   H     0.77714   0.45266   0.37076   0.00000  Uiso   1.00
H776   H     0.95089   0.63162   0.52947   0.00000  Uiso   1.00
H777   H     0.73240   0.60324   0.47966   0.00000  Uiso   1.00
H778   H     0.75644   0.60538   0.42744   0.00000  Uiso   1.00
H779   H     0.93360   0.39658   0.52072   0.00000  Uiso   1.00
H780   H     0.90936   0.39443   0.57287   0.00000  Uiso   1.00
H781   H     0.77888   0.41528   0.62145   0.00000  Uiso   1.00
H782   H     0.73170   0.45045   0.61659   0.00000  Uiso   1.00
H783   H     0.88763   0.58476   0.37855   0.00000  Uiso   1.00
H784   H     0.93491   0.54968   0.38335   0.00000  Uiso   1.00
H785   H     0.88942   0.54744   0.62920   0.00000  Uiso   1.00
H786   H     0.99743   0.49548   0.41089   0.00000  Uiso   1.00
H787   H     0.67182   0.44781   0.43528   0.00000  Uiso   1.00
H788   H     0.66932   0.50509   0.58904   0.00000  Uiso   1.00
H789   H     0.99460   0.55261   0.56430   0.00000  Uiso   1.00
H790   H     0.75584   0.39435   0.42858   0.00000  Uiso   1.00
H791   H     0.73248   0.39495   0.48117   0.00000  Uiso   1.00
H792   H     0.92480   0.63078   0.58057   0.00000  Uiso   1.00
N793   N     0.83335   0.50001   0.61736   0.00000  Uiso   1.00
N794   N     0.89740   0.55472   0.38983   0.00000  Uiso   1.00
N795   N     0.83332   0.49999   0.38264   0.00000  Uiso   1.00
N796   N     0.98919   0.47689   0.43901   0.00000  Uiso   1.00
N797   N     0.67742   0.52357   0.56078   0.00000  Uiso   1.00
N798   N     0.74563   0.37586   0.45601   0.00000  Uiso   1.00
N799   N     0.91870   0.62260   0.54497   0.00000  Uiso   1.00
N800   N     0.74584   0.62313   0.45495   0.00000  Uiso   1.00
N801   N     0.92002   0.37671   0.54538   0.00000  Uiso   1.00
N802   N     0.76921   0.44533   0.61016   0.00000  Uiso   1.00
O803   O     0.83333   0.43989   0.53958   0.00000  Uiso   1.00
O804   O     0.83334   0.56011   0.46042   0.00000  Uiso   1.00
O805   O     0.83333   0.43988   0.46039   0.00000  Uiso   1.00
O806   O     0.83334   0.56012   0.53961   0.00000  Uiso   1.00
O807   O     0.75828   0.50000   0.53046   0.00000  Uiso   1.00
O808   O     0.90839   0.50000   0.46954   0.00000  Uiso   1.00
O809   O     0.75828   0.49999   0.45127   0.00000  Uiso   1.00
O810   O     0.90839   0.50001   0.54873   0.00000  Uiso   1.00
C811   C     0.16658   0.75418   0.50009   0.00000  Uiso   1.00
C812   C     0.20906   0.68831   0.52295   0.00000  Uiso   1.00
C813   C     0.16628   0.95704   0.49968   0.00000  Uiso   1.00
C814   C     0.16636   0.70955   0.50030   0.00000  Uiso   1.00
C815   C     0.13545   0.80702   0.35472   0.00000  Uiso   1.00
C816   C     0.19785   0.85968   0.64527   0.00000  Uiso   1.00
C817   C     0.13535   0.80687   0.63839   0.00000  Uiso   1.00
C818   C     0.19796   0.85982   0.36160   0.00000  Uiso   1.00
C819   C     0.16641   0.91246   0.49987   0.00000  Uiso   1.00
C820   C     0.06818   0.83287   0.48819   0.00000  Uiso   1.00
C821   C     0.26516   0.83386   0.51180   0.00000  Uiso   1.00
C822   C     0.01339   0.82836   0.48221   0.00000  Uiso   1.00
C823   C     0.31993   0.83850   0.51773   0.00000  Uiso   1.00
C824   C     0.12348   0.68793   0.47765   0.00000  Uiso   1.00
C825   C     0.20883   0.97844   0.52267   0.00000  Uiso   1.00
C826   C     0.12350   0.97822   0.47723   0.00000  Uiso   1.00
Cu827  Cu    0.16667   0.83334   0.54689   0.00000  Uiso   1.00
Cu828  Cu    0.16667   0.83333   0.45311   0.00000  Uiso   1.00
H829   H     0.11048   0.78599   0.37076   0.00000  Uiso   1.00
H830   H     0.28422   0.96495   0.52947   0.00000  Uiso   1.00
H831   H     0.06573   0.93657   0.47966   0.00000  Uiso   1.00
H832   H     0.08977   0.93872   0.42744   0.00000  Uiso   1.00
H833   H     0.26694   0.72992   0.52072   0.00000  Uiso   1.00
H834   H     0.24269   0.72777   0.57287   0.00000  Uiso   1.00
H835   H     0.11222   0.74861   0.62145   0.00000  Uiso   1.00
H836   H     0.06503   0.78379   0.61659   0.00000  Uiso   1.00
H837   H     0.22097   0.91810   0.37855   0.00000  Uiso   1.00
H838   H     0.26824   0.88301   0.38335   0.00000  Uiso   1.00
H839   H     0.22276   0.88077   0.62920   0.00000  Uiso   1.00
H840   H     0.33077   0.82881   0.41089   0.00000  Uiso   1.00
H841   H     0.00516   0.78115   0.43528   0.00000  Uiso   1.00
H842   H     0.00265   0.83842   0.58904   0.00000  Uiso   1.00
H843   H     0.32793   0.88595   0.56430   0.00000  Uiso   1.00
H844   H     0.08918   0.72769   0.42858   0.00000  Uiso   1.00
H845   H     0.06581   0.72828   0.48117   0.00000  Uiso   1.00
H846   H     0.25814   0.96411   0.58057   0.00000  Uiso   1.00
N847   N     0.16668   0.83334   0.61736   0.00000  Uiso   1.00
N848   N     0.23073   0.88806   0.38983   0.00000  Uiso   1.00
N849   N     0.16665   0.83332   0.38264   0.00000  Uiso   1.00
N850   N     0.32253   0.81022   0.43901   0.00000  Uiso   1.00
N851   N     0.01076   0.85690   0.56078   0.00000  Uiso   1.00
N852   N     0.07896   0.70919   0.45601   0.00000  Uiso   1.00
N853   N     0.25203   0.95594   0.54497   0.00000  Uiso   1.00
N854   N     0.07917   0.95647   0.45495   0.00000  Uiso   1.00
N855   N     0.25335   0.71004   0.54538   0.00000  Uiso   1.00
N856   N     0.10254   0.77867   0.61016   0.00000  Uiso   1.00
O857   O     0.16666   0.77322   0.53958   0.00000  Uiso   1.00
O858   O     0.16667   0.89345   0.46042   0.00000  Uiso   1.00
O859   O     0.16666   0.77321   0.46039   0.00000  Uiso   1.00
O860   O     0.16667   0.89346   0.53961   0.00000  Uiso   1.00
O861   O     0.09161   0.83334   0.53046   0.00000  Uiso   1.00
O862   O     0.24172   0.83333   0.46954   0.00000  Uiso   1.00
O863   O     0.09161   0.83333   0.45127   0.00000  Uiso   1.00
O864   O     0.24172   0.83334   0.54873   0.00000  Uiso   1.00
C865   C     0.49991   0.75418   0.50009   0.00000  Uiso   1.00
C866   C     0.54240   0.68831   0.52295   0.00000  Uiso   1.00
C867   C     0.49962   0.95704   0.49968   0.00000  Uiso   1.00
C868   C     0.49969   0.70955   0.50030   0.00000  Uiso   1.00
C869   C     0.46878   0.80702   0.35472   0.00000  Uiso   1.00
C870   C     0.53119   0.85968   0.64527   0.00000  Uiso   1.00
C871   C     0.46869   0.80687   0.63839   0.00000  Uiso   1.00
C872   C     0.53129   0.85982   0.36160   0.00000  Uiso   1.00
C873   C     0.49974   0.91246   0.49987   0.00000  Uiso   1.00
C874   C     0.40151   0.83287   0.48819   0.00000  Uiso   1.00
C875   C     0.59849   0.83386   0.51180   0.00000  Uiso   1.00
C876   C     0.34672   0.82836   0.48221   0.00000  Uiso   1.00
C877   C     0.65327   0.83850   0.51773   0.00000  Uiso   1.00
C878   C     0.45681   0.68793   0.47765   0.00000  Uiso   1.00
C879   C     0.54216   0.97844   0.52267   0.00000  Uiso   1.00
C880   C     0.45683   0.97822   0.47723   0.00000  Uiso   1.00
Cu881  Cu    0.50000   0.83334   0.54689   0.00000  Uiso   1.00
Cu882  Cu    0.50000   0.83333   0.45311   0.00000  Uiso   1.00
H883   H     0.44381   0.78599   0.37076   0.00000  Uiso   1.00
H884   H     0.61755   0.96495   0.52947   0.00000  Uiso   1.00
H885   H     0.39906   0.93657   0.47966   0.00000  Uiso   1.00
H886   H     0.42310   0.93872   0.42744   0.00000  Uiso   1.00
H887   H     0.60027   0.72992   0.52072   0.00000  Uiso   1.00
H888   H     0.57603   0.72777   0.57287   0.00000  Uiso   1.00
H889   H     0.44555   0.74861   0.62145   0.00000  Uiso   1.00
H890   H     0.39836   0.78379   0.61659   0.00000  Uiso   1.00
H891   H     0.55430   0.91810   0.37855   0.00000  Uiso   1.00
H892   H     0.60157   0.88301   0.38335   0.00000  Uiso   1.00
H893   H     0.55609   0.88077   0.62920   0.00000  Uiso   1.00
H894   H     0.66410   0.82881   0.41089   0.00000  Uiso   1.00
H895   H     0.33849   0.78115   0.43528   0.00000  Uiso   1.00
H896   H     0.33598   0.83842   0.58904   0.00000  Uiso   1.00
H897   H     0.66127   0.88595   0.56430   0.00000  Uiso   1.00
H898   H     0.42251   0.72769   0.42858   0.00000  Uiso   1.00
H899   H     0.39915   0.72828   0.48117   0.00000  Uiso   1.00
H900   H     0.59147   0.96411   0.58057   0.00000  Uiso   1.00
N901   N     0.50001   0.83334   0.61736   0.00000  Uiso   1.00
N902   N     0.56406   0.88806   0.38983   0.00000  Uiso   1.00
N903   N     0.49999   0.83332   0.38264   0.00000  Uiso   1.00
N904   N     0.65586   0.81022   0.43901   0.00000  Uiso   1.00
N905   N     0.34409   0.85690   0.56078   0.00000  Uiso   1.00
N906   N     0.41229   0.70919   0.45601   0.00000  Uiso   1.00
N907   N     0.58536   0.95594   0.54497   0.00000  Uiso   1.00
N908   N     0.41251   0.95647   0.45495   0.00000  Uiso   1.00
N909   N     0.58668   0.71004   0.54538   0.00000  Uiso   1.00
N910   N     0.43587   0.77867   0.61016   0.00000  Uiso   1.00
O911   O     0.50000   0.77322   0.53958   0.00000  Uiso   1.00
O912   O     0.50000   0.89345   0.46042   0.00000  Uiso   1.00
O913   O     0.50000   0.77321   0.46039   0.00000  Uiso   1.00
O914   O     0.50000   0.89346   0.53961   0.00000  Uiso   1.00
O915   O     0.42495   0.83334   0.53046   0.00000  Uiso   1.00
O916   O     0.57505   0.83333   0.46954   0.00000  Uiso   1.00
O917   O     0.42494   0.83333   0.45127   0.00000  Uiso   1.00
O918   O     0.57506   0.83334   0.54873   0.00000  Uiso   1.00
C919   C     0.83324   0.75418   0.50009   0.00000  Uiso   1.00
C920   C     0.87573   0.68831   0.52295   0.00000  Uiso   1.00
C921   C     0.83295   0.95704   0.49968   0.00000  Uiso   1.00
C922   C     0.83303   0.70955   0.50030   0.00000  Uiso   1.00
C923   C     0.80211   0.80702   0.35472   0.00000  Uiso   1.00
C924   C     0.86452   0.85968   0.64527   0.00000  Uiso   1.00
C925   C     0.80202   0.80687   0.63839   0.00000  Uiso   1.00
C926   C     0.86462   0.85982   0.36160   0.00000  Uiso   1.00
C927   C     0.83308   0.91246   0.49987   0.00000  Uiso   1.00
C928   C     0.73484   0.83287   0.48819   0.00000  Uiso   1.00
C929   C     0.93182   0.83386   0.51180   0.00000  Uiso   1.00
C930   C     0.68006   0.82836   0.48221   0.00000  Uiso   1.00
C931   C     0.98660   0.83850   0.51773   0.00000  Uiso   1.00
C932   C     0.79014   0.68793   0.47765   0.00000  Uiso   1.00
C933   C     0.87550   0.97844   0.52267   0.00000  Uiso   1.00
C934   C     0.79017   0.97822   0.47723   0.00000  Uiso   1.00
Cu935  Cu    0.83333   0.83334   0.54689   0.00000  Uiso   1.00
Cu936  Cu    0.83333   0.83333   0.45311   0.00000  Uiso   1.00
H937   H     0.77714   0.78599   0.37076   0.00000  Uiso   1.00
H938   H     0.95089   0.96495   0.52947   0.00000  Uiso   1.00
H939   H     0.73240   0.93657   0.47966   0.00000  Uiso   1.00
H940   H     0.75644   0.93872   0.42744   0.00000  Uiso   1.00
H941   H     0.93360   0.72992   0.52072   0.00000  Uiso   1.00
H942   H     0.90936   0.72777   0.57287   0.00000  Uiso   1.00
H943   H     0.77888   0.74861   0.62145   0.00000  Uiso   1.00
H944   H     0.73170   0.78379   0.61659   0.00000  Uiso   1.00
H945   H     0.88763   0.91810   0.37855   0.00000  Uiso   1.00
H946   H     0.93491   0.88301   0.38335   0.00000  Uiso   1.00
H947   H     0.88942   0.88077   0.62920   0.00000  Uiso   1.00
H948   H     0.99743   0.82881   0.41089   0.00000  Uiso   1.00
H949   H     0.67182   0.78115   0.43528   0.00000  Uiso   1.00
H950   H     0.66932   0.83842   0.58904   0.00000  Uiso   1.00
H951   H     0.99460   0.88595   0.56430   0.00000  Uiso   1.00
H952   H     0.75584   0.72769   0.42858   0.00000  Uiso   1.00
H953   H     0.73248   0.72828   0.48117   0.00000  Uiso   1.00
H954   H     0.92480   0.96411   0.58057   0.00000  Uiso   1.00
N955   N     0.83335   0.83334   0.61736   0.00000  Uiso   1.00
N956   N     0.89740   0.88806   0.38983   0.00000  Uiso   1.00
N957   N     0.83332   0.83332   0.38264   0.00000  Uiso   1.00
N958   N     0.98919   0.81022   0.43901   0.00000  Uiso   1.00
N959   N     0.67742   0.85690   0.56078   0.00000  Uiso   1.00
N960   N     0.74563   0.70919   0.45601   0.00000  Uiso   1.00
N961   N     0.91870   0.95594   0.54497   0.00000  Uiso   1.00
N962   N     0.74584   0.95647   0.45495   0.00000  Uiso   1.00
N963   N     0.92002   0.71004   0.54538   0.00000  Uiso   1.00
N964   N     0.76921   0.77867   0.61016   0.00000  Uiso   1.00
O965   O     0.83333   0.77322   0.53958   0.00000  Uiso   1.00
O966   O     0.83334   0.89345   0.46042   0.00000  Uiso   1.00
O967   O     0.83333   0.77321   0.46039   0.00000  Uiso   1.00
O968   O     0.83334   0.89346   0.53961   0.00000  Uiso   1.00
O969   O     0.75828   0.83334   0.53046   0.00000  Uiso   1.00
O970   O     0.90839   0.83333   0.46954   0.00000  Uiso   1.00
O971   O     0.75828   0.83333   0.45127   0.00000  Uiso   1.00
O972   O     0.90839   0.83334   0.54873   0.00000  Uiso   1.00
C973   C     0.16658   0.08751   0.83342   0.00000  Uiso   1.00
C974   C     0.20906   0.02164   0.85629   0.00000  Uiso   1.00
C975   C     0.16628   0.29038   0.83301   0.00000  Uiso   1.00
C976   C     0.16636   0.04288   0.83363   0.00000  Uiso   1.00
C977   C     0.13545   0.14035   0.68805   0.00000  Uiso   1.00
C978   C     0.19785   0.19302   0.97860   0.00000  Uiso   1.00
C979   C     0.13535   0.14020   0.97172   0.00000  Uiso   1.00
C980   C     0.19796   0.19315   0.69494   0.00000  Uiso   1.00
C981   C     0.16641   0.24579   0.83320   0.00000  Uiso   1.00
C982   C     0.06818   0.16620   0.82153   0.00000  Uiso   1.00
C983   C     0.26516   0.16719   0.84513   0.00000  Uiso   1.00
C984   C     0.01339   0.16169   0.81554   0.00000  Uiso   1.00
C985   C     0.31993   0.17183   0.85106   0.00000  Uiso   1.00
C986   C     0.12348   0.02127   0.81098   0.00000  Uiso   1.00
C987   C     0.20883   0.31177   0.85601   0.00000  Uiso   1.00
C988   C     0.12350   0.31155   0.81057   0.00000  Uiso   1.00
Cu989  Cu    0.16667   0.16667   0.88022   0.00000  Uiso   1.00
Cu990  Cu    0.16667   0.16666   0.78645   0.00000  Uiso   1.00
H991   H     0.11048   0.11933   0.70409   0.00000  Uiso   1.00
H992   H     0.28422   0.29828   0.86280   0.00000  Uiso   1.00
H993   H     0.06573   0.26991   0.81300   0.00000  Uiso   1.00
H994   H     0.08977   0.27205   0.76077   0.00000  Uiso   1.00
H995   H     0.26694   0.06325   0.85406   0.00000  Uiso   1.00
H996   H     0.24269   0.06110   0.90621   0.00000  Uiso   1.00
H997   H     0.11222   0.08195   0.95478   0.00000  Uiso   1.00
H998   H     0.06503   0.11712   0.94993   0.00000  Uiso   1.00
H999   H     0.22097   0.25143   0.71189   0.00000  Uiso   1.00
H1000  H     0.26824   0.21634   0.71668   0.00000  Uiso   1.00
H1001  H     0.22276   0.21410   0.96253   0.00000  Uiso   1.00
H1002  H     0.33077   0.16214   0.74422   0.00000  Uiso   1.00
H1003  H     0.00516   0.11448   0.76862   0.00000  Uiso   1.00
H1004  H     0.00265   0.17175   0.92237   0.00000  Uiso   1.00
H1005  H     0.32793   0.21928   0.89763   0.00000  Uiso   1.00
H1006  H     0.08918   0.06102   0.76192   0.00000  Uiso   1.00
H1007  H     0.06581   0.06161   0.81450   0.00000  Uiso   1.00
H1008  H     0.25814   0.29744   0.91391   0.00000  Uiso   1.00
N1009  N     0.16668   0.16668   0.95069   0.00000  Uiso   1.00
N1010  N     0.23073   0.22139   0.72316   0.00000  Uiso   1.00
N1011  N     0.16665   0.16666   0.71597   0.00000  Uiso   1.00
N1012  N     0.32253   0.14355   0.77235   0.00000  Uiso   1.00
N1013  N     0.01076   0.19024   0.89411   0.00000  Uiso   1.00
N1014  N     0.07896   0.04253   0.78934   0.00000  Uiso   1.00
N1015  N     0.25203   0.28927   0.87831   0.00000  Uiso   1.00
N1016  N     0.07917   0.28980   0.78828   0.00000  Uiso   1.00
N1017  N     0.25335   0.04338   0.87871   0.00000  Uiso   1.00
N1018  N     0.10254   0.11200   0.94349   0.00000  Uiso   1.00
O1019  O     0.16666   0.10655   0.87291   0.00000  Uiso   1.00
O1020  O     0.16667   0.22678   0.79375   0.00000  Uiso   1.00
O1021  O     0.16666   0.10654   0.79372   0.00000  Uiso   1.00
O1022  O     0.16667   0.22679   0.87294   0.00000  Uiso   1.00
O1023  O     0.09161   0.16667   0.86379   0.00000  Uiso   1.00
O1024  O     0.24172   0.16666   0.80288   0.00000  Uiso   1.00
O1025  O     0.09161   0.16666   0.78460   0.00000  Uiso   1.00
O1026  O     0.24172   0.16667   0.88207   0.00000  Uiso   1.00
C1027  C     0.49991   0.08751   0.83342   0.00000  Uiso   1.00
C1028  C     0.54240   0.02164   0.85629   0.00000  Uiso   1.00
C1029  C     0.49962   0.29038   0.83301   0.00000  Uiso   1.00
C1030  C     0.49969   0.04288   0.83363   0.00000  Uiso   1.00
C1031  C     0.46878   0.14035   0.68805   0.00000  Uiso   1.00
C1032  C     0.53119   0.19302   0.97860   0.00000  Uiso   1.00
C1033  C     0.46869   0.14020   0.97172   0.00000  Uiso   1.00
C1034  C     0.53129   0.19315   0.69494   0.00000  Uiso   1.00
C1035  C     0.49974   0.24579   0.83320   0.00000  Uiso   1.00
C1036  C     0.40151   0.16620   0.82153   0.00000  Uiso   1.00
C1037  C     0.59849   0.16719   0.84513   0.00000  Uiso   1.00
C1038  C     0.34672   0.16169   0.81554   0.00000  Uiso   1.00
C1039  C     0.65327   0.17183   0.85106   0.00000  Uiso   1.00
C1040  C     0.45681   0.02127   0.81098   0.00000  Uiso   1.00
C1041  C     0.54216   0.31177   0.85601   0.00000  Uiso   1.00
C1042  C     0.45683   0.31155   0.81057   0.00000  Uiso   1.00
Cu1043 Cu    0.50000   0.16667   0.88022   0.00000  Uiso   1.00
Cu1044 Cu    0.50000   0.16666   0.78645   0.00000  Uiso   1.00
H1045  H     0.44381   0.11933   0.70409   0.00000  Uiso   1.00
H1046  H     0.61755   0.29828   0.86280   0.00000  Uiso   1.00
H1047  H     0.39906   0.26991   0.81300   0.00000  Uiso   1.00
H1048  H     0.42310   0.27205   0.76077   0.00000  Uiso   1.00
H1049  H     0.60027   0.06325   0.85406   0.00000  Uiso   1.00
H1050  H     0.57603   0.06110   0.90621   0.00000  Uiso   1.00
H1051  H     0.44555   0.08195   0.95478   0.00000  Uiso   1.00
H1052  H     0.39836   0.11712   0.94993   0.00000  Uiso   1.00
H1053  H     0.55430   0.25143   0.71189   0.00000  Uiso   1.00
H1054  H     0.60157   0.21634   0.71668   0.00000  Uiso   1.00
H1055  H     0.55609   0.21410   0.96253   0.00000  Uiso   1.00
H1056  H     0.66410   0.16214   0.74422   0.00000  Uiso   1.00
H1057  H     0.33849   0.11448   0.76862   0.00000  Uiso   1.00
H1058  H     0.33598   0.17175   0.92237   0.00000  Uiso   1.00
H1059  H     0.66127   0.21928   0.89763   0.00000  Uiso   1.00
H1060  H     0.42251   0.06102   0.76192   0.00000  Uiso   1.00
H1061  H     0.39915   0.06161   0.81450   0.00000  Uiso   1.00
H1062  H     0.59147   0.29744   0.91391   0.00000  Uiso   1.00
N1063  N     0.50001   0.16668   0.95069   0.00000  Uiso   1.00
N1064  N     0.56406   0.22139   0.72316   0.00000  Uiso   1.00
N1065  N     0.49999   0.16666   0.71597   0.00000  Uiso   1.00
N1066  N     0.65586   0.14355   0.77235   0.00000  Uiso   1.00
N1067  N     0.34409   0.19024   0.89411   0.00000  Uiso   1.00
N1068  N     0.41229   0.04253   0.78934   0.00000  Uiso   1.00
N1069  N     0.58536   0.28927   0.87831   0.00000  Uiso   1.00
N1070  N     0.41251   0.28980   0.78828   0.00000  Uiso   1.00
N1071  N     0.58668   0.04338   0.87871   0.00000  Uiso   1.00
N1072  N     0.43587   0.11200   0.94349   0.00000  Uiso   1.00
O1073  O     0.50000   0.10655   0.87291   0.00000  Uiso   1.00
O1074  O     0.50000   0.22678   0.79375   0.00000  Uiso   1.00
O1075  O     0.50000   0.10654   0.79372   0.00000  Uiso   1.00
O1076  O     0.50000   0.22679   0.87294   0.00000  Uiso   1.00
O1077  O     0.42495   0.16667   0.86379   0.00000  Uiso   1.00
O1078  O     0.57505   0.16666   0.80288   0.00000  Uiso   1.00
O1079  O     0.42494   0.16666   0.78460   0.00000  Uiso   1.00
O1080  O     0.57506   0.16667   0.88207   0.00000  Uiso   1.00
C1081  C     0.83324   0.08751   0.83342   0.00000  Uiso   1.00
C1082  C     0.87573   0.02164   0.85629   0.00000  Uiso   1.00
C1083  C     0.83295   0.29038   0.83301   0.00000  Uiso   1.00
C1084  C     0.83303   0.04288   0.83363   0.00000  Uiso   1.00
C1085  C     0.80211   0.14035   0.68805   0.00000  Uiso   1.00
C1086  C     0.86452   0.19302   0.97860   0.00000  Uiso   1.00
C1087  C     0.80202   0.14020   0.97172   0.00000  Uiso   1.00
C1088  C     0.86462   0.19315   0.69494   0.00000  Uiso   1.00
C1089  C     0.83308   0.24579   0.83320   0.00000  Uiso   1.00
C1090  C     0.73484   0.16620   0.82153   0.00000  Uiso   1.00
C1091  C     0.93182   0.16719   0.84513   0.00000  Uiso   1.00
C1092  C     0.68006   0.16169   0.81554   0.00000  Uiso   1.00
C1093  C     0.98660   0.17183   0.85106   0.00000  Uiso   1.00
C1094  C     0.79014   0.02127   0.81098   0.00000  Uiso   1.00
C1095  C     0.87550   0.31177   0.85601   0.00000  Uiso   1.00
C1096  C     0.79017   0.31155   0.81057   0.00000  Uiso   1.00
Cu1097 Cu    0.83333   0.16667   0.88022   0.00000  Uiso   1.00
Cu1098 Cu    0.83333   0.16666   0.78645   0.00000  Uiso   1.00
H1099  H     0.77714   0.11933   0.70409   0.00000  Uiso   1.00
H1100  H     0.95089   0.29828   0.86280   0.00000  Uiso   1.00
H1101  H     0.73240   0.26991   0.81300   0.00000  Uiso   1.00
H1102  H     0.75644   0.27205   0.76077   0.00000  Uiso   1.00
H1103  H     0.93360   0.06325   0.85406   0.00000  Uiso   1.00
H1104  H     0.90936   0.06110   0.90621   0.00000  Uiso   1.00
H1105  H     0.77888   0.08195   0.95478   0.00000  Uiso   1.00
H1106  H     0.73170   0.11712   0.94993   0.00000  Uiso   1.00
H1107  H     0.88763   0.25143   0.71189   0.00000  Uiso   1.00
H1108  H     0.93491   0.21634   0.71668   0.00000  Uiso   1.00
H1109  H     0.88942   0.21410   0.96253   0.00000  Uiso   1.00
H1110  H     0.99743   0.16214   0.74422   0.00000  Uiso   1.00
H1111  H     0.67182   0.11448   0.76862   0.00000  Uiso   1.00
H1112  H     0.66932   0.17175   0.92237   0.00000  Uiso   1.00
H1113  H     0.99460   0.21928   0.89763   0.00000  Uiso   1.00
H1114  H     0.75584   0.06102   0.76192   0.00000  Uiso   1.00
H1115  H     0.73248   0.06161   0.81450   0.00000  Uiso   1.00
H1116  H     0.92480   0.29744   0.91391   0.00000  Uiso   1.00
N1117  N     0.83335   0.16668   0.95069   0.00000  Uiso   1.00
N1118  N     0.89740   0.22139   0.72316   0.00000  Uiso   1.00
N1119  N     0.83332   0.16666   0.71597   0.00000  Uiso   1.00
N1120  N     0.98919   0.14355   0.77235   0.00000  Uiso   1.00
N1121  N     0.67742   0.19024   0.89411   0.00000  Uiso   1.00
N1122  N     0.74563   0.04253   0.78934   0.00000  Uiso   1.00
N1123  N     0.91870   0.28927   0.87831   0.00000  Uiso   1.00
N1124  N     0.74584   0.28980   0.78828   0.00000  Uiso   1.00
N1125  N     0.92002   0.04338   0.87871   0.00000  Uiso   1.00
N1126  N     0.76921   0.11200   0.94349   0.00000  Uiso   1.00
O1127  O     0.83333   0.10655   0.87291   0.00000  Uiso   1.00
O1128  O     0.83334   0.22678   0.79375   0.00000  Uiso   1.00
O1129  O     0.83333   0.10654   0.79372   0.00000  Uiso   1.00
O1130  O     0.83334   0.22679   0.87294   0.00000  Uiso   1.00
O1131  O     0.75828   0.16667   0.86379   0.00000  Uiso   1.00
O1132  O     0.90839   0.16666   0.80288   0.00000  Uiso   1.00
O1133  O     0.75828   0.16666   0.78460   0.00000  Uiso   1.00
O1134  O     0.90839   0.16667   0.88207   0.00000  Uiso   1.00
C1135  C     0.16658   0.42085   0.83342   0.00000  Uiso   1.00
C1136  C     0.20906   0.35498   0.85629   0.00000  Uiso   1.00
C1137  C     0.16628   0.62371   0.83301   0.00000  Uiso   1.00
C1138  C     0.16636   0.37621   0.83363   0.00000  Uiso   1.00
C1139  C     0.13545   0.47368   0.68805   0.00000  Uiso   1.00
C1140  C     0.19785   0.52635   0.97860   0.00000  Uiso   1.00
C1141  C     0.13535   0.47353   0.97172   0.00000  Uiso   1.00
C1142  C     0.19796   0.52649   0.69494   0.00000  Uiso   1.00
C1143  C     0.16641   0.57913   0.83320   0.00000  Uiso   1.00
C1144  C     0.06818   0.49954   0.82153   0.00000  Uiso   1.00
C1145  C     0.26516   0.50052   0.84513   0.00000  Uiso   1.00
C1146  C     0.01339   0.49503   0.81554   0.00000  Uiso   1.00
C1147  C     0.31993   0.50516   0.85106   0.00000  Uiso   1.00
C1148  C     0.12348   0.35460   0.81098   0.00000  Uiso   1.00
C1149  C     0.20883   0.64511   0.85601   0.00000  Uiso   1.00
C1150  C     0.12350   0.64488   0.81057   0.00000  Uiso   1.00
Cu1151 Cu    0.16667   0.50001   0.88022   0.00000  Uiso   1.00
Cu1152 Cu    0.16667   0.49999   0.78645   0.00000  Uiso   1.00
H1153  H     0.11048   0.45266   0.70409   0.00000  Uiso   1.00
H1154  H     0.28422   0.63162   0.86280   0.00000  Uiso   1.00
H1155  H     0.06573   0.60324   0.81300   0.00000  Uiso   1.00
H1156  H     0.08977   0.60538   0.76077   0.00000  Uiso   1.00
H1157  H     0.26694   0.39658   0.85406   0.00000  Uiso   1.00
H1158  H     0.24269   0.39443   0.90621   0.00000  Uiso   1.00
H1159  H     0.11222   0.41528   0.95478   0.00000  Uiso   1.00
H1160  H     0.06503   0.45045   0.94993   0.00000  Uiso   1.00
H1161  H     0.22097   0.58476   0.71189   0.00000  Uiso   1.00
H1162  H     0.26824   0.54968   0.71668   0.00000  Uiso   1.00
H1163  H     0.22276   0.54744   0.96253   0.00000  Uiso   1.00
H1164  H     0.33077   0.49548   0.74422   0.00000  Uiso   1.00
H1165  H     0.00516   0.44781   0.76862   0.00000  Uiso   1.00
H1166  H     0.00265   0.50509   0.92237   0.00000  Uiso   1.00
H1167  H     0.32793   0.55261   0.89763   0.00000  Uiso   1.00
H1168  H     0.08918   0.39435   0.76192   0.00000  Uiso   1.00
H1169  H     0.06581   0.39495   0.81450   0.00000  Uiso   1.00
H1170  H     0.25814   0.63078   0.91391   0.00000  Uiso   1.00
N1171  N     0.16668   0.50001   0.95069   0.00000  Uiso   1.00
N1172  N     0.23073   0.55472   0.72316   0.00000  Uiso   1.00
N1173  N     0.16665   0.49999   0.71597   0.00000  Uiso   1.00
N1174  N     0.32253   0.47689   0.77235   0.00000  Uiso   1.00
N1175  N     0.01076   0.52357   0.89411   0.00000  Uiso   1.00
N1176  N     0.07896   0.37586   0.78934   0.00000  Uiso   1.00
N1177  N     0.25203   0.62260   0.87831   0.00000  Uiso   1.00
N1178  N     0.07917   0.62313   0.78828   0.00000  Uiso   1.00
N1179  N     0.25335   0.37671   0.87871   0.00000  Uiso   1.00
N1180  N     0.10254   0.44533   0.94349   0.00000  Uiso   1.00
O1181  O     0.16666   0.43989   0.87291   0.00000  Uiso   1.00
O1182  O     0.16667   0.56011   0.79375   0.00000  Uiso   1.00
O1183  O     0.16666   0.43988   0.79372   0.00000  Uiso   1.00
O1184  O     0.16667   0.56012   0.87294   0.00000  Uiso   1.00
O1185  O     0.09161   0.50000   0.86379   0.00000  Uiso   1.00
O1186  O     0.24172   0.50000   0.80288   0.00000  Uiso   1.00
O1187  O     0.09161   0.49999   0.78460   0.00000  Uiso   1.00
O1188  O     0.24172   0.50001   0.88207   0.00000  Uiso   1.00
C1189  C     0.49991   0.42085   0.83342   0.00000  Uiso   1.00
C1190  C     0.54240   0.35498   0.85629   0.00000  Uiso   1.00
C1191  C     0.49962   0.62371   0.83301   0.00000  Uiso   1.00
C1192  C     0.49969   0.37621   0.83363   0.00000  Uiso   1.00
C1193  C     0.46878   0.47368   0.68805   0.00000  Uiso   1.00
C1194  C     0.53119   0.52635   0.97860   0.00000  Uiso   1.00
C1195  C     0.46869   0.47353   0.97172   0.00000  Uiso   1.00
C1196  C     0.53129   0.52649   0.69494   0.00000  Uiso   1.00
C1197  C     0.49974   0.57913   0.83320   0.00000  Uiso   1.00
C1198  C     0.40151   0.49954   0.82153   0.00000  Uiso   1.00
C1199  C     0.59849   0.50052   0.84513   0.00000  Uiso   1.00
C1200  C     0.34672   0.49503   0.81554   0.00000  Uiso   1.00
C1201  C     0.65327   0.50516   0.85106   0.00000  Uiso   1.00
C1202  C     0.45681   0.35460   0.81098   0.00000  Uiso   1.00
C1203  C     0.54216   0.64511   0.85601   0.00000  Uiso   1.00
C1204  C     0.45683   0.64488   0.81057   0.00000  Uiso   1.00
Cu1205 Cu    0.50000   0.50001   0.88022   0.00000  Uiso   1.00
Cu1206 Cu    0.50000   0.49999   0.78645   0.00000  Uiso   1.00
H1207  H     0.44381   0.45266   0.70409   0.00000  Uiso   1.00
H1208  H     0.61755   0.63162   0.86280   0.00000  Uiso   1.00
H1209  H     0.39906   0.60324   0.81300   0.00000  Uiso   1.00
H1210  H     0.42310   0.60538   0.76077   0.00000  Uiso   1.00
H1211  H     0.60027   0.39658   0.85406   0.00000  Uiso   1.00
H1212  H     0.57603   0.39443   0.90621   0.00000  Uiso   1.00
H1213  H     0.44555   0.41528   0.95478   0.00000  Uiso   1.00
H1214  H     0.39836   0.45045   0.94993   0.00000  Uiso   1.00
H1215  H     0.55430   0.58476   0.71189   0.00000  Uiso   1.00
H1216  H     0.60157   0.54968   0.71668   0.00000  Uiso   1.00
H1217  H     0.55609   0.54744   0.96253   0.00000  Uiso   1.00
H1218  H     0.66410   0.49548   0.74422   0.00000  Uiso   1.00
H1219  H     0.33849   0.44781   0.76862   0.00000  Uiso   1.00
H1220  H     0.33598   0.50509   0.92237   0.00000  Uiso   1.00
H1221  H     0.66127   0.55261   0.89763   0.00000  Uiso   1.00
H1222  H     0.42251   0.39435   0.76192   0.00000  Uiso   1.00
H1223  H     0.39915   0.39495   0.81450   0.00000  Uiso   1.00
H1224  H     0.59147   0.63078   0.91391   0.00000  Uiso   1.00
N1225  N     0.50001   0.50001   0.95069   0.00000  Uiso   1.00
N1226  N     0.56406   0.55472   0.72316   0.00000  Uiso   1.00
N1227  N     0.49999   0.49999   0.71597   0.00000  Uiso   1.00
N1228  N     0.65586   0.47689   0.77235   0.00000  Uiso   1.00
N1229  N     0.34409   0.52357   0.89411   0.00000  Uiso   1.00
N1230  N     0.41229   0.37586   0.78934   0.00000  Uiso   1.00
N1231  N     0.58536   0.62260   0.87831   0.00000  Uiso   1.00
N1232  N     0.41251   0.62313   0.78828   0.00000  Uiso   1.00
N1233  N     0.58668   0.37671   0.87871   0.00000  Uiso   1.00
N1234  N     0.43587   0.44533   0.94349   0.00000  Uiso   1.00
O1235  O     0.50000   0.43989   0.87291   0.00000  Uiso   1.00
O1236  O     0.50000   0.56011   0.79375   0.00000  Uiso   1.00
O1237  O     0.50000   0.43988   0.79372   0.00000  Uiso   1.00
O1238  O     0.50000   0.56012   0.87294   0.00000  Uiso   1.00
O1239  O     0.42495   0.50000   0.86379   0.00000  Uiso   1.00
O1240  O     0.57505   0.50000   0.80288   0.00000  Uiso   1.00
O1241  O     0.42494   0.49999   0.78460   0.00000  Uiso   1.00
O1242  O     0.57506   0.50001   0.88207   0.00000  Uiso   1.00
C1243  C     0.83324   0.42085   0.83342   0.00000  Uiso   1.00
C1244  C     0.87573   0.35498   0.85629   0.00000  Uiso   1.00
C1245  C     0.83295   0.62371   0.83301   0.00000  Uiso   1.00
C1246  C     0.83303   0.37621   0.83363   0.00000  Uiso   1.00
C1247  C     0.80211   0.47368   0.68805   0.00000  Uiso   1.00
C1248  C     0.86452   0.52635   0.97860   0.00000  Uiso   1.00
C1249  C     0.80202   0.47353   0.97172   0.00000  Uiso   1.00
C1250  C     0.86462   0.52649   0.69494   0.00000  Uiso   1.00
C1251  C     0.83308   0.57913   0.83320   0.00000  Uiso   1.00
C1252  C     0.73484   0.49954   0.82153   0.00000  Uiso   1.00
C1253  C     0.93182   0.50052   0.84513   0.00000  Uiso   1.00
C1254  C     0.68006   0.49503   0.81554   0.00000  Uiso   1.00
C1255  C     0.98660   0.50516   0.85106   0.00000  Uiso   1.00
C1256  C     0.79014   0.35460   0.81098   0.00000  Uiso   1.00
C1257  C     0.87550   0.64511   0.85601   0.00000  Uiso   1.00
C1258  C     0.79017   0.64488   0.81057   0.00000  Uiso   1.00
Cu1259 Cu    0.83333   0.50001   0.88022   0.00000  Uiso   1.00
Cu1260 Cu    0.83333   0.49999   0.78645   0.00000  Uiso   1.00
H1261  H     0.77714   0.45266   0.70409   0.00000  Uiso   1.00
H1262  H     0.95089   0.63162   0.86280   0.00000  Uiso   1.00
H1263  H     0.73240   0.60324   0.81300   0.00000  Uiso   1.00
H1264  H     0.75644   0.60538   0.76077   0.00000  Uiso   1.00
H1265  H     0.93360   0.39658   0.85406   0.00000  Uiso   1.00
H1266  H     0.90936   0.39443   0.90621   0.00000  Uiso   1.00
H1267  H     0.77888   0.41528   0.95478   0.00000  Uiso   1.00
H1268  H     0.73170   0.45045   0.94993   0.00000  Uiso   1.00
H1269  H     0.88763   0.58476   0.71189   0.00000  Uiso   1.00
H1270  H     0.93491   0.54968   0.71668   0.00000  Uiso   1.00
H1271  H     0.88942   0.54744   0.96253   0.00000  Uiso   1.00
H1272  H     0.99743   0.49548   0.74422   0.00000  Uiso   1.00
H1273  H     0.67182   0.44781   0.76862   0.00000  Uiso   1.00
H1274  H     0.66932   0.50509   0.92237   0.00000  Uiso   1.00
H1275  H     0.99460   0.55261   0.89763   0.00000  Uiso   1.00
H1276  H     0.75584   0.39435   0.76192   0.00000  Uiso   1.00
H1277  H     0.73248   0.39495   0.81450   0.00000  Uiso   1.00
H1278  H     0.92480   0.63078   0.91391   0.00000  Uiso   1.00
N1279  N     0.83335   0.50001   0.95069   0.00000  Uiso   1.00
N1280  N     0.89740   0.55472   0.72316   0.00000  Uiso   1.00
N1281  N     0.83332   0.49999   0.71597   0.00000  Uiso   1.00
N1282  N     0.98919   0.47689   0.77235   0.00000  Uiso   1.00
N1283  N     0.67742   0.52357   0.89411   0.00000  Uiso   1.00
N1284  N     0.74563   0.37586   0.78934   0.00000  Uiso   1.00
N1285  N     0.91870   0.62260   0.87831   0.00000  Uiso   1.00
N1286  N     0.74584   0.62313   0.78828   0.00000  Uiso   1.00
N1287  N     0.92002   0.37671   0.87871   0.00000  Uiso   1.00
N1288  N     0.76921   0.44533   0.94349   0.00000  Uiso   1.00
O1289  O     0.83333   0.43989   0.87291   0.00000  Uiso   1.00
O1290  O     0.83334   0.56011   0.79375   0.00000  Uiso   1.00
O1291  O     0.83333   0.43988   0.79372   0.00000  Uiso   1.00
O1292  O     0.83334   0.56012   0.87294   0.00000  Uiso   1.00
O1293  O     0.75828   0.50000   0.86379   0.00000  Uiso   1.00
O1294  O     0.90839   0.50000   0.80288   0.00000  Uiso   1.00
O1295  O     0.75828   0.49999   0.78460   0.00000  Uiso   1.00
O1296  O     0.90839   0.50001   0.88207   0.00000  Uiso   1.00
C1297  C     0.16658   0.75418   0.83342   0.00000  Uiso   1.00
C1298  C     0.20906   0.68831   0.85629   0.00000  Uiso   1.00
C1299  C     0.16628   0.95704   0.83301   0.00000  Uiso   1.00
C1300  C     0.16636   0.70955   0.83363   0.00000  Uiso   1.00
C1301  C     0.13545   0.80702   0.68805   0.00000  Uiso   1.00
C1302  C     0.19785   0.85968   0.97860   0.00000  Uiso   1.00
C1303  C     0.13535   0.80687   0.97172   0.00000  Uiso   1.00
C1304  C     0.19796   0.85982   0.69494   0.00000  Uiso   1.00
C1305  C     0.16641   0.91246   0.83320   0.00000  Uiso   1.00
C1306  C     0.06818   0.83287   0.82153   0.00000  Uiso   1.00
C1307  C     0.26516   0.83386   0.84513   0.00000  Uiso   1.00
C1308  C     0.01339   0.82836   0.81554   0.00000  Uiso   1.00
C1309  C     0.31993   0.83850   0.85106   0.00000  Uiso   1.00
C1310  C     0.12348   0.68793   0.81098   0.00000  Uiso   1.00
C1311  C     0.20883   0.97844   0.85601   0.00000  Uiso   1.00
C1312  C     0.12350   0.97822   0.81057   0.00000  Uiso   1.00
Cu1313 Cu    0.16667   0.83334   0.88022   0.00000  Uiso   1.00
Cu1314 Cu    0.16667   0.83333   0.78645   0.00000  Uiso   1.00
H1315  H     0.11048   0.78599   0.70409   0.00000  Uiso   1.00
H1316  H     0.28422   0.96495   0.86280   0.00000  Uiso   1.00
H1317  H     0.06573   0.93657   0.81300   0.00000  Uiso   1.00
H1318  H     0.08977   0.93872   0.76077   0.00000  Uiso   1.00
H1319  H     0.26694   0.72992   0.85406   0.00000  Uiso   1.00
H1320  H     0.24269   0.72777   0.90621   0.00000  Uiso   1.00
H1321  H     0.11222   0.74861   0.95478   0.00000  Uiso   1.00
H1322  H     0.06503   0.78379   0.94993   0.00000  Uiso   1.00
H1323  H     0.22097   0.91810   0.71189   0.00000  Uiso   1.00
H1324  H     0.26824   0.88301   0.71668   0.00000  Uiso   1.00
H1325  H     0.22276   0.88077   0.96253   0.00000  Uiso   1.00
H1326  H     0.33077   0.82881   0.74422   0.00000  Uiso   1.00
H1327  H     0.00516   0.78115   0.76862   0.00000  Uiso   1.00
H1328  H     0.00265   0.83842   0.92237   0.00000  Uiso   1.00
H1329  H     0.32793   0.88595   0.89763   0.00000  Uiso   1.00
H1330  H     0.08918   0.72769   0.76192   0.00000  Uiso   1.00
H1331  H     0.06581   0.72828   0.81450   0.00000  Uiso   1.00
H1332  H     0.25814   0.96411   0.91391   0.00000  Uiso   1.00
N1333  N     0.16668   0.83334   0.95069   0.00000  Uiso   1.00
N1334  N     0.23073   0.88806   0.72316   0.00000  Uiso   1.00
N1335  N     0.16665   0.83332   0.71597   0.00000  Uiso   1.00
N1336  N     0.32253   0.81022   0.77235   0.00000  Uiso   1.00
N1337  N     0.01076   0.85690   0.89411   0.00000  Uiso   1.00
N1338  N     0.07896   0.70919   0.78934   0.00000  Uiso   1.00
N1339  N     0.25203   0.95594   0.87831   0.00000  Uiso   1.00
N1340  N     0.07917   0.95647   0.78828   0.00000  Uiso   1.00
N1341  N     0.25335   0.71004   0.87871   0.00000  Uiso   1.00
N1342  N     0.10254   0.77867   0.94349   0.00000  Uiso   1.00
O1343  O     0.16666   0.77322   0.87291   0.00000  Uiso   1.00
O1344  O     0.16667   0.89345   0.79375   0.00000  Uiso   1.00
O1345  O     0.16666   0.77321   0.79372   0.00000  Uiso   1.00
O1346  O     0.16667   0.89346   0.87294   0.00000  Uiso   1.00
O1347  O     0.09161   0.83334   0.86379   0.00000  Uiso   1.00
O1348  O     0.24172   0.83333   0.80288   0.00000  Uiso   1.00
O1349  O     0.09161   0.83333   0.78460   0.00000  Uiso   1.00
O1350  O     0.24172   0.83334   0.88207   0.00000  Uiso   1.00
C1351  C     0.49991   0.75418   0.83342   0.00000  Uiso   1.00
C1352  C     0.54240   0.68831   0.85629   0.00000  Uiso   1.00
C1353  C     0.49962   0.95704   0.83301   0.00000  Uiso   1.00
C1354  C     0.49969   0.70955   0.83363   0.00000  Uiso   1.00
C1355  C     0.46878   0.80702   0.68805   0.00000  Uiso   1.00
C1356  C     0.53119   0.85968   0.97860   0.00000  Uiso   1.00
C1357  C     0.46869   0.80687   0.97172   0.00000  Uiso   1.00
C1358  C     0.53129   0.85982   0.69494   0.00000  Uiso   1.00
C1359  C     0.49974   0.91246   0.83320   0.00000  Uiso   1.00
C1360  C     0.40151   0.83287   0.82153   0.00000  Uiso   1.00
C1361  C     0.59849   0.83386   0.84513   0.00000  Uiso   1.00
C1362  C     0.34672   0.82836   0.81554   0.00000  Uiso   1.00
C1363  C     0.65327   0.83850   0.85106   0.00000  Uiso   1.00
C1364  C     0.45681   0.68793   0.81098   0.00000  Uiso   1.00
C1365  C     0.54216   0.97844   0.85601   0.00000  Uiso   1.00
C1366  C     0.45683   0.97822   0.81057   0.00000  Uiso   1.00
Cu1367 Cu    0.50000   0.83334   0.88022   0.00000  Uiso   1.00
Cu1368 Cu    0.50000   0.83333   0.78645   0.00000  Uiso   1.00
H1369  H     0.44381   0.78599   0.70409   0.00000  Uiso   1.00
H1370  H     0.61755   0.96495   0.86280   0.00000  Uiso   1.00
H1371  H     0.39906   0.93657   0.81300   0.00000  Uiso   1.00
H1372  H     0.42310   0.93872   0.76077   0.00000  Uiso   1.00
H1373  H     0.60027   0.72992   0.85406   0.00000  Uiso   1.00
H1374  H     0.57603   0.72777   0.90621   0.00000  Uiso   1.00
H1375  H     0.44555   0.74861   0.95478   0.00000  Uiso   1.00
H1376  H     0.39836   0.78379   0.94993   0.00000  Uiso   1.00
H1377  H     0.55430   0.91810   0.71189   0.00000  Uiso   1.00
H1378  H     0.60157   0.88301   0.71668   0.00000  Uiso   1.00
H1379  H     0.55609   0.88077   0.96253   0.00000  Uiso   1.00
H1380  H     0.66410   0.82881   0.74422   0.00000  Uiso   1.00
H1381  H     0.33849   0.78115   0.76862   0.00000  Uiso   1.00
H1382  H     0.33598   0.83842   0.92237   0.00000  Uiso   1.00
H1383  H     0.66127   0.88595   0.89763   0.00000  Uiso   1.00
H1384  H     0.42251   0.72769   0.76192   0.00000  Uiso   1.00
H1385  H     0.39915   0.72828   0.81450   0.00000  Uiso   1.00
H1386  H     0.59147   0.96411   0.91391   0.00000  Uiso   1.00
N1387  N     0.50001   0.83334   0.95069   0.00000  Uiso   1.00
N1388  N     0.56406   0.88806   0.72316   0.00000  Uiso   1.00
N1389  N     0.49999   0.83332   0.71597   0.00000  Uiso   1.00
N1390  N     0.65586   0.81022   0.77235   0.00000  Uiso   1.00
N1391  N     0.34409   0.85690   0.89411   0.00000  Uiso   1.00
N1392  N     0.41229   0.70919   0.78934   0.00000  Uiso   1.00
N1393  N     0.58536   0.95594   0.87831   0.00000  Uiso   1.00
N1394  N     0.41251   0.95647   0.78828   0.00000  Uiso   1.00
N1395  N     0.58668   0.71004   0.87871   0.00000  Uiso   1.00
N1396  N     0.43587   0.77867   0.94349   0.00000  Uiso   1.00
O1397  O     0.50000   0.77322   0.87291   0.00000  Uiso   1.00
O1398  O     0.50000   0.89345   0.79375   0.00000  Uiso   1.00
O1399  O     0.50000   0.77321   0.79372   0.00000  Uiso   1.00
O1400  O     0.50000   0.89346   0.87294   0.00000  Uiso   1.00
O1401  O     0.42495   0.83334   0.86379   0.00000  Uiso   1.00
O1402  O     0.57505   0.83333   0.80288   0.00000  Uiso   1.00
O1403  O     0.42494   0.83333   0.78460   0.00000  Uiso   1.00
O1404  O     0.57506   0.83334   0.88207   0.00000  Uiso   1.00
C1405  C     0.83324   0.75418   0.83342   0.00000  Uiso   1.00
C1406  C     0.87573   0.68831   0.85629   0.00000  Uiso   1.00
C1407  C     0.83295   0.95704   0.83301   0.00000  Uiso   1.00
C1408  C     0.83303   0.70955   0.83363   0.00000  Uiso   1.00
C1409  C     0.80211   0.80702   0.68805   0.00000  Uiso   1.00
C1410  C     0.86452   0.85968   0.97860   0.00000  Uiso   1.00
C1411  C     0.80202   0.80687   0.97172   0.00000  Uiso   1.00
C1412  C     0.86462   0.85982   0.69494   0.00000  Uiso   1.00
C1413  C     0.83308   0.91246   0.83320   0.00000  Uiso   1.00
C1414  C     0.73484   0.83287   0.82153   0.00000  Uiso   1.00
C1415  C     0.93182   0.83386   0.84513   0.00000  Uiso   1.00
C1416  C     0.68006   0.82836   0.81554   0.00000  Uiso   1.00
C1417  C     0.98660   0.83850   0.85106   0.00000  Uiso   1.00
C1418  C     0.79014   0.68793   0.81098   0.00000  Uiso   1.00
C1419  C     0.87550   0.97844   0.85601   0.00000  Uiso   1.00
C1420  C     0.79017   0.97822   0.81057   0.00000  Uiso   1.00
Cu1421 Cu    0.83333   0.83334   0.88022   0.00000  Uiso   1.00
Cu1422 Cu    0.83333   0.83333   0.78645   0.00000  Uiso   1.00
H1423  H     0.77714   0.78599   0.70409   0.00000  Uiso   1.00
H1424  H     0.95089   0.96495   0.86280   0.00000  Uiso   1.00
H1425  H     0.73240   0.93657   0.81300   0.00000  Uiso   1.00
H1426  H     0.75644   0.93872   0.76077   0.00000  Uiso   1.00
H1427  H     0.93360   0.72992   0.85406   0.00000  Uiso   1.00
H1428  H     0.90936   0.72777   0.90621   0.00000  Uiso   1.00
H1429  H     0.77888   0.74861   0.95478   0.00000  Uiso   1.00
H1430  H     0.73170   0.78379   0.94993   0.00000  Uiso   1.00
H1431  H     0.88763   0.91810   0.71189   0.00000  Uiso   1.00
H1432  H     0.93491   0.88301   0.71668   0.00000  Uiso   1.00
H1433  H     0.88942   0.88077   0.96253   0.00000  Uiso   1.00
H1434  H     0.99743   0.82881   0.74422   0.00000  Uiso   1.00
H1435  H     0.67182   0.78115   0.76862   0.00000  Uiso   1.00
H1436  H     0.66932   0.83842   0.92237   0.00000  Uiso   1.00
H1437  H     0.99460   0.88595   0.89763   0.00000  Uiso   1.00
H1438  H     0.75584   0.72769   0.76192   0.00000  Uiso   1.00
H1439  H     0.73248   0.72828   0.81450   0.00000  Uiso   1.00
H1440  H     0.92480   0.96411   0.91391   0.00000  Uiso   1.00
N1441  N     0.83335   0.83334   0.95069   0.00000  Uiso   1.00
N1442  N     0.89740   0.88806   0.72316   0.00000  Uiso   1.00
N1443  N     0.83332   0.83332   0.71597   0.00000  Uiso   1.00
N1444  N     0.98919   0.81022   0.77235   0.00000  Uiso   1.00
N1445  N     0.67742   0.85690   0.89411   0.00000  Uiso   1.00
N1446  N     0.74563   0.70919   0.78934   0.00000  Uiso   1.00
N1447  N     0.91870   0.95594   0.87831   0.00000  Uiso   1.00
N1448  N     0.74584   0.95647   0.78828   0.00000  Uiso   1.00
N1449  N     0.92002   0.71004   0.87871   0.00000  Uiso   1.00
N1450  N     0.76921   0.77867   0.94349   0.00000  Uiso   1.00
O1451  O     0.83333   0.77322   0.87291   0.00000  Uiso   1.00
O1452  O     0.83334   0.89345   0.79375   0.00000  Uiso   1.00
O1453  O     0.83333   0.77321   0.79372   0.00000  Uiso   1.00
O1454  O     0.83334   0.89346   0.87294   0.00000  Uiso   1.00
O1455  O     0.75828   0.83334   0.86379   0.00000  Uiso   1.00
O1456  O     0.90839   0.83333   0.80288   0.00000  Uiso   1.00
O1457  O     0.75828   0.83333   0.78460   0.00000  Uiso   1.00
O1458  O     0.90839   0.83334   0.88207   0.00000  Uiso   1.00
loop_
_geom_bond_atom_site_label_1
_geom_bond_atom_site_label_2
_geom_bond_distance
_geom_bond_site_symmetry_2
_ccdc_geom_bond_type
C1     C4      1.442   .     S
C1     O47     1.289   .     A
C1     O49     1.289   .     A
C2     C4      1.409   .     A
C2     N45     1.436   .     S
C2     C339    1.396   1_545 S
C3     C9      1.440   .     S
C3     C15     1.403   .     A
C3     C16     1.407   .     A
C4     C14     1.409   .     A
C5     N39     1.364   .     A
C5     H19     1.082   .     S
C5     C979    1.421   1_554 S
C6     H29     1.082   .     S
C6     N37     1.364   .     A
C6     C494    1.421   .     S
C7     N37     1.372   .     A
C7     N46     1.429   .     S
C7     C491    1.421   .     S
C8     N39     1.373   .     A
C8     N38     1.429   .     S
C8     C978    1.421   1_554 S
C9     O48     1.289   .     A
C9     O50     1.289   .     A
C10    C12     1.440   .     S
C10    O51     1.285   .     A
C10    O53     1.291   .     A
C11    C13     1.440   .     S
C11    O54     1.292   .     A
C11    O52     1.285   .     A
C12    C121    1.355   1_455 S
C12    N148    1.440   1_455 S
C13    C66     1.355   .     S
C13    N95     1.440   .     S
C14    N42     1.436   .     S
C14    C340    1.391   1_545 S
C15    N43     1.436   .     S
C15    C164    1.396   .     S
C16    N44     1.436   .     S
C16    C176    1.391   .     S
Cu17   O50     1.952   .     S
Cu17   O51     1.976   .     S
Cu17   Cu18    2.684   .     S
Cu17   N37     2.017   .     S
Cu17   O54     1.974   .     S
Cu17   O47     1.954   .     S
Cu18   O52     1.976   .     S
Cu18   N39     2.017   .     S
Cu18   O53     1.974   .     S
Cu18   O49     1.952   .     S
Cu18   O48     1.954   .     S
H20    N43     1.046   .     S
H21    N44     1.046   .     S
H22    N44     1.045   .     S
H23    N45     1.046   .     S
H24    N45     1.045   .     S
H25    N46     1.046   .     S
H26    N46     1.045   .     S
H27    N38     1.046   .     S
H28    N38     1.045   .     S
H30    N40     1.045   .     S
H31    N148    1.045   1_455 S
H32    N41     1.045   .     S
H33    N95     1.046   .     S
H34    N42     1.045   .     S
H35    N42     1.046   .     S
H36    N43     1.046   .     S
N40    H85     1.045   .     S
N40    C66     1.440   .     S
N41    H141    1.046   1_455 S
N41    C121    1.440   1_455 S
C55    C58     1.442   .     S
C55    O101    1.289   .     A
C55    O103    1.289   .     A
C56    C58     1.409   .     A
C56    N99     1.436   .     S
C56    C393    1.396   1_545 S
C57    C63     1.440   .     S
C57    C69     1.403   .     A
C57    C70     1.407   .     A
C58    C68     1.409   .     A
C59    N93     1.364   .     A
C59    H73     1.082   .     S
C59    C1033   1.421   1_554 S
C60    H83     1.082   .     S
C60    N91     1.364   .     A
C60    C548    1.421   .     S
C61    N91     1.372   .     A
C61    N100    1.429   .     S
C61    C545    1.421   .     S
C62    N93     1.373   .     A
C62    N92     1.429   .     S
C62    C1032   1.421   1_554 S
C63    O102    1.289   .     A
C63    O104    1.289   .     A
C64    C66     1.440   .     S
C64    O105    1.285   .     A
C64    O107    1.291   .     A
C65    C67     1.440   .     S
C65    O108    1.292   .     A
C65    O106    1.285   .     A
C67    C120    1.355   .     S
C67    N149    1.440   .     S
C68    N96     1.436   .     S
C68    C394    1.391   1_545 S
C69    N97     1.436   .     S
C69    C218    1.396   .     S
C70    N98     1.436   .     S
C70    C230    1.391   .     S
Cu71   O104    1.952   .     S
Cu71   O105    1.976   .     S
Cu71   Cu72    2.684   .     S
Cu71   N91     2.017   .     S
Cu71   O108    1.974   .     S
Cu71   O101    1.954   .     S
Cu72   O106    1.976   .     S
Cu72   N93     2.017   .     S
Cu72   O107    1.974   .     S
Cu72   O103    1.952   .     S
Cu72   O102    1.954   .     S
H74    N97     1.046   .     S
H75    N98     1.046   .     S
H76    N98     1.045   .     S
H77    N99     1.046   .     S
H78    N99     1.045   .     S
H79    N100    1.046   .     S
H80    N100    1.045   .     S
H81    N92     1.046   .     S
H82    N92     1.045   .     S
H84    N94     1.045   .     S
H86    N95     1.045   .     S
H87    N149    1.046   .     S
H88    N96     1.045   .     S
H89    N96     1.046   .     S
H90    N97     1.046   .     S
N94    H139    1.045   .     S
N94    C120    1.440   .     S
C109   C112    1.442   .     S
C109   O155    1.289   .     A
C109   O157    1.289   .     A
C110   C112    1.409   .     A
C110   N153    1.436   .     S
C110   C447    1.396   1_545 S
C111   C117    1.440   .     S
C111   C123    1.403   .     A
C111   C124    1.407   .     A
C112   C122    1.409   .     A
C113   N147    1.364   .     A
C113   H127    1.082   .     S
C113   C1087   1.421   1_554 S
C114   H137    1.082   .     S
C114   N145    1.364   .     A
C114   C602    1.421   .     S
C115   N145    1.372   .     A
C115   N154    1.429   .     S
C115   C599    1.421   .     S
C116   N147    1.373   .     A
C116   N146    1.429   .     S
C116   C1086   1.421   1_554 S
C117   O156    1.289   .     A
C117   O158    1.289   .     A
C118   C120    1.440   .     S
C118   O159    1.285   .     A
C118   O161    1.291   .     A
C119   C121    1.440   .     S
C119   O162    1.292   .     A
C119   O160    1.285   .     A
C121   C12     1.355   1_655 S
C121   N41     1.440   1_655 S
C122   N150    1.436   .     S
C122   C448    1.391   1_545 S
C123   N151    1.436   .     S
C123   C272    1.396   .     S
C124   N152    1.436   .     S
C124   C284    1.391   .     S
Cu125  O158    1.952   .     S
Cu125  O159    1.976   .     S
Cu125  Cu126   2.684   .     S
Cu125  N145    2.017   .     S
Cu125  O162    1.974   .     S
Cu125  O155    1.954   .     S
Cu126  O160    1.976   .     S
Cu126  N147    2.017   .     S
Cu126  O161    1.974   .     S
Cu126  O157    1.952   .     S
Cu126  O156    1.954   .     S
H128   N151    1.046   .     S
H129   N152    1.046   .     S
H130   N152    1.045   .     S
H131   N153    1.046   .     S
H132   N153    1.045   .     S
H133   N154    1.046   .     S
H134   N154    1.045   .     S
H135   N146    1.046   .     S
H136   N146    1.045   .     S
H138   N148    1.045   .     S
H140   N149    1.045   .     S
H141   N41     1.046   1_655 S
H142   N150    1.045   .     S
H143   N150    1.046   .     S
H144   N151    1.046   .     S
N148   H31     1.045   1_655 S
N148   C12     1.440   1_655 S
C163   C166    1.442   .     S
C163   O209    1.289   .     A
C163   O211    1.289   .     A
C164   C166    1.409   .     A
C164   N207    1.436   .     S
C165   C171    1.440   .     S
C165   C177    1.403   .     A
C165   C178    1.407   .     A
C166   C176    1.409   .     A
C167   N201    1.364   .     A
C167   H181    1.082   .     S
C167   C1141   1.421   1_554 S
C168   H191    1.082   .     S
C168   N199    1.364   .     A
C168   C656    1.421   .     S
C169   N199    1.372   .     A
C169   N208    1.429   .     S
C169   C653    1.421   .     S
C170   N201    1.373   .     A
C170   N200    1.429   .     S
C170   C1140   1.421   1_554 S
C171   O210    1.289   .     A
C171   O212    1.289   .     A
C172   C174    1.440   .     S
C172   O213    1.285   .     A
C172   O215    1.291   .     A
C173   C175    1.440   .     S
C173   O216    1.292   .     A
C173   O214    1.285   .     A
C174   C283    1.355   1_455 S
C174   N310    1.440   1_455 S
C175   C228    1.355   .     S
C175   N257    1.440   .     S
C176   N204    1.436   .     S
C177   N205    1.436   .     S
C177   C326    1.396   .     S
C178   N206    1.436   .     S
C178   C338    1.391   .     S
Cu179  O212    1.952   .     S
Cu179  O213    1.976   .     S
Cu179  Cu180   2.684   .     S
Cu179  N199    2.017   .     S
Cu179  O216    1.974   .     S
Cu179  O209    1.954   .     S
Cu180  O214    1.976   .     S
Cu180  N201    2.017   .     S
Cu180  O215    1.974   .     S
Cu180  O211    1.952   .     S
Cu180  O210    1.954   .     S
H182   N205    1.046   .     S
H183   N206    1.046   .     S
H184   N206    1.045   .     S
H185   N207    1.046   .     S
H186   N207    1.045   .     S
H187   N208    1.046   .     S
H188   N208    1.045   .     S
H189   N200    1.046   .     S
H190   N200    1.045   .     S
H192   N202    1.045   .     S
H193   N310    1.045   1_455 S
H194   N203    1.045   .     S
H195   N257    1.046   .     S
H196   N204    1.045   .     S
H197   N204    1.046   .     S
H198   N205    1.046   .     S
N202   H247    1.045   .     S
N202   C228    1.440   .     S
N203   H303    1.046   1_455 S
N203   C283    1.440   1_455 S
C217   C220    1.442   .     S
C217   O263    1.289   .     A
C217   O265    1.289   .     A
C218   C220    1.409   .     A
C218   N261    1.436   .     S
C219   C225    1.440   .     S
C219   C231    1.403   .     A
C219   C232    1.407   .     A
C220   C230    1.409   .     A
C221   N255    1.364   .     A
C221   H235    1.082   .     S
C221   C1195   1.421   1_554 S
C222   H245    1.082   .     S
C222   N253    1.364   .     A
C222   C710    1.421   .     S
C223   N253    1.372   .     A
C223   N262    1.429   .     S
C223   C707    1.421   .     S
C224   N255    1.373   .     A
C224   N254    1.429   .     S
C224   C1194   1.421   1_554 S
C225   O264    1.289   .     A
C225   O266    1.289   .     A
C226   C228    1.440   .     S
C226   O267    1.285   .     A
C226   O269    1.291   .     A
C227   C229    1.440   .     S
C227   O270    1.292   .     A
C227   O268    1.285   .     A
C229   C282    1.355   .     S
C229   N311    1.440   .     S
C230   N258    1.436   .     S
C231   N259    1.436   .     S
C231   C380    1.396   .     S
C232   N260    1.436   .     S
C232   C392    1.391   .     S
Cu233  O266    1.952   .     S
Cu233  O267    1.976   .     S
Cu233  Cu234   2.684   .     S
Cu233  N253    2.017   .     S
Cu233  O270    1.974   .     S
Cu233  O263    1.954   .     S
Cu234  O268    1.976   .     S
Cu234  N255    2.017   .     S
Cu234  O269    1.974   .     S
Cu234  O265    1.952   .     S
Cu234  O264    1.954   .     S
H236   N259    1.046   .     S
H237   N260    1.046   .     S
H238   N260    1.045   .     S
H239   N261    1.046   .     S
H240   N261    1.045   .     S
H241   N262    1.046   .     S
H242   N262    1.045   .     S
H243   N254    1.046   .     S
H244   N254    1.045   .     S
H246   N256    1.045   .     S
H248   N257    1.045   .     S
H249   N311    1.046   .     S
H250   N258    1.045   .     S
H251   N258    1.046   .     S
H252   N259    1.046   .     S
N256   H301    1.045   .     S
N256   C282    1.440   .     S
C271   C274    1.442   .     S
C271   O317    1.289   .     A
C271   O319    1.289   .     A
C272   C274    1.409   .     A
C272   N315    1.436   .     S
C273   C279    1.440   .     S
C273   C285    1.403   .     A
C273   C286    1.407   .     A
C274   C284    1.409   .     A
C275   N309    1.364   .     A
C275   H289    1.082   .     S
C275   C1249   1.421   1_554 S
C276   H299    1.082   .     S
C276   N307    1.364   .     A
C276   C764    1.421   .     S
C277   N307    1.372   .     A
C277   N316    1.429   .     S
C277   C761    1.421   .     S
C278   N309    1.373   .     A
C278   N308    1.429   .     S
C278   C1248   1.421   1_554 S
C279   O318    1.289   .     A
C279   O320    1.289   .     A
C280   C282    1.440   .     S
C280   O321    1.285   .     A
C280   O323    1.291   .     A
C281   C283    1.440   .     S
C281   O324    1.292   .     A
C281   O322    1.285   .     A
C283   C174    1.355   1_655 S
C283   N203    1.440   1_655 S
C284   N312    1.436   .     S
C285   N313    1.436   .     S
C285   C434    1.396   .     S
C286   N314    1.436   .     S
C286   C446    1.391   .     S
Cu287  O320    1.952   .     S
Cu287  O321    1.976   .     S
Cu287  Cu288   2.684   .     S
Cu287  N307    2.017   .     S
Cu287  O324    1.974   .     S
Cu287  O317    1.954   .     S
Cu288  O322    1.976   .     S
Cu288  N309    2.017   .     S
Cu288  O323    1.974   .     S
Cu288  O319    1.952   .     S
Cu288  O318    1.954   .     S
H290   N313    1.046   .     S
H291   N314    1.046   .     S
H292   N314    1.045   .     S
H293   N315    1.046   .     S
H294   N315    1.045   .     S
H295   N316    1.046   .     S
H296   N316    1.045   .     S
H297   N308    1.046   .     S
H298   N308    1.045   .     S
H300   N310    1.045   .     S
H302   N311    1.045   .     S
H303   N203    1.046   1_655 S
H304   N312    1.045   .     S
H305   N312    1.046   .     S
H306   N313    1.046   .     S
N310   H193    1.045   1_655 S
N310   C174    1.440   1_655 S
C325   C328    1.442   .     S
C325   O371    1.289   .     A
C325   O373    1.289   .     A
C326   C328    1.409   .     A
C326   N369    1.436   .     S
C327   C333    1.440   .     S
C327   C339    1.403   .     A
C327   C340    1.407   .     A
C328   C338    1.409   .     A
C329   N363    1.364   .     A
C329   H343    1.082   .     S
C329   C1303   1.421   1_554 S
C330   H353    1.082   .     S
C330   N361    1.364   .     A
C330   C818    1.421   .     S
C331   N361    1.372   .     A
C331   N370    1.429   .     S
C331   C815    1.421   .     S
C332   N363    1.373   .     A
C332   N362    1.429   .     S
C332   C1302   1.421   1_554 S
C333   O372    1.289   .     A
C333   O374    1.289   .     A
C334   C336    1.440   .     S
C334   O375    1.285   .     A
C334   O377    1.291   .     A
C335   C337    1.440   .     S
C335   O378    1.292   .     A
C335   O376    1.285   .     A
C336   C445    1.355   1_455 S
C336   N472    1.440   1_455 S
C337   C390    1.355   .     S
C337   N419    1.440   .     S
C338   N366    1.436   .     S
C339   N367    1.436   .     S
C339   C2      1.396   1_565 S
C340   N368    1.436   .     S
C340   C14     1.391   1_565 S
Cu341  O374    1.952   .     S
Cu341  O375    1.976   .     S
Cu341  Cu342   2.684   .     S
Cu341  N361    2.017   .     S
Cu341  O378    1.974   .     S
Cu341  O371    1.954   .     S
Cu342  O376    1.976   .     S
Cu342  N363    2.017   .     S
Cu342  O377    1.974   .     S
Cu342  O373    1.952   .     S
Cu342  O372    1.954   .     S
H344   N367    1.046   .     S
H345   N368    1.046   .     S
H346   N368    1.045   .     S
H347   N369    1.046   .     S
H348   N369    1.045   .     S
H349   N370    1.046   .     S
H350   N370    1.045   .     S
H351   N362    1.046   .     S
H352   N362    1.045   .     S
H354   N364    1.045   .     S
H355   N472    1.045   1_455 S
H356   N365    1.045   .     S
H357   N419    1.046   .     S
H358   N366    1.045   .     S
H359   N366    1.046   .     S
H360   N367    1.046   .     S
N364   H409    1.045   .     S
N364   C390    1.440   .     S
N365   H465    1.046   1_455 S
N365   C445    1.440   1_455 S
C379   C382    1.442   .     S
C379   O425    1.289   .     A
C379   O427    1.289   .     A
C380   C382    1.409   .     A
C380   N423    1.436   .     S
C381   C387    1.440   .     S
C381   C393    1.403   .     A
C381   C394    1.407   .     A
C382   C392    1.409   .     A
C383   N417    1.364   .     A
C383   H397    1.082   .     S
C383   C1357   1.421   1_554 S
C384   H407    1.082   .     S
C384   N415    1.364   .     A
C384   C872    1.421   .     S
C385   N415    1.372   .     A
C385   N424    1.429   .     S
C385   C869    1.421   .     S
C386   N417    1.373   .     A
C386   N416    1.429   .     S
C386   C1356   1.421   1_554 S
C387   O426    1.289   .     A
C387   O428    1.289   .     A
C388   C390    1.440   .     S
C388   O429    1.285   .     A
C388   O431    1.291   .     A
C389   C391    1.440   .     S
C389   O432    1.292   .     A
C389   O430    1.285   .     A
C391   C444    1.355   .     S
C391   N473    1.440   .     S
C392   N420    1.436   .     S
C393   N421    1.436   .     S
C393   C56     1.396   1_565 S
C394   N422    1.436   .     S
C394   C68     1.391   1_565 S
Cu395  O428    1.952   .     S
Cu395  O429    1.976   .     S
Cu395  Cu396   2.684   .     S
Cu395  N415    2.017   .     S
Cu395  O432    1.974   .     S
Cu395  O425    1.954   .     S
Cu396  O430    1.976   .     S
Cu396  N417    2.017   .     S
Cu396  O431    1.974   .     S
Cu396  O427    1.952   .     S
Cu396  O426    1.954   .     S
H398   N421    1.046   .     S
H399   N422    1.046   .     S
H400   N422    1.045   .     S
H401   N423    1.046   .     S
H402   N423    1.045   .     S
H403   N424    1.046   .     S
H404   N424    1.045   .     S
H405   N416    1.046   .     S
H406   N416    1.045   .     S
H408   N418    1.045   .     S
H410   N419    1.045   .     S
H411   N473    1.046   .     S
H412   N420    1.045   .     S
H413   N420    1.046   .     S
H414   N421    1.046   .     S
N418   H463    1.045   .     S
N418   C444    1.440   .     S
C433   C436    1.442   .     S
C433   O479    1.289   .     A
C433   O481    1.289   .     A
C434   C436    1.409   .     A
C434   N477    1.436   .     S
C435   C441    1.440   .     S
C435   C447    1.403   .     A
C435   C448    1.407   .     A
C436   C446    1.409   .     A
C437   N471    1.364   .     A
C437   H451    1.082   .     S
C437   C1411   1.421   1_554 S
C438   H461    1.082   .     S
C438   N469    1.364   .     A
C438   C926    1.421   .     S
C439   N469    1.372   .     A
C439   N478    1.429   .     S
C439   C923    1.421   .     S
C440   N471    1.373   .     A
C440   N470    1.429   .     S
C440   C1410   1.421   1_554 S
C441   O480    1.289   .     A
C441   O482    1.289   .     A
C442   C444    1.440   .     S
C442   O483    1.285   .     A
C442   O485    1.291   .     A
C443   C445    1.440   .     S
C443   O486    1.292   .     A
C443   O484    1.285   .     A
C445   C336    1.355   1_655 S
C445   N365    1.440   1_655 S
C446   N474    1.436   .     S
C447   N475    1.436   .     S
C447   C110    1.396   1_565 S
C448   N476    1.436   .     S
C448   C122    1.391   1_565 S
Cu449  O482    1.952   .     S
Cu449  O483    1.976   .     S
Cu449  Cu450   2.684   .     S
Cu449  N469    2.017   .     S
Cu449  O486    1.974   .     S
Cu449  O479    1.954   .     S
Cu450  O484    1.976   .     S
Cu450  N471    2.017   .     S
Cu450  O485    1.974   .     S
Cu450  O481    1.952   .     S
Cu450  O480    1.954   .     S
H452   N475    1.046   .     S
H453   N476    1.046   .     S
H454   N476    1.045   .     S
H455   N477    1.046   .     S
H456   N477    1.045   .     S
H457   N478    1.046   .     S
H458   N478    1.045   .     S
H459   N470    1.046   .     S
H460   N470    1.045   .     S
H462   N472    1.045   .     S
H464   N473    1.045   .     S
H465   N365    1.046   1_655 S
H466   N474    1.045   .     S
H467   N474    1.046   .     S
H468   N475    1.046   .     S
N472   H355    1.045   1_655 S
N472   C336    1.440   1_655 S
C487   C490    1.442   .     S
C487   O533    1.289   .     A
C487   O535    1.289   .     A
C488   C490    1.409   .     A
C488   N531    1.436   .     S
C488   C825    1.396   1_545 S
C489   C495    1.440   .     S
C489   C501    1.403   .     A
C489   C502    1.407   .     A
C490   C500    1.409   .     A
C491   N525    1.364   .     A
C491   H505    1.082   .     S
C492   H515    1.082   .     S
C492   N523    1.364   .     A
C492   C980    1.421   .     S
C493   N523    1.372   .     A
C493   N532    1.429   .     S
C493   C977    1.421   .     S
C494   N525    1.373   .     A
C494   N524    1.429   .     S
C495   O534    1.289   .     A
C495   O536    1.289   .     A
C496   C498    1.440   .     S
C496   O537    1.285   .     A
C496   O539    1.291   .     A
C497   C499    1.440   .     S
C497   O540    1.292   .     A
C497   O538    1.285   .     A
C498   C607    1.355   1_455 S
C498   N634    1.440   1_455 S
C499   C552    1.355   .     S
C499   N581    1.440   .     S
C500   N528    1.436   .     S
C500   C826    1.391   1_545 S
C501   N529    1.436   .     S
C501   C650    1.396   .     S
C502   N530    1.436   .     S
C502   C662    1.391   .     S
Cu503  O536    1.952   .     S
Cu503  O537    1.976   .     S
Cu503  Cu504   2.684   .     S
Cu503  N523    2.017   .     S
Cu503  O540    1.974   .     S
Cu503  O533    1.954   .     S
Cu504  O538    1.976   .     S
Cu504  N525    2.017   .     S
Cu504  O539    1.974   .     S
Cu504  O535    1.952   .     S
Cu504  O534    1.954   .     S
H506   N529    1.046   .     S
H507   N530    1.046   .     S
H508   N530    1.045   .     S
H509   N531    1.046   .     S
H510   N531    1.045   .     S
H511   N532    1.046   .     S
H512   N532    1.045   .     S
H513   N524    1.046   .     S
H514   N524    1.045   .     S
H516   N526    1.045   .     S
H517   N634    1.045   1_455 S
H518   N527    1.045   .     S
H519   N581    1.046   .     S
H520   N528    1.045   .     S
H521   N528    1.046   .     S
H522   N529    1.046   .     S
N526   H571    1.045   .     S
N526   C552    1.440   .     S
N527   H627    1.046   1_455 S
N527   C607    1.440   1_455 S
C541   C544    1.442   .     S
C541   O587    1.289   .     A
C541   O589    1.289   .     A
C542   C544    1.409   .     A
C542   N585    1.436   .     S
C542   C879    1.396   1_545 S
C543   C549    1.440   .     S
C543   C555    1.403   .     A
C543   C556    1.407   .     A
C544   C554    1.409   .     A
C545   N579    1.364   .     A
C545   H559    1.082   .     S
C546   H569    1.082   .     S
C546   N577    1.364   .     A
C546   C1034   1.421   .     S
C547   N577    1.372   .     A
C547   N586    1.429   .     S
C547   C1031   1.421   .     S
C548   N579    1.373   .     A
C548   N578    1.429   .     S
C549   O588    1.289   .     A
C549   O590    1.289   .     A
C550   C552    1.440   .     S
C550   O591    1.285   .     A
C550   O593    1.291   .     A
C551   C553    1.440   .     S
C551   O594    1.292   .     A
C551   O592    1.285   .     A
C553   C606    1.355   .     S
C553   N635    1.440   .     S
C554   N582    1.436   .     S
C554   C880    1.391   1_545 S
C555   N583    1.436   .     S
C555   C704    1.396   .     S
C556   N584    1.436   .     S
C556   C716    1.391   .     S
Cu557  O590    1.952   .     S
Cu557  O591    1.976   .     S
Cu557  Cu558   2.684   .     S
Cu557  N577    2.017   .     S
Cu557  O594    1.974   .     S
Cu557  O587    1.954   .     S
Cu558  O592    1.976   .     S
Cu558  N579    2.017   .     S
Cu558  O593    1.974   .     S
Cu558  O589    1.952   .     S
Cu558  O588    1.954   .     S
H560   N583    1.046   .     S
H561   N584    1.046   .     S
H562   N584    1.045   .     S
H563   N585    1.046   .     S
H564   N585    1.045   .     S
H565   N586    1.046   .     S
H566   N586    1.045   .     S
H567   N578    1.046   .     S
H568   N578    1.045   .     S
H570   N580    1.045   .     S
H572   N581    1.045   .     S
H573   N635    1.046   .     S
H574   N582    1.045   .     S
H575   N582    1.046   .     S
H576   N583    1.046   .     S
N580   H625    1.045   .     S
N580   C606    1.440   .     S
C595   C598    1.442   .     S
C595   O641    1.289   .     A
C595   O643    1.289   .     A
C596   C598    1.409   .     A
C596   N639    1.436   .     S
C596   C933    1.396   1_545 S
C597   C603    1.440   .     S
C597   C609    1.403   .     A
C597   C610    1.407   .     A
C598   C608    1.409   .     A
C599   N633    1.364   .     A
C599   H613    1.082   .     S
C600   H623    1.082   .     S
C600   N631    1.364   .     A
C600   C1088   1.421   .     S
C601   N631    1.372   .     A
C601   N640    1.429   .     S
C601   C1085   1.421   .     S
C602   N633    1.373   .     A
C602   N632    1.429   .     S
C603   O642    1.289   .     A
C603   O644    1.289   .     A
C604   C606    1.440   .     S
C604   O645    1.285   .     A
C604   O647    1.291   .     A
C605   C607    1.440   .     S
C605   O648    1.292   .     A
C605   O646    1.285   .     A
C607   C498    1.355   1_655 S
C607   N527    1.440   1_655 S
C608   N636    1.436   .     S
C608   C934    1.391   1_545 S
C609   N637    1.436   .     S
C609   C758    1.396   .     S
C610   N638    1.436   .     S
C610   C770    1.391   .     S
Cu611  O644    1.952   .     S
Cu611  O645    1.976   .     S
Cu611  Cu612   2.684   .     S
Cu611  N631    2.017   .     S
Cu611  O648    1.974   .     S
Cu611  O641    1.954   .     S
Cu612  O646    1.976   .     S
Cu612  N633    2.017   .     S
Cu612  O647    1.974   .     S
Cu612  O643    1.952   .     S
Cu612  O642    1.954   .     S
H614   N637    1.046   .     S
H615   N638    1.046   .     S
H616   N638    1.045   .     S
H617   N639    1.046   .     S
H618   N639    1.045   .     S
H619   N640    1.046   .     S
H620   N640    1.045   .     S
H621   N632    1.046   .     S
H622   N632    1.045   .     S
H624   N634    1.045   .     S
H626   N635    1.045   .     S
H627   N527    1.046   1_655 S
H628   N636    1.045   .     S
H629   N636    1.046   .     S
H630   N637    1.046   .     S
N634   H517    1.045   1_655 S
N634   C498    1.440   1_655 S
C649   C652    1.442   .     S
C649   O695    1.289   .     A
C649   O697    1.289   .     A
C650   C652    1.409   .     A
C650   N693    1.436   .     S
C651   C657    1.440   .     S
C651   C663    1.403   .     A
C651   C664    1.407   .     A
C652   C662    1.409   .     A
C653   N687    1.364   .     A
C653   H667    1.082   .     S
C654   H677    1.082   .     S
C654   N685    1.364   .     A
C654   C1142   1.421   .     S
C655   N685    1.372   .     A
C655   N694    1.429   .     S
C655   C1139   1.421   .     S
C656   N687    1.373   .     A
C656   N686    1.429   .     S
C657   O696    1.289   .     A
C657   O698    1.289   .     A
C658   C660    1.440   .     S
C658   O699    1.285   .     A
C658   O701    1.291   .     A
C659   C661    1.440   .     S
C659   O702    1.292   .     A
C659   O700    1.285   .     A
C660   C769    1.355   1_455 S
C660   N796    1.440   1_455 S
C661   C714    1.355   .     S
C661   N743    1.440   .     S
C662   N690    1.436   .     S
C663   N691    1.436   .     S
C663   C812    1.396   .     S
C664   N692    1.436   .     S
C664   C824    1.391   .     S
Cu665  O698    1.952   .     S
Cu665  O699    1.976   .     S
Cu665  Cu666   2.684   .     S
Cu665  N685    2.017   .     S
Cu665  O702    1.974   .     S
Cu665  O695    1.954   .     S
Cu666  O700    1.976   .     S
Cu666  N687    2.017   .     S
Cu666  O701    1.974   .     S
Cu666  O697    1.952   .     S
Cu666  O696    1.954   .     S
H668   N691    1.046   .     S
H669   N692    1.046   .     S
H670   N692    1.045   .     S
H671   N693    1.046   .     S
H672   N693    1.045   .     S
H673   N694    1.046   .     S
H674   N694    1.045   .     S
H675   N686    1.046   .     S
H676   N686    1.045   .     S
H678   N688    1.045   .     S
H679   N796    1.045   1_455 S
H680   N689    1.045   .     S
H681   N743    1.046   .     S
H682   N690    1.045   .     S
H683   N690    1.046   .     S
H684   N691    1.046   .     S
N688   H733    1.045   .     S
N688   C714    1.440   .     S
N689   H789    1.046   1_455 S
N689   C769    1.440   1_455 S
C703   C706    1.442   .     S
C703   O749    1.289   .     A
C703   O751    1.289   .     A
C704   C706    1.409   .     A
C704   N747    1.436   .     S
C705   C711    1.440   .     S
C705   C717    1.403   .     A
C705   C718    1.407   .     A
C706   C716    1.409   .     A
C707   N741    1.364   .     A
C707   H721    1.082   .     S
C708   H731    1.082   .     S
C708   N739    1.364   .     A
C708   C1196   1.421   .     S
C709   N739    1.372   .     A
C709   N748    1.429   .     S
C709   C1193   1.421   .     S
C710   N741    1.373   .     A
C710   N740    1.429   .     S
C711   O750    1.289   .     A
C711   O752    1.289   .     A
C712   C714    1.440   .     S
C712   O753    1.285   .     A
C712   O755    1.291   .     A
C713   C715    1.440   .     S
C713   O756    1.292   .     A
C713   O754    1.285   .     A
C715   C768    1.355   .     S
C715   N797    1.440   .     S
C716   N744    1.436   .     S
C717   N745    1.436   .     S
C717   C866    1.396   .     S
C718   N746    1.436   .     S
C718   C878    1.391   .     S
Cu719  O752    1.952   .     S
Cu719  O753    1.976   .     S
Cu719  Cu720   2.684   .     S
Cu719  N739    2.017   .     S
Cu719  O756    1.974   .     S
Cu719  O749    1.954   .     S
Cu720  O754    1.976   .     S
Cu720  N741    2.017   .     S
Cu720  O755    1.974   .     S
Cu720  O751    1.952   .     S
Cu720  O750    1.954   .     S
H722   N745    1.046   .     S
H723   N746    1.046   .     S
H724   N746    1.045   .     S
H725   N747    1.046   .     S
H726   N747    1.045   .     S
H727   N748    1.046   .     S
H728   N748    1.045   .     S
H729   N740    1.046   .     S
H730   N740    1.045   .     S
H732   N742    1.045   .     S
H734   N743    1.045   .     S
H735   N797    1.046   .     S
H736   N744    1.045   .     S
H737   N744    1.046   .     S
H738   N745    1.046   .     S
N742   H787    1.045   .     S
N742   C768    1.440   .     S
C757   C760    1.442   .     S
C757   O803    1.289   .     A
C757   O805    1.289   .     A
C758   C760    1.409   .     A
C758   N801    1.436   .     S
C759   C765    1.440   .     S
C759   C771    1.403   .     A
C759   C772    1.407   .     A
C760   C770    1.409   .     A
C761   N795    1.364   .     A
C761   H775    1.082   .     S
C762   H785    1.082   .     S
C762   N793    1.364   .     A
C762   C1250   1.421   .     S
C763   N793    1.372   .     A
C763   N802    1.429   .     S
C763   C1247   1.421   .     S
C764   N795    1.373   .     A
C764   N794    1.429   .     S
C765   O804    1.289   .     A
C765   O806    1.289   .     A
C766   C768    1.440   .     S
C766   O807    1.285   .     A
C766   O809    1.291   .     A
C767   C769    1.440   .     S
C767   O810    1.292   .     A
C767   O808    1.285   .     A
C769   C660    1.355   1_655 S
C769   N689    1.440   1_655 S
C770   N798    1.436   .     S
C771   N799    1.436   .     S
C771   C920    1.396   .     S
C772   N800    1.436   .     S
C772   C932    1.391   .     S
Cu773  O806    1.952   .     S
Cu773  O807    1.976   .     S
Cu773  Cu774   2.684   .     S
Cu773  N793    2.017   .     S
Cu773  O810    1.974   .     S
Cu773  O803    1.954   .     S
Cu774  O808    1.976   .     S
Cu774  N795    2.017   .     S
Cu774  O809    1.974   .     S
Cu774  O805    1.952   .     S
Cu774  O804    1.954   .     S
H776   N799    1.046   .     S
H777   N800    1.046   .     S
H778   N800    1.045   .     S
H779   N801    1.046   .     S
H780   N801    1.045   .     S
H781   N802    1.046   .     S
H782   N802    1.045   .     S
H783   N794    1.046   .     S
H784   N794    1.045   .     S
H786   N796    1.045   .     S
H788   N797    1.045   .     S
H789   N689    1.046   1_655 S
H790   N798    1.045   .     S
H791   N798    1.046   .     S
H792   N799    1.046   .     S
N796   H679    1.045   1_655 S
N796   C660    1.440   1_655 S
C811   C814    1.442   .     S
C811   O857    1.289   .     A
C811   O859    1.289   .     A
C812   C814    1.409   .     A
C812   N855    1.436   .     S
C813   C819    1.440   .     S
C813   C825    1.403   .     A
C813   C826    1.407   .     A
C814   C824    1.409   .     A
C815   N849    1.364   .     A
C815   H829    1.082   .     S
C816   H839    1.082   .     S
C816   N847    1.364   .     A
C816   C1304   1.421   .     S
C817   N847    1.372   .     A
C817   N856    1.429   .     S
C817   C1301   1.421   .     S
C818   N849    1.373   .     A
C818   N848    1.429   .     S
C819   O858    1.289   .     A
C819   O860    1.289   .     A
C820   C822    1.440   .     S
C820   O861    1.285   .     A
C820   O863    1.291   .     A
C821   C823    1.440   .     S
C821   O864    1.292   .     A
C821   O862    1.285   .     A
C822   C931    1.355   1_455 S
C822   N958    1.440   1_455 S
C823   C876    1.355   .     S
C823   N905    1.440   .     S
C824   N852    1.436   .     S
C825   N853    1.436   .     S
C825   C488    1.396   1_565 S
C826   N854    1.436   .     S
C826   C500    1.391   1_565 S
Cu827  O860    1.952   .     S
Cu827  O861    1.976   .     S
Cu827  Cu828   2.684   .     S
Cu827  N847    2.017   .     S
Cu827  O864    1.974   .     S
Cu827  O857    1.954   .     S
Cu828  O862    1.976   .     S
Cu828  N849    2.017   .     S
Cu828  O863    1.974   .     S
Cu828  O859    1.952   .     S
Cu828  O858    1.954   .     S
H830   N853    1.046   .     S
H831   N854    1.046   .     S
H832   N854    1.045   .     S
H833   N855    1.046   .     S
H834   N855    1.045   .     S
H835   N856    1.046   .     S
H836   N856    1.045   .     S
H837   N848    1.046   .     S
H838   N848    1.045   .     S
H840   N850    1.045   .     S
H841   N958    1.045   1_455 S
H842   N851    1.045   .     S
H843   N905    1.046   .     S
H844   N852    1.045   .     S
H845   N852    1.046   .     S
H846   N853    1.046   .     S
N850   H895    1.045   .     S
N850   C876    1.440   .     S
N851   H951    1.046   1_455 S
N851   C931    1.440   1_455 S
C865   C868    1.442   .     S
C865   O911    1.289   .     A
C865   O913    1.289   .     A
C866   C868    1.409   .     A
C866   N909    1.436   .     S
C867   C873    1.440   .     S
C867   C879    1.403   .     A
C867   C880    1.407   .     A
C868   C878    1.409   .     A
C869   N903    1.364   .     A
C869   H883    1.082   .     S
C870   H893    1.082   .     S
C870   N901    1.364   .     A
C870   C1358   1.421   .     S
C871   N901    1.372   .     A
C871   N910    1.429   .     S
C871   C1355   1.421   .     S
C872   N903    1.373   .     A
C872   N902    1.429   .     S
C873   O912    1.289   .     A
C873   O914    1.289   .     A
C874   C876    1.440   .     S
C874   O915    1.285   .     A
C874   O917    1.291   .     A
C875   C877    1.440   .     S
C875   O918    1.292   .     A
C875   O916    1.285   .     A
C877   C930    1.355   .     S
C877   N959    1.440   .     S
C878   N906    1.436   .     S
C879   N907    1.436   .     S
C879   C542    1.396   1_565 S
C880   N908    1.436   .     S
C880   C554    1.391   1_565 S
Cu881  O914    1.952   .     S
Cu881  O915    1.976   .     S
Cu881  Cu882   2.684   .     S
Cu881  N901    2.017   .     S
Cu881  O918    1.974   .     S
Cu881  O911    1.954   .     S
Cu882  O916    1.976   .     S
Cu882  N903    2.017   .     S
Cu882  O917    1.974   .     S
Cu882  O913    1.952   .     S
Cu882  O912    1.954   .     S
H884   N907    1.046   .     S
H885   N908    1.046   .     S
H886   N908    1.045   .     S
H887   N909    1.046   .     S
H888   N909    1.045   .     S
H889   N910    1.046   .     S
H890   N910    1.045   .     S
H891   N902    1.046   .     S
H892   N902    1.045   .     S
H894   N904    1.045   .     S
H896   N905    1.045   .     S
H897   N959    1.046   .     S
H898   N906    1.045   .     S
H899   N906    1.046   .     S
H900   N907    1.046   .     S
N904   H949    1.045   .     S
N904   C930    1.440   .     S
C919   C922    1.442   .     S
C919   O965    1.289   .     A
C919   O967    1.289   .     A
C920   C922    1.409   .     A
C920   N963    1.436   .     S
C921   C927    1.440   .     S
C921   C933    1.403   .     A
C921   C934    1.407   .     A
C922   C932    1.409   .     A
C923   N957    1.364   .     A
C923   H937    1.082   .     S
C924   H947    1.082   .     S
C924   N955    1.364   .     A
C924   C1412   1.421   .     S
C925   N955    1.372   .     A
C925   N964    1.429   .     S
C925   C1409   1.421   .     S
C926   N957    1.373   .     A
C926   N956    1.429   .     S
C927   O966    1.289   .     A
C927   O968    1.289   .     A
C928   C930    1.440   .     S
C928   O969    1.285   .     A
C928   O971    1.291   .     A
C929   C931    1.440   .     S
C929   O972    1.292   .     A
C929   O970    1.285   .     A
C931   C822    1.355   1_655 S
C931   N851    1.440   1_655 S
C932   N960    1.436   .     S
C933   N961    1.436   .     S
C933   C596    1.396   1_565 S
C934   N962    1.436   .     S
C934   C608    1.391   1_565 S
Cu935  O968    1.952   .     S
Cu935  O969    1.976   .     S
Cu935  Cu936   2.684   .     S
Cu935  N955    2.017   .     S
Cu935  O972    1.974   .     S
Cu935  O965    1.954   .     S
Cu936  O970    1.976   .     S
Cu936  N957    2.017   .     S
Cu936  O971    1.974   .     S
Cu936  O967    1.952   .     S
Cu936  O966    1.954   .     S
H938   N961    1.046   .     S
H939   N962    1.046   .     S
H940   N962    1.045   .     S
H941   N963    1.046   .     S
H942   N963    1.045   .     S
H943   N964    1.046   .     S
H944   N964    1.045   .     S
H945   N956    1.046   .     S
H946   N956    1.045   .     S
H948   N958    1.045   .     S
H950   N959    1.045   .     S
H951   N851    1.046   1_655 S
H952   N960    1.045   .     S
H953   N960    1.046   .     S
H954   N961    1.046   .     S
N958   H841    1.045   1_655 S
N958   C822    1.440   1_655 S
C973   C976    1.442   .     S
C973   O1019   1.289   .     A
C973   O1021   1.289   .     A
C974   C976    1.409   .     A
C974   N1017   1.436   .     S
C974   C1311   1.396   1_545 S
C975   C981    1.440   .     S
C975   C987    1.403   .     A
C975   C988    1.407   .     A
C976   C986    1.409   .     A
C977   N1011   1.364   .     A
C977   H991    1.082   .     S
C978   H1001   1.082   .     S
C978   N1009   1.364   .     A
C978   C8      1.421   1_556 S
C979   N1009   1.372   .     A
C979   N1018   1.429   .     S
C979   C5      1.421   1_556 S
C980   N1011   1.373   .     A
C980   N1010   1.429   .     S
C981   O1020   1.289   .     A
C981   O1022   1.289   .     A
C982   C984    1.440   .     S
C982   O1023   1.285   .     A
C982   O1025   1.291   .     A
C983   C985    1.440   .     S
C983   O1026   1.292   .     A
C983   O1024   1.285   .     A
C984   C1093   1.355   1_455 S
C984   N1120   1.440   1_455 S
C985   C1038   1.355   .     S
C985   N1067   1.440   .     S
C986   N1014   1.436   .     S
C986   C1312   1.391   1_545 S
C987   N1015   1.436   .     S
C987   C1136   1.396   .     S
C988   N1016   1.436   .     S
C988   C1148   1.391   .     S
Cu989  O1022   1.952   .     S
Cu989  O1023   1.976   .     S
Cu989  Cu990   2.684   .     S
Cu989  N1009   2.017   .     S
Cu989  O1026   1.974   .     S
Cu989  O1019   1.954   .     S
Cu990  O1024   1.976   .     S
Cu990  N1011   2.017   .     S
Cu990  O1025   1.974   .     S
Cu990  O1021   1.952   .     S
Cu990  O1020   1.954   .     S
H992   N1015   1.046   .     S
H993   N1016   1.046   .     S
H994   N1016   1.045   .     S
H995   N1017   1.046   .     S
H996   N1017   1.045   .     S
H997   N1018   1.046   .     S
H998   N1018   1.045   .     S
H999   N1010   1.046   .     S
H1000  N1010   1.045   .     S
H1002  N1012   1.045   .     S
H1003  N1120   1.045   1_455 S
H1004  N1013   1.045   .     S
H1005  N1067   1.046   .     S
H1006  N1014   1.045   .     S
H1007  N1014   1.046   .     S
H1008  N1015   1.046   .     S
N1012  H1057   1.045   .     S
N1012  C1038   1.440   .     S
N1013  H1113   1.046   1_455 S
N1013  C1093   1.440   1_455 S
C1027  C1030   1.442   .     S
C1027  O1073   1.289   .     A
C1027  O1075   1.289   .     A
C1028  C1030   1.409   .     A
C1028  N1071   1.436   .     S
C1028  C1365   1.396   1_545 S
C1029  C1035   1.440   .     S
C1029  C1041   1.403   .     A
C1029  C1042   1.407   .     A
C1030  C1040   1.409   .     A
C1031  N1065   1.364   .     A
C1031  H1045   1.082   .     S
C1032  H1055   1.082   .     S
C1032  N1063   1.364   .     A
C1032  C62     1.421   1_556 S
C1033  N1063   1.372   .     A
C1033  N1072   1.429   .     S
C1033  C59     1.421   1_556 S
C1034  N1065   1.373   .     A
C1034  N1064   1.429   .     S
C1035  O1074   1.289   .     A
C1035  O1076   1.289   .     A
C1036  C1038   1.440   .     S
C1036  O1077   1.285   .     A
C1036  O1079   1.291   .     A
C1037  C1039   1.440   .     S
C1037  O1080   1.292   .     A
C1037  O1078   1.285   .     A
C1039  C1092   1.355   .     S
C1039  N1121   1.440   .     S
C1040  N1068   1.436   .     S
C1040  C1366   1.391   1_545 S
C1041  N1069   1.436   .     S
C1041  C1190   1.396   .     S
C1042  N1070   1.436   .     S
C1042  C1202   1.391   .     S
Cu1043 O1076   1.952   .     S
Cu1043 O1077   1.976   .     S
Cu1043 Cu1044  2.684   .     S
Cu1043 N1063   2.017   .     S
Cu1043 O1080   1.974   .     S
Cu1043 O1073   1.954   .     S
Cu1044 O1078   1.976   .     S
Cu1044 N1065   2.017   .     S
Cu1044 O1079   1.974   .     S
Cu1044 O1075   1.952   .     S
Cu1044 O1074   1.954   .     S
H1046  N1069   1.046   .     S
H1047  N1070   1.046   .     S
H1048  N1070   1.045   .     S
H1049  N1071   1.046   .     S
H1050  N1071   1.045   .     S
H1051  N1072   1.046   .     S
H1052  N1072   1.045   .     S
H1053  N1064   1.046   .     S
H1054  N1064   1.045   .     S
H1056  N1066   1.045   .     S
H1058  N1067   1.045   .     S
H1059  N1121   1.046   .     S
H1060  N1068   1.045   .     S
H1061  N1068   1.046   .     S
H1062  N1069   1.046   .     S
N1066  H1111   1.045   .     S
N1066  C1092   1.440   .     S
C1081  C1084   1.442   .     S
C1081  O1127   1.289   .     A
C1081  O1129   1.289   .     A
C1082  C1084   1.409   .     A
C1082  N1125   1.436   .     S
C1082  C1419   1.396   1_545 S
C1083  C1089   1.440   .     S
C1083  C1095   1.403   .     A
C1083  C1096   1.407   .     A
C1084  C1094   1.409   .     A
C1085  N1119   1.364   .     A
C1085  H1099   1.082   .     S
C1086  H1109   1.082   .     S
C1086  N1117   1.364   .     A
C1086  C116    1.421   1_556 S
C1087  N1117   1.372   .     A
C1087  N1126   1.429   .     S
C1087  C113    1.421   1_556 S
C1088  N1119   1.373   .     A
C1088  N1118   1.429   .     S
C1089  O1128   1.289   .     A
C1089  O1130   1.289   .     A
C1090  C1092   1.440   .     S
C1090  O1131   1.285   .     A
C1090  O1133   1.291   .     A
C1091  C1093   1.440   .     S
C1091  O1134   1.292   .     A
C1091  O1132   1.285   .     A
C1093  C984    1.355   1_655 S
C1093  N1013   1.440   1_655 S
C1094  N1122   1.436   .     S
C1094  C1420   1.391   1_545 S
C1095  N1123   1.436   .     S
C1095  C1244   1.396   .     S
C1096  N1124   1.436   .     S
C1096  C1256   1.391   .     S
Cu1097 O1130   1.952   .     S
Cu1097 O1131   1.976   .     S
Cu1097 Cu1098  2.684   .     S
Cu1097 N1117   2.017   .     S
Cu1097 O1134   1.974   .     S
Cu1097 O1127   1.954   .     S
Cu1098 O1132   1.976   .     S
Cu1098 N1119   2.017   .     S
Cu1098 O1133   1.974   .     S
Cu1098 O1129   1.952   .     S
Cu1098 O1128   1.954   .     S
H1100  N1123   1.046   .     S
H1101  N1124   1.046   .     S
H1102  N1124   1.045   .     S
H1103  N1125   1.046   .     S
H1104  N1125   1.045   .     S
H1105  N1126   1.046   .     S
H1106  N1126   1.045   .     S
H1107  N1118   1.046   .     S
H1108  N1118   1.045   .     S
H1110  N1120   1.045   .     S
H1112  N1121   1.045   .     S
H1113  N1013   1.046   1_655 S
H1114  N1122   1.045   .     S
H1115  N1122   1.046   .     S
H1116  N1123   1.046   .     S
N1120  H1003   1.045   1_655 S
N1120  C984    1.440   1_655 S
C1135  C1138   1.442   .     S
C1135  O1181   1.289   .     A
C1135  O1183   1.289   .     A
C1136  C1138   1.409   .     A
C1136  N1179   1.436   .     S
C1137  C1143   1.440   .     S
C1137  C1149   1.403   .     A
C1137  C1150   1.407   .     A
C1138  C1148   1.409   .     A
C1139  N1173   1.364   .     A
C1139  H1153   1.082   .     S
C1140  H1163   1.082   .     S
C1140  N1171   1.364   .     A
C1140  C170    1.421   1_556 S
C1141  N1171   1.372   .     A
C1141  N1180   1.429   .     S
C1141  C167    1.421   1_556 S
C1142  N1173   1.373   .     A
C1142  N1172   1.429   .     S
C1143  O1182   1.289   .     A
C1143  O1184   1.289   .     A
C1144  C1146   1.440   .     S
C1144  O1185   1.285   .     A
C1144  O1187   1.291   .     A
C1145  C1147   1.440   .     S
C1145  O1188   1.292   .     A
C1145  O1186   1.285   .     A
C1146  C1255   1.355   1_455 S
C1146  N1282   1.440   1_455 S
C1147  C1200   1.355   .     S
C1147  N1229   1.440   .     S
C1148  N1176   1.436   .     S
C1149  N1177   1.436   .     S
C1149  C1298   1.396   .     S
C1150  N1178   1.436   .     S
C1150  C1310   1.391   .     S
Cu1151 O1184   1.952   .     S
Cu1151 O1185   1.976   .     S
Cu1151 Cu1152  2.684   .     S
Cu1151 N1171   2.017   .     S
Cu1151 O1188   1.974   .     S
Cu1151 O1181   1.954   .     S
Cu1152 O1186   1.976   .     S
Cu1152 N1173   2.017   .     S
Cu1152 O1187   1.974   .     S
Cu1152 O1183   1.952   .     S
Cu1152 O1182   1.954   .     S
H1154  N1177   1.046   .     S
H1155  N1178   1.046   .     S
H1156  N1178   1.045   .     S
H1157  N1179   1.046   .     S
H1158  N1179   1.045   .     S
H1159  N1180   1.046   .     S
H1160  N1180   1.045   .     S
H1161  N1172   1.046   .     S
H1162  N1172   1.045   .     S
H1164  N1174   1.045   .     S
H1165  N1282   1.045   1_455 S
H1166  N1175   1.045   .     S
H1167  N1229   1.046   .     S
H1168  N1176   1.045   .     S
H1169  N1176   1.046   .     S
H1170  N1177   1.046   .     S
N1174  H1219   1.045   .     S
N1174  C1200   1.440   .     S
N1175  H1275   1.046   1_455 S
N1175  C1255   1.440   1_455 S
C1189  C1192   1.442   .     S
C1189  O1235   1.289   .     A
C1189  O1237   1.289   .     A
C1190  C1192   1.409   .     A
C1190  N1233   1.436   .     S
C1191  C1197   1.440   .     S
C1191  C1203   1.403   .     A
C1191  C1204   1.407   .     A
C1192  C1202   1.409   .     A
C1193  N1227   1.364   .     A
C1193  H1207   1.082   .     S
C1194  H1217   1.082   .     S
C1194  N1225   1.364   .     A
C1194  C224    1.421   1_556 S
C1195  N1225   1.372   .     A
C1195  N1234   1.429   .     S
C1195  C221    1.421   1_556 S
C1196  N1227   1.373   .     A
C1196  N1226   1.429   .     S
C1197  O1236   1.289   .     A
C1197  O1238   1.289   .     A
C1198  C1200   1.440   .     S
C1198  O1239   1.285   .     A
C1198  O1241   1.291   .     A
C1199  C1201   1.440   .     S
C1199  O1242   1.292   .     A
C1199  O1240   1.285   .     A
C1201  C1254   1.355   .     S
C1201  N1283   1.440   .     S
C1202  N1230   1.436   .     S
C1203  N1231   1.436   .     S
C1203  C1352   1.396   .     S
C1204  N1232   1.436   .     S
C1204  C1364   1.391   .     S
Cu1205 O1238   1.952   .     S
Cu1205 O1239   1.976   .     S
Cu1205 Cu1206  2.684   .     S
Cu1205 N1225   2.017   .     S
Cu1205 O1242   1.974   .     S
Cu1205 O1235   1.954   .     S
Cu1206 O1240   1.976   .     S
Cu1206 N1227   2.017   .     S
Cu1206 O1241   1.974   .     S
Cu1206 O1237   1.952   .     S
Cu1206 O1236   1.954   .     S
H1208  N1231   1.046   .     S
H1209  N1232   1.046   .     S
H1210  N1232   1.045   .     S
H1211  N1233   1.046   .     S
H1212  N1233   1.045   .     S
H1213  N1234   1.046   .     S
H1214  N1234   1.045   .     S
H1215  N1226   1.046   .     S
H1216  N1226   1.045   .     S
H1218  N1228   1.045   .     S
H1220  N1229   1.045   .     S
H1221  N1283   1.046   .     S
H1222  N1230   1.045   .     S
H1223  N1230   1.046   .     S
H1224  N1231   1.046   .     S
N1228  H1273   1.045   .     S
N1228  C1254   1.440   .     S
C1243  C1246   1.442   .     S
C1243  O1289   1.289   .     A
C1243  O1291   1.289   .     A
C1244  C1246   1.409   .     A
C1244  N1287   1.436   .     S
C1245  C1251   1.440   .     S
C1245  C1257   1.403   .     A
C1245  C1258   1.407   .     A
C1246  C1256   1.409   .     A
C1247  N1281   1.364   .     A
C1247  H1261   1.082   .     S
C1248  H1271   1.082   .     S
C1248  N1279   1.364   .     A
C1248  C278    1.421   1_556 S
C1249  N1279   1.372   .     A
C1249  N1288   1.429   .     S
C1249  C275    1.421   1_556 S
C1250  N1281   1.373   .     A
C1250  N1280   1.429   .     S
C1251  O1290   1.289   .     A
C1251  O1292   1.289   .     A
C1252  C1254   1.440   .     S
C1252  O1293   1.285   .     A
C1252  O1295   1.291   .     A
C1253  C1255   1.440   .     S
C1253  O1296   1.292   .     A
C1253  O1294   1.285   .     A
C1255  C1146   1.355   1_655 S
C1255  N1175   1.440   1_655 S
C1256  N1284   1.436   .     S
C1257  N1285   1.436   .     S
C1257  C1406   1.396   .     S
C1258  N1286   1.436   .     S
C1258  C1418   1.391   .     S
Cu1259 O1292   1.952   .     S
Cu1259 O1293   1.976   .     S
Cu1259 Cu1260  2.684   .     S
Cu1259 N1279   2.017   .     S
Cu1259 O1296   1.974   .     S
Cu1259 O1289   1.954   .     S
Cu1260 O1294   1.976   .     S
Cu1260 N1281   2.017   .     S
Cu1260 O1295   1.974   .     S
Cu1260 O1291   1.952   .     S
Cu1260 O1290   1.954   .     S
H1262  N1285   1.046   .     S
H1263  N1286   1.046   .     S
H1264  N1286   1.045   .     S
H1265  N1287   1.046   .     S
H1266  N1287   1.045   .     S
H1267  N1288   1.046   .     S
H1268  N1288   1.045   .     S
H1269  N1280   1.046   .     S
H1270  N1280   1.045   .     S
H1272  N1282   1.045   .     S
H1274  N1283   1.045   .     S
H1275  N1175   1.046   1_655 S
H1276  N1284   1.045   .     S
H1277  N1284   1.046   .     S
H1278  N1285   1.046   .     S
N1282  H1165   1.045   1_655 S
N1282  C1146   1.440   1_655 S
C1297  C1300   1.442   .     S
C1297  O1343   1.289   .     A
C1297  O1345   1.289   .     A
C1298  C1300   1.409   .     A
C1298  N1341   1.436   .     S
C1299  C1305   1.440   .     S
C1299  C1311   1.403   .     A
C1299  C1312   1.407   .     A
C1300  C1310   1.409   .     A
C1301  N1335   1.364   .     A
C1301  H1315   1.082   .     S
C1302  H1325   1.082   .     S
C1302  N1333   1.364   .     A
C1302  C332    1.421   1_556 S
C1303  N1333   1.372   .     A
C1303  N1342   1.429   .     S
C1303  C329    1.421   1_556 S
C1304  N1335   1.373   .     A
C1304  N1334   1.429   .     S
C1305  O1344   1.289   .     A
C1305  O1346   1.289   .     A
C1306  C1308   1.440   .     S
C1306  O1347   1.285   .     A
C1306  O1349   1.291   .     A
C1307  C1309   1.440   .     S
C1307  O1350   1.292   .     A
C1307  O1348   1.285   .     A
C1308  C1417   1.355   1_455 S
C1308  N1444   1.440   1_455 S
C1309  C1362   1.355   .     S
C1309  N1391   1.440   .     S
C1310  N1338   1.436   .     S
C1311  N1339   1.436   .     S
C1311  C974    1.396   1_565 S
C1312  N1340   1.436   .     S
C1312  C986    1.391   1_565 S
Cu1313 O1346   1.952   .     S
Cu1313 O1347   1.976   .     S
Cu1313 Cu1314  2.684   .     S
Cu1313 N1333   2.017   .     S
Cu1313 O1350   1.974   .     S
Cu1313 O1343   1.954   .     S
Cu1314 O1348   1.976   .     S
Cu1314 N1335   2.017   .     S
Cu1314 O1349   1.974   .     S
Cu1314 O1345   1.952   .     S
Cu1314 O1344   1.954   .     S
H1316  N1339   1.046   .     S
H1317  N1340   1.046   .     S
H1318  N1340   1.045   .     S
H1319  N1341   1.046   .     S
H1320  N1341   1.045   .     S
H1321  N1342   1.046   .     S
H1322  N1342   1.045   .     S
H1323  N1334   1.046   .     S
H1324  N1334   1.045   .     S
H1326  N1336   1.045   .     S
H1327  N1444   1.045   1_455 S
H1328  N1337   1.045   .     S
H1329  N1391   1.046   .     S
H1330  N1338   1.045   .     S
H1331  N1338   1.046   .     S
H1332  N1339   1.046   .     S
N1336  H1381   1.045   .     S
N1336  C1362   1.440   .     S
N1337  H1437   1.046   1_455 S
N1337  C1417   1.440   1_455 S
C1351  C1354   1.442   .     S
C1351  O1397   1.289   .     A
C1351  O1399   1.289   .     A
C1352  C1354   1.409   .     A
C1352  N1395   1.436   .     S
C1353  C1359   1.440   .     S
C1353  C1365   1.403   .     A
C1353  C1366   1.407   .     A
C1354  C1364   1.409   .     A
C1355  N1389   1.364   .     A
C1355  H1369   1.082   .     S
C1356  H1379   1.082   .     S
C1356  N1387   1.364   .     A
C1356  C386    1.421   1_556 S
C1357  N1387   1.372   .     A
C1357  N1396   1.429   .     S
C1357  C383    1.421   1_556 S
C1358  N1389   1.373   .     A
C1358  N1388   1.429   .     S
C1359  O1398   1.289   .     A
C1359  O1400   1.289   .     A
C1360  C1362   1.440   .     S
C1360  O1401   1.285   .     A
C1360  O1403   1.291   .     A
C1361  C1363   1.440   .     S
C1361  O1404   1.292   .     A
C1361  O1402   1.285   .     A
C1363  C1416   1.355   .     S
C1363  N1445   1.440   .     S
C1364  N1392   1.436   .     S
C1365  N1393   1.436   .     S
C1365  C1028   1.396   1_565 S
C1366  N1394   1.436   .     S
C1366  C1040   1.391   1_565 S
Cu1367 O1400   1.952   .     S
Cu1367 O1401   1.976   .     S
Cu1367 Cu1368  2.684   .     S
Cu1367 N1387   2.017   .     S
Cu1367 O1404   1.974   .     S
Cu1367 O1397   1.954   .     S
Cu1368 O1402   1.976   .     S
Cu1368 N1389   2.017   .     S
Cu1368 O1403   1.974   .     S
Cu1368 O1399   1.952   .     S
Cu1368 O1398   1.954   .     S
H1370  N1393   1.046   .     S
H1371  N1394   1.046   .     S
H1372  N1394   1.045   .     S
H1373  N1395   1.046   .     S
H1374  N1395   1.045   .     S
H1375  N1396   1.046   .     S
H1376  N1396   1.045   .     S
H1377  N1388   1.046   .     S
H1378  N1388   1.045   .     S
H1380  N1390   1.045   .     S
H1382  N1391   1.045   .     S
H1383  N1445   1.046   .     S
H1384  N1392   1.045   .     S
H1385  N1392   1.046   .     S
H1386  N1393   1.046   .     S
N1390  H1435   1.045   .     S
N1390  C1416   1.440   .     S
C1405  C1408   1.442   .     S
C1405  O1451   1.289   .     A
C1405  O1453   1.289   .     A
C1406  C1408   1.409   .     A
C1406  N1449   1.436   .     S
C1407  C1413   1.440   .     S
C1407  C1419   1.403   .     A
C1407  C1420   1.407   .     A
C1408  C1418   1.409   .     A
C1409  N1443   1.364   .     A
C1409  H1423   1.082   .     S
C1410  H1433   1.082   .     S
C1410  N1441   1.364   .     A
C1410  C440    1.421   1_556 S
C1411  N1441   1.372   .     A
C1411  N1450   1.429   .     S
C1411  C437    1.421   1_556 S
C1412  N1443   1.373   .     A
C1412  N1442   1.429   .     S
C1413  O1452   1.289   .     A
C1413  O1454   1.289   .     A
C1414  C1416   1.440   .     S
C1414  O1455   1.285   .     A
C1414  O1457   1.291   .     A
C1415  C1417   1.440   .     S
C1415  O1458   1.292   .     A
C1415  O1456   1.285   .     A
C1417  C1308   1.355   1_655 S
C1417  N1337   1.440   1_655 S
C1418  N1446   1.436   .     S
C1419  N1447   1.436   .     S
C1419  C1082   1.396   1_565 S
C1420  N1448   1.436   .     S
C1420  C1094   1.391   1_565 S
Cu1421 O1454   1.952   .     S
Cu1421 O1455   1.976   .     S
Cu1421 Cu1422  2.684   .     S
Cu1421 N1441   2.017   .     S
Cu1421 O1458   1.974   .     S
Cu1421 O1451   1.954   .     S
Cu1422 O1456   1.976   .     S
Cu1422 N1443   2.017   .     S
Cu1422 O1457   1.974   .     S
Cu1422 O1453   1.952   .     S
Cu1422 O1452   1.954   .     S
H1424  N1447   1.046   .     S
H1425  N1448   1.046   .     S
H1426  N1448   1.045   .     S
H1427  N1449   1.046   .     S
H1428  N1449   1.045   .     S
H1429  N1450   1.046   .     S
H1430  N1450   1.045   .     S
H1431  N1442   1.046   .     S
H1432  N1442   1.045   .     S
H1434  N1444   1.045   .     S
H1436  N1445   1.045   .     S
H1437  N1337   1.046   1_655 S
H1438  N1446   1.045   .     S
H1439  N1446   1.046   .     S
H1440  N1447   1.046   .     S
N1444  H1327   1.045   1_655 S
N1444  C1308   1.440   1_655 S
