data_str_m3_o2_o10_pcu_sym.223
_audit_creation_date              2020-01-03
_audit_creation_method            'Materials Studio'
_symmetry_space_group_name_H-M    'P1'
_symmetry_Int_Tables_number       1
_symmetry_cell_setting            triclinic
loop_
_symmetry_equiv_pos_as_xyz
  x,y,z
_cell_length_a                    25.7924
_cell_length_b                    30.0233
_cell_length_c                    28.2727
_cell_angle_alpha                 90.0030
_cell_angle_beta                  98.6772
_cell_angle_gamma                 90.0119
loop_
_atom_site_label
_atom_site_type_symbol
_atom_site_fract_x
_atom_site_fract_y
_atom_site_fract_z
_atom_site_U_iso_or_equiv
_atom_site_adp_type
_atom_site_occupancy
C1     C     0.16667   0.16385   0.25000   0.00000  Uiso   1.00
C2     C     0.16667   0.33614   0.25000   0.00000  Uiso   1.00
C3     C     0.12947   0.22433   0.04744   0.00000  Uiso   1.00
C4     C     0.20545   0.22608   0.45277   0.00000  Uiso   1.00
C5     C     0.13050   0.22513   0.09743   0.00000  Uiso   1.00
C6     C     0.20432   0.22681   0.40277   0.00000  Uiso   1.00
C7     C     0.20269   0.27453   0.10685   0.00000  Uiso   1.00
C8     C     0.12919   0.27291   0.39298   0.00000  Uiso   1.00
C9     C     0.20327   0.27461   0.05713   0.00000  Uiso   1.00
C10    C     0.12861   0.27294   0.44269   0.00000  Uiso   1.00
C11    C     0.16637   0.24941   0.02655   0.00000  Uiso   1.00
C12    C     0.16703   0.24944   0.47347   0.00000  Uiso   1.00
C13    C     0.06696   0.25002   0.23751   0.00000  Uiso   1.00
C14    C     0.26637   0.25003   0.26249   0.00000  Uiso   1.00
C15    C     0.01197   0.25006   0.23075   0.00000  Uiso   1.00
C16    C     0.32137   0.25006   0.26925   0.00000  Uiso   1.00
C17    C     0.18478   0.04703   0.29233   0.00000  Uiso   1.00
C18    C     0.18554   0.45294   0.21303   0.00000  Uiso   1.00
C19    C     0.18447   0.09301   0.29241   0.00000  Uiso   1.00
C20    C     0.18522   0.40696   0.21287   0.00000  Uiso   1.00
C21    C     0.16670   0.11597   0.25000   0.00000  Uiso   1.00
C22    C     0.16669   0.38401   0.25000   0.00000  Uiso   1.00
C23    C     0.14895   0.09299   0.20759   0.00000  Uiso   1.00
C24    C     0.14819   0.40697   0.28713   0.00000  Uiso   1.00
C25    C     0.14870   0.04701   0.20766   0.00000  Uiso   1.00
C26    C     0.14793   0.45295   0.28698   0.00000  Uiso   1.00
C27    C     0.16675   0.02403   0.25000   0.00000  Uiso   1.00
C28    C     0.16675   0.47594   0.25000   0.00000  Uiso   1.00
H29    H     0.32465   0.25008   0.19422   0.00000  Uiso   1.00
H30    H     0.00869   0.25007   0.30578   0.00000  Uiso   1.00
H31    H     0.19872   0.11055   0.32531   0.00000  Uiso   1.00
H32    H     0.20007   0.38942   0.18421   0.00000  Uiso   1.00
H33    H     0.13468   0.11051   0.17469   0.00000  Uiso   1.00
H34    H     0.13332   0.38944   0.31579   0.00000  Uiso   1.00
H35    H     0.23121   0.29413   0.12999   0.00000  Uiso   1.00
H36    H     0.09951   0.29124   0.36970   0.00000  Uiso   1.00
H37    H     0.23231   0.29430   0.04259   0.00000  Uiso   1.00
H38    H     0.09839   0.29129   0.45709   0.00000  Uiso   1.00
N39    N     0.16667   0.24999   0.12623   0.00000  Uiso   1.00
N40    N     0.16667   0.25001   0.37376   0.00000  Uiso   1.00
O41    O     0.16667   0.18454   0.28974   0.00000  Uiso   1.00
O42    O     0.16666   0.31547   0.21026   0.00000  Uiso   1.00
O43    O     0.16667   0.18453   0.21026   0.00000  Uiso   1.00
O44    O     0.16666   0.31547   0.28974   0.00000  Uiso   1.00
O45    O     0.09058   0.25000   0.28044   0.00000  Uiso   1.00
O46    O     0.24275   0.25000   0.21955   0.00000  Uiso   1.00
O47    O     0.09058   0.25000   0.20096   0.00000  Uiso   1.00
O48    O     0.24275   0.25001   0.29903   0.00000  Uiso   1.00
Zn49   Zn    0.16667   0.25001   0.30307   0.00000  Uiso   1.00
Zn50   Zn    0.16667   0.25000   0.19693   0.00000  Uiso   1.00
H51    H     0.19950   0.02944   0.32507   0.00000  Uiso   1.00
H52    H     0.20085   0.47053   0.18466   0.00000  Uiso   1.00
H53    H     0.13400   0.02941   0.17493   0.00000  Uiso   1.00
H54    H     0.13263   0.47056   0.31535   0.00000  Uiso   1.00
Br55   Br    0.07846   0.18765   0.00943   0.00000  Uiso   1.00
Br56   Br    0.25877   0.19186   0.49109   0.00000  Uiso   1.00
H57    H     0.10239   0.20564   0.11339   0.00000  Uiso   1.00
H58    H     0.23359   0.20859   0.38697   0.00000  Uiso   1.00
C59    C     0.50001   0.16385   0.25000   0.00000  Uiso   1.00
C60    C     0.50000   0.33614   0.25000   0.00000  Uiso   1.00
C61    C     0.46280   0.22433   0.04744   0.00000  Uiso   1.00
C62    C     0.53878   0.22608   0.45277   0.00000  Uiso   1.00
C63    C     0.46384   0.22513   0.09743   0.00000  Uiso   1.00
C64    C     0.53766   0.22681   0.40277   0.00000  Uiso   1.00
C65    C     0.53603   0.27453   0.10685   0.00000  Uiso   1.00
C66    C     0.46252   0.27291   0.39298   0.00000  Uiso   1.00
C67    C     0.53660   0.27461   0.05713   0.00000  Uiso   1.00
C68    C     0.46195   0.27294   0.44269   0.00000  Uiso   1.00
C69    C     0.49971   0.24941   0.02655   0.00000  Uiso   1.00
C70    C     0.50036   0.24944   0.47347   0.00000  Uiso   1.00
C71    C     0.40030   0.25002   0.23751   0.00000  Uiso   1.00
C72    C     0.59970   0.25003   0.26249   0.00000  Uiso   1.00
C73    C     0.34530   0.25006   0.23075   0.00000  Uiso   1.00
C74    C     0.65470   0.25006   0.26925   0.00000  Uiso   1.00
C75    C     0.51811   0.04703   0.29233   0.00000  Uiso   1.00
C76    C     0.51887   0.45294   0.21303   0.00000  Uiso   1.00
C77    C     0.51780   0.09301   0.29241   0.00000  Uiso   1.00
C78    C     0.51856   0.40696   0.21287   0.00000  Uiso   1.00
C79    C     0.50003   0.11597   0.25000   0.00000  Uiso   1.00
C80    C     0.50002   0.38401   0.25000   0.00000  Uiso   1.00
C81    C     0.48229   0.09299   0.20759   0.00000  Uiso   1.00
C82    C     0.48152   0.40697   0.28713   0.00000  Uiso   1.00
C83    C     0.48203   0.04701   0.20766   0.00000  Uiso   1.00
C84    C     0.48126   0.45295   0.28698   0.00000  Uiso   1.00
C85    C     0.50008   0.02403   0.25000   0.00000  Uiso   1.00
C86    C     0.50008   0.47594   0.25000   0.00000  Uiso   1.00
H87    H     0.65798   0.25008   0.19422   0.00000  Uiso   1.00
H88    H     0.34202   0.25007   0.30578   0.00000  Uiso   1.00
H89    H     0.53206   0.11055   0.32531   0.00000  Uiso   1.00
H90    H     0.53341   0.38942   0.18421   0.00000  Uiso   1.00
H91    H     0.46801   0.11051   0.17469   0.00000  Uiso   1.00
H92    H     0.46665   0.38944   0.31579   0.00000  Uiso   1.00
H93    H     0.56455   0.29413   0.12999   0.00000  Uiso   1.00
H94    H     0.43284   0.29124   0.36970   0.00000  Uiso   1.00
H95    H     0.56565   0.29430   0.04259   0.00000  Uiso   1.00
H96    H     0.43172   0.29129   0.45709   0.00000  Uiso   1.00
N97    N     0.50000   0.24999   0.12623   0.00000  Uiso   1.00
N98    N     0.50000   0.25001   0.37376   0.00000  Uiso   1.00
O99    O     0.50000   0.18454   0.28974   0.00000  Uiso   1.00
O100   O     0.50000   0.31547   0.21026   0.00000  Uiso   1.00
O101   O     0.50000   0.18453   0.21026   0.00000  Uiso   1.00
O102   O     0.50000   0.31547   0.28974   0.00000  Uiso   1.00
O103   O     0.42392   0.25000   0.28044   0.00000  Uiso   1.00
O104   O     0.57608   0.25000   0.21955   0.00000  Uiso   1.00
O105   O     0.42392   0.25000   0.20096   0.00000  Uiso   1.00
O106   O     0.57608   0.25001   0.29903   0.00000  Uiso   1.00
Zn107  Zn    0.50000   0.25001   0.30307   0.00000  Uiso   1.00
Zn108  Zn    0.50000   0.25000   0.19693   0.00000  Uiso   1.00
H109   H     0.53283   0.02944   0.32507   0.00000  Uiso   1.00
H110   H     0.53418   0.47053   0.18466   0.00000  Uiso   1.00
H111   H     0.46733   0.02941   0.17493   0.00000  Uiso   1.00
H112   H     0.46596   0.47056   0.31535   0.00000  Uiso   1.00
Br113  Br    0.41179   0.18765   0.00943   0.00000  Uiso   1.00
Br114  Br    0.59210   0.19186   0.49109   0.00000  Uiso   1.00
H115   H     0.43572   0.20564   0.11339   0.00000  Uiso   1.00
H116   H     0.56693   0.20859   0.38697   0.00000  Uiso   1.00
C117   C     0.83334   0.16385   0.25000   0.00000  Uiso   1.00
C118   C     0.83333   0.33614   0.25000   0.00000  Uiso   1.00
C119   C     0.79613   0.22433   0.04744   0.00000  Uiso   1.00
C120   C     0.87211   0.22608   0.45277   0.00000  Uiso   1.00
C121   C     0.79717   0.22513   0.09743   0.00000  Uiso   1.00
C122   C     0.87099   0.22681   0.40277   0.00000  Uiso   1.00
C123   C     0.86936   0.27453   0.10685   0.00000  Uiso   1.00
C124   C     0.79586   0.27291   0.39298   0.00000  Uiso   1.00
C125   C     0.86993   0.27461   0.05713   0.00000  Uiso   1.00
C126   C     0.79528   0.27294   0.44269   0.00000  Uiso   1.00
C127   C     0.83304   0.24941   0.02655   0.00000  Uiso   1.00
C128   C     0.83370   0.24944   0.47347   0.00000  Uiso   1.00
C129   C     0.73363   0.25002   0.23751   0.00000  Uiso   1.00
C130   C     0.93303   0.25003   0.26249   0.00000  Uiso   1.00
C131   C     0.67863   0.25006   0.23075   0.00000  Uiso   1.00
C132   C     0.98803   0.25006   0.26925   0.00000  Uiso   1.00
C133   C     0.85145   0.04703   0.29233   0.00000  Uiso   1.00
C134   C     0.85221   0.45294   0.21303   0.00000  Uiso   1.00
C135   C     0.85114   0.09301   0.29241   0.00000  Uiso   1.00
C136   C     0.85189   0.40696   0.21287   0.00000  Uiso   1.00
C137   C     0.83336   0.11597   0.25000   0.00000  Uiso   1.00
C138   C     0.83336   0.38401   0.25000   0.00000  Uiso   1.00
C139   C     0.81562   0.09299   0.20759   0.00000  Uiso   1.00
C140   C     0.81485   0.40697   0.28713   0.00000  Uiso   1.00
C141   C     0.81536   0.04701   0.20766   0.00000  Uiso   1.00
C142   C     0.81459   0.45295   0.28698   0.00000  Uiso   1.00
C143   C     0.83342   0.02403   0.25000   0.00000  Uiso   1.00
C144   C     0.83341   0.47594   0.25000   0.00000  Uiso   1.00
H145   H     0.99131   0.25008   0.19422   0.00000  Uiso   1.00
H146   H     0.67535   0.25007   0.30578   0.00000  Uiso   1.00
H147   H     0.86539   0.11055   0.32531   0.00000  Uiso   1.00
H148   H     0.86674   0.38942   0.18421   0.00000  Uiso   1.00
H149   H     0.80135   0.11051   0.17469   0.00000  Uiso   1.00
H150   H     0.79999   0.38944   0.31579   0.00000  Uiso   1.00
H151   H     0.89788   0.29413   0.12999   0.00000  Uiso   1.00
H152   H     0.76618   0.29124   0.36970   0.00000  Uiso   1.00
H153   H     0.89898   0.29430   0.04259   0.00000  Uiso   1.00
H154   H     0.76505   0.29129   0.45709   0.00000  Uiso   1.00
N155   N     0.83333   0.24999   0.12623   0.00000  Uiso   1.00
N156   N     0.83333   0.25001   0.37376   0.00000  Uiso   1.00
O157   O     0.83334   0.18454   0.28974   0.00000  Uiso   1.00
O158   O     0.83333   0.31547   0.21026   0.00000  Uiso   1.00
O159   O     0.83334   0.18453   0.21026   0.00000  Uiso   1.00
O160   O     0.83333   0.31547   0.28974   0.00000  Uiso   1.00
O161   O     0.75725   0.25000   0.28044   0.00000  Uiso   1.00
O162   O     0.90942   0.25000   0.21955   0.00000  Uiso   1.00
O163   O     0.75725   0.25000   0.20096   0.00000  Uiso   1.00
O164   O     0.90942   0.25001   0.29903   0.00000  Uiso   1.00
Zn165  Zn    0.83333   0.25001   0.30307   0.00000  Uiso   1.00
Zn166  Zn    0.83333   0.25000   0.19693   0.00000  Uiso   1.00
H167   H     0.86616   0.02944   0.32507   0.00000  Uiso   1.00
H168   H     0.86752   0.47053   0.18466   0.00000  Uiso   1.00
H169   H     0.80066   0.02941   0.17493   0.00000  Uiso   1.00
H170   H     0.79930   0.47056   0.31535   0.00000  Uiso   1.00
Br171  Br    0.74512   0.18765   0.00943   0.00000  Uiso   1.00
Br172  Br    0.92544   0.19186   0.49109   0.00000  Uiso   1.00
H173   H     0.76906   0.20564   0.11339   0.00000  Uiso   1.00
H174   H     0.90026   0.20859   0.38697   0.00000  Uiso   1.00
C175   C     0.16667   0.66385   0.25000   0.00000  Uiso   1.00
C176   C     0.16667   0.83614   0.25000   0.00000  Uiso   1.00
C177   C     0.12947   0.72433   0.04744   0.00000  Uiso   1.00
C178   C     0.20545   0.72608   0.45277   0.00000  Uiso   1.00
C179   C     0.13050   0.72513   0.09743   0.00000  Uiso   1.00
C180   C     0.20432   0.72681   0.40277   0.00000  Uiso   1.00
C181   C     0.20269   0.77453   0.10685   0.00000  Uiso   1.00
C182   C     0.12919   0.77291   0.39298   0.00000  Uiso   1.00
C183   C     0.20327   0.77461   0.05713   0.00000  Uiso   1.00
C184   C     0.12861   0.77294   0.44269   0.00000  Uiso   1.00
C185   C     0.16637   0.74941   0.02655   0.00000  Uiso   1.00
C186   C     0.16703   0.74944   0.47347   0.00000  Uiso   1.00
C187   C     0.06696   0.75002   0.23751   0.00000  Uiso   1.00
C188   C     0.26637   0.75003   0.26249   0.00000  Uiso   1.00
C189   C     0.01197   0.75006   0.23075   0.00000  Uiso   1.00
C190   C     0.32137   0.75006   0.26925   0.00000  Uiso   1.00
C191   C     0.18478   0.54703   0.29233   0.00000  Uiso   1.00
C192   C     0.18554   0.95294   0.21303   0.00000  Uiso   1.00
C193   C     0.18447   0.59301   0.29241   0.00000  Uiso   1.00
C194   C     0.18522   0.90696   0.21287   0.00000  Uiso   1.00
C195   C     0.16670   0.61597   0.25000   0.00000  Uiso   1.00
C196   C     0.16669   0.88401   0.25000   0.00000  Uiso   1.00
C197   C     0.14895   0.59299   0.20759   0.00000  Uiso   1.00
C198   C     0.14819   0.90697   0.28713   0.00000  Uiso   1.00
C199   C     0.14870   0.54701   0.20766   0.00000  Uiso   1.00
C200   C     0.14793   0.95295   0.28698   0.00000  Uiso   1.00
C201   C     0.16675   0.52403   0.25000   0.00000  Uiso   1.00
C202   C     0.16675   0.97594   0.25000   0.00000  Uiso   1.00
H203   H     0.32465   0.75008   0.19422   0.00000  Uiso   1.00
H204   H     0.00869   0.75007   0.30578   0.00000  Uiso   1.00
H205   H     0.19872   0.61055   0.32531   0.00000  Uiso   1.00
H206   H     0.20007   0.88942   0.18421   0.00000  Uiso   1.00
H207   H     0.13468   0.61051   0.17469   0.00000  Uiso   1.00
H208   H     0.13332   0.88944   0.31579   0.00000  Uiso   1.00
H209   H     0.23121   0.79413   0.12999   0.00000  Uiso   1.00
H210   H     0.09951   0.79124   0.36970   0.00000  Uiso   1.00
H211   H     0.23231   0.79430   0.04259   0.00000  Uiso   1.00
H212   H     0.09839   0.79129   0.45709   0.00000  Uiso   1.00
N213   N     0.16667   0.74999   0.12623   0.00000  Uiso   1.00
N214   N     0.16667   0.75001   0.37376   0.00000  Uiso   1.00
O215   O     0.16667   0.68454   0.28974   0.00000  Uiso   1.00
O216   O     0.16666   0.81547   0.21026   0.00000  Uiso   1.00
O217   O     0.16667   0.68453   0.21026   0.00000  Uiso   1.00
O218   O     0.16666   0.81547   0.28974   0.00000  Uiso   1.00
O219   O     0.09058   0.75000   0.28044   0.00000  Uiso   1.00
O220   O     0.24275   0.75000   0.21955   0.00000  Uiso   1.00
O221   O     0.09058   0.75000   0.20096   0.00000  Uiso   1.00
O222   O     0.24275   0.75001   0.29903   0.00000  Uiso   1.00
Zn223  Zn    0.16667   0.75001   0.30307   0.00000  Uiso   1.00
Zn224  Zn    0.16667   0.75000   0.19693   0.00000  Uiso   1.00
H225   H     0.19950   0.52944   0.32507   0.00000  Uiso   1.00
H226   H     0.20085   0.97053   0.18466   0.00000  Uiso   1.00
H227   H     0.13400   0.52941   0.17493   0.00000  Uiso   1.00
H228   H     0.13263   0.97056   0.31535   0.00000  Uiso   1.00
Br229  Br    0.07846   0.68765   0.00943   0.00000  Uiso   1.00
Br230  Br    0.25877   0.69186   0.49109   0.00000  Uiso   1.00
H231   H     0.10239   0.70564   0.11339   0.00000  Uiso   1.00
H232   H     0.23359   0.70859   0.38697   0.00000  Uiso   1.00
C233   C     0.50001   0.66385   0.25000   0.00000  Uiso   1.00
C234   C     0.50000   0.83614   0.25000   0.00000  Uiso   1.00
C235   C     0.46280   0.72433   0.04744   0.00000  Uiso   1.00
C236   C     0.53878   0.72608   0.45277   0.00000  Uiso   1.00
C237   C     0.46384   0.72513   0.09743   0.00000  Uiso   1.00
C238   C     0.53766   0.72681   0.40277   0.00000  Uiso   1.00
C239   C     0.53603   0.77453   0.10685   0.00000  Uiso   1.00
C240   C     0.46252   0.77291   0.39298   0.00000  Uiso   1.00
C241   C     0.53660   0.77461   0.05713   0.00000  Uiso   1.00
C242   C     0.46195   0.77294   0.44269   0.00000  Uiso   1.00
C243   C     0.49971   0.74941   0.02655   0.00000  Uiso   1.00
C244   C     0.50036   0.74944   0.47347   0.00000  Uiso   1.00
C245   C     0.40030   0.75002   0.23751   0.00000  Uiso   1.00
C246   C     0.59970   0.75003   0.26249   0.00000  Uiso   1.00
C247   C     0.34530   0.75006   0.23075   0.00000  Uiso   1.00
C248   C     0.65470   0.75006   0.26925   0.00000  Uiso   1.00
C249   C     0.51811   0.54703   0.29233   0.00000  Uiso   1.00
C250   C     0.51887   0.95294   0.21303   0.00000  Uiso   1.00
C251   C     0.51780   0.59301   0.29241   0.00000  Uiso   1.00
C252   C     0.51856   0.90696   0.21287   0.00000  Uiso   1.00
C253   C     0.50003   0.61597   0.25000   0.00000  Uiso   1.00
C254   C     0.50002   0.88401   0.25000   0.00000  Uiso   1.00
C255   C     0.48229   0.59299   0.20759   0.00000  Uiso   1.00
C256   C     0.48152   0.90697   0.28713   0.00000  Uiso   1.00
C257   C     0.48203   0.54701   0.20766   0.00000  Uiso   1.00
C258   C     0.48126   0.95295   0.28698   0.00000  Uiso   1.00
C259   C     0.50008   0.52403   0.25000   0.00000  Uiso   1.00
C260   C     0.50008   0.97594   0.25000   0.00000  Uiso   1.00
H261   H     0.65798   0.75008   0.19422   0.00000  Uiso   1.00
H262   H     0.34202   0.75007   0.30578   0.00000  Uiso   1.00
H263   H     0.53206   0.61055   0.32531   0.00000  Uiso   1.00
H264   H     0.53341   0.88942   0.18421   0.00000  Uiso   1.00
H265   H     0.46801   0.61051   0.17469   0.00000  Uiso   1.00
H266   H     0.46665   0.88944   0.31579   0.00000  Uiso   1.00
H267   H     0.56455   0.79413   0.12999   0.00000  Uiso   1.00
H268   H     0.43284   0.79124   0.36970   0.00000  Uiso   1.00
H269   H     0.56565   0.79430   0.04259   0.00000  Uiso   1.00
H270   H     0.43172   0.79129   0.45709   0.00000  Uiso   1.00
N271   N     0.50000   0.74999   0.12623   0.00000  Uiso   1.00
N272   N     0.50000   0.75001   0.37376   0.00000  Uiso   1.00
O273   O     0.50000   0.68454   0.28974   0.00000  Uiso   1.00
O274   O     0.50000   0.81547   0.21026   0.00000  Uiso   1.00
O275   O     0.50000   0.68453   0.21026   0.00000  Uiso   1.00
O276   O     0.50000   0.81547   0.28974   0.00000  Uiso   1.00
O277   O     0.42392   0.75000   0.28044   0.00000  Uiso   1.00
O278   O     0.57608   0.75000   0.21955   0.00000  Uiso   1.00
O279   O     0.42392   0.75000   0.20096   0.00000  Uiso   1.00
O280   O     0.57608   0.75001   0.29903   0.00000  Uiso   1.00
Zn281  Zn    0.50000   0.75001   0.30307   0.00000  Uiso   1.00
Zn282  Zn    0.50000   0.75000   0.19693   0.00000  Uiso   1.00
H283   H     0.53283   0.52944   0.32507   0.00000  Uiso   1.00
H284   H     0.53418   0.97053   0.18466   0.00000  Uiso   1.00
H285   H     0.46733   0.52941   0.17493   0.00000  Uiso   1.00
H286   H     0.46596   0.97056   0.31535   0.00000  Uiso   1.00
Br287  Br    0.41179   0.68765   0.00943   0.00000  Uiso   1.00
Br288  Br    0.59210   0.69186   0.49109   0.00000  Uiso   1.00
H289   H     0.43572   0.70564   0.11339   0.00000  Uiso   1.00
H290   H     0.56693   0.70859   0.38697   0.00000  Uiso   1.00
C291   C     0.83334   0.66385   0.25000   0.00000  Uiso   1.00
C292   C     0.83333   0.83614   0.25000   0.00000  Uiso   1.00
C293   C     0.79613   0.72433   0.04744   0.00000  Uiso   1.00
C294   C     0.87211   0.72608   0.45277   0.00000  Uiso   1.00
C295   C     0.79717   0.72513   0.09743   0.00000  Uiso   1.00
C296   C     0.87099   0.72681   0.40277   0.00000  Uiso   1.00
C297   C     0.86936   0.77453   0.10685   0.00000  Uiso   1.00
C298   C     0.79586   0.77291   0.39298   0.00000  Uiso   1.00
C299   C     0.86993   0.77461   0.05713   0.00000  Uiso   1.00
C300   C     0.79528   0.77294   0.44269   0.00000  Uiso   1.00
C301   C     0.83304   0.74941   0.02655   0.00000  Uiso   1.00
C302   C     0.83370   0.74944   0.47347   0.00000  Uiso   1.00
C303   C     0.73363   0.75002   0.23751   0.00000  Uiso   1.00
C304   C     0.93303   0.75003   0.26249   0.00000  Uiso   1.00
C305   C     0.67863   0.75006   0.23075   0.00000  Uiso   1.00
C306   C     0.98803   0.75006   0.26925   0.00000  Uiso   1.00
C307   C     0.85145   0.54703   0.29233   0.00000  Uiso   1.00
C308   C     0.85221   0.95294   0.21303   0.00000  Uiso   1.00
C309   C     0.85114   0.59301   0.29241   0.00000  Uiso   1.00
C310   C     0.85189   0.90696   0.21287   0.00000  Uiso   1.00
C311   C     0.83336   0.61597   0.25000   0.00000  Uiso   1.00
C312   C     0.83336   0.88401   0.25000   0.00000  Uiso   1.00
C313   C     0.81562   0.59299   0.20759   0.00000  Uiso   1.00
C314   C     0.81485   0.90697   0.28713   0.00000  Uiso   1.00
C315   C     0.81536   0.54701   0.20766   0.00000  Uiso   1.00
C316   C     0.81459   0.95295   0.28698   0.00000  Uiso   1.00
C317   C     0.83342   0.52403   0.25000   0.00000  Uiso   1.00
C318   C     0.83341   0.97594   0.25000   0.00000  Uiso   1.00
H319   H     0.99131   0.75008   0.19422   0.00000  Uiso   1.00
H320   H     0.67535   0.75007   0.30578   0.00000  Uiso   1.00
H321   H     0.86539   0.61055   0.32531   0.00000  Uiso   1.00
H322   H     0.86674   0.88942   0.18421   0.00000  Uiso   1.00
H323   H     0.80135   0.61051   0.17469   0.00000  Uiso   1.00
H324   H     0.79999   0.88944   0.31579   0.00000  Uiso   1.00
H325   H     0.89788   0.79413   0.12999   0.00000  Uiso   1.00
H326   H     0.76618   0.79124   0.36970   0.00000  Uiso   1.00
H327   H     0.89898   0.79430   0.04259   0.00000  Uiso   1.00
H328   H     0.76505   0.79129   0.45709   0.00000  Uiso   1.00
N329   N     0.83333   0.74999   0.12623   0.00000  Uiso   1.00
N330   N     0.83333   0.75001   0.37376   0.00000  Uiso   1.00
O331   O     0.83334   0.68454   0.28974   0.00000  Uiso   1.00
O332   O     0.83333   0.81547   0.21026   0.00000  Uiso   1.00
O333   O     0.83334   0.68453   0.21026   0.00000  Uiso   1.00
O334   O     0.83333   0.81547   0.28974   0.00000  Uiso   1.00
O335   O     0.75725   0.75000   0.28044   0.00000  Uiso   1.00
O336   O     0.90942   0.75000   0.21955   0.00000  Uiso   1.00
O337   O     0.75725   0.75000   0.20096   0.00000  Uiso   1.00
O338   O     0.90942   0.75001   0.29903   0.00000  Uiso   1.00
Zn339  Zn    0.83333   0.75001   0.30307   0.00000  Uiso   1.00
Zn340  Zn    0.83333   0.75000   0.19693   0.00000  Uiso   1.00
H341   H     0.86616   0.52944   0.32507   0.00000  Uiso   1.00
H342   H     0.86752   0.97053   0.18466   0.00000  Uiso   1.00
H343   H     0.80066   0.52941   0.17493   0.00000  Uiso   1.00
H344   H     0.79930   0.97056   0.31535   0.00000  Uiso   1.00
Br345  Br    0.74512   0.68765   0.00943   0.00000  Uiso   1.00
Br346  Br    0.92544   0.69186   0.49109   0.00000  Uiso   1.00
H347   H     0.76906   0.70564   0.11339   0.00000  Uiso   1.00
H348   H     0.90026   0.70859   0.38697   0.00000  Uiso   1.00
C349   C     0.16667   0.16385   0.75000   0.00000  Uiso   1.00
C350   C     0.16667   0.33614   0.75000   0.00000  Uiso   1.00
C351   C     0.12947   0.22433   0.54744   0.00000  Uiso   1.00
C352   C     0.20545   0.22608   0.95277   0.00000  Uiso   1.00
C353   C     0.13050   0.22513   0.59743   0.00000  Uiso   1.00
C354   C     0.20432   0.22681   0.90277   0.00000  Uiso   1.00
C355   C     0.20269   0.27453   0.60685   0.00000  Uiso   1.00
C356   C     0.12919   0.27291   0.89298   0.00000  Uiso   1.00
C357   C     0.20327   0.27461   0.55713   0.00000  Uiso   1.00
C358   C     0.12861   0.27294   0.94269   0.00000  Uiso   1.00
C359   C     0.16637   0.24941   0.52655   0.00000  Uiso   1.00
C360   C     0.16703   0.24944   0.97347   0.00000  Uiso   1.00
C361   C     0.06696   0.25002   0.73751   0.00000  Uiso   1.00
C362   C     0.26637   0.25003   0.76249   0.00000  Uiso   1.00
C363   C     0.01197   0.25006   0.73075   0.00000  Uiso   1.00
C364   C     0.32137   0.25006   0.76925   0.00000  Uiso   1.00
C365   C     0.18478   0.04703   0.79233   0.00000  Uiso   1.00
C366   C     0.18554   0.45294   0.71303   0.00000  Uiso   1.00
C367   C     0.18447   0.09301   0.79241   0.00000  Uiso   1.00
C368   C     0.18522   0.40696   0.71287   0.00000  Uiso   1.00
C369   C     0.16670   0.11597   0.75000   0.00000  Uiso   1.00
C370   C     0.16669   0.38401   0.75000   0.00000  Uiso   1.00
C371   C     0.14895   0.09299   0.70759   0.00000  Uiso   1.00
C372   C     0.14819   0.40697   0.78713   0.00000  Uiso   1.00
C373   C     0.14870   0.04701   0.70766   0.00000  Uiso   1.00
C374   C     0.14793   0.45295   0.78698   0.00000  Uiso   1.00
C375   C     0.16675   0.02403   0.75000   0.00000  Uiso   1.00
C376   C     0.16675   0.47594   0.75000   0.00000  Uiso   1.00
H377   H     0.32465   0.25008   0.69422   0.00000  Uiso   1.00
H378   H     0.00869   0.25007   0.80578   0.00000  Uiso   1.00
H379   H     0.19872   0.11055   0.82531   0.00000  Uiso   1.00
H380   H     0.20007   0.38942   0.68421   0.00000  Uiso   1.00
H381   H     0.13468   0.11051   0.67469   0.00000  Uiso   1.00
H382   H     0.13332   0.38944   0.81579   0.00000  Uiso   1.00
H383   H     0.23121   0.29413   0.62999   0.00000  Uiso   1.00
H384   H     0.09951   0.29124   0.86970   0.00000  Uiso   1.00
H385   H     0.23231   0.29430   0.54259   0.00000  Uiso   1.00
H386   H     0.09839   0.29129   0.95709   0.00000  Uiso   1.00
N387   N     0.16667   0.24999   0.62623   0.00000  Uiso   1.00
N388   N     0.16667   0.25001   0.87376   0.00000  Uiso   1.00
O389   O     0.16667   0.18454   0.78974   0.00000  Uiso   1.00
O390   O     0.16666   0.31547   0.71026   0.00000  Uiso   1.00
O391   O     0.16667   0.18453   0.71026   0.00000  Uiso   1.00
O392   O     0.16666   0.31547   0.78974   0.00000  Uiso   1.00
O393   O     0.09058   0.25000   0.78044   0.00000  Uiso   1.00
O394   O     0.24275   0.25000   0.71955   0.00000  Uiso   1.00
O395   O     0.09058   0.25000   0.70096   0.00000  Uiso   1.00
O396   O     0.24275   0.25001   0.79903   0.00000  Uiso   1.00
Zn397  Zn    0.16667   0.25001   0.80307   0.00000  Uiso   1.00
Zn398  Zn    0.16667   0.25000   0.69693   0.00000  Uiso   1.00
H399   H     0.19950   0.02944   0.82507   0.00000  Uiso   1.00
H400   H     0.20085   0.47053   0.68466   0.00000  Uiso   1.00
H401   H     0.13400   0.02941   0.67493   0.00000  Uiso   1.00
H402   H     0.13263   0.47056   0.81535   0.00000  Uiso   1.00
Br403  Br    0.07846   0.18765   0.50943   0.00000  Uiso   1.00
Br404  Br    0.25877   0.19186   0.99109   0.00000  Uiso   1.00
H405   H     0.10239   0.20564   0.61339   0.00000  Uiso   1.00
H406   H     0.23359   0.20859   0.88697   0.00000  Uiso   1.00
C407   C     0.50001   0.16385   0.75000   0.00000  Uiso   1.00
C408   C     0.50000   0.33614   0.75000   0.00000  Uiso   1.00
C409   C     0.46280   0.22433   0.54744   0.00000  Uiso   1.00
C410   C     0.53878   0.22608   0.95277   0.00000  Uiso   1.00
C411   C     0.46384   0.22513   0.59743   0.00000  Uiso   1.00
C412   C     0.53766   0.22681   0.90277   0.00000  Uiso   1.00
C413   C     0.53603   0.27453   0.60685   0.00000  Uiso   1.00
C414   C     0.46252   0.27291   0.89298   0.00000  Uiso   1.00
C415   C     0.53660   0.27461   0.55713   0.00000  Uiso   1.00
C416   C     0.46195   0.27294   0.94269   0.00000  Uiso   1.00
C417   C     0.49971   0.24941   0.52655   0.00000  Uiso   1.00
C418   C     0.50036   0.24944   0.97347   0.00000  Uiso   1.00
C419   C     0.40030   0.25002   0.73751   0.00000  Uiso   1.00
C420   C     0.59970   0.25003   0.76249   0.00000  Uiso   1.00
C421   C     0.34530   0.25006   0.73075   0.00000  Uiso   1.00
C422   C     0.65470   0.25006   0.76925   0.00000  Uiso   1.00
C423   C     0.51811   0.04703   0.79233   0.00000  Uiso   1.00
C424   C     0.51887   0.45294   0.71303   0.00000  Uiso   1.00
C425   C     0.51780   0.09301   0.79241   0.00000  Uiso   1.00
C426   C     0.51856   0.40696   0.71287   0.00000  Uiso   1.00
C427   C     0.50003   0.11597   0.75000   0.00000  Uiso   1.00
C428   C     0.50002   0.38401   0.75000   0.00000  Uiso   1.00
C429   C     0.48229   0.09299   0.70759   0.00000  Uiso   1.00
C430   C     0.48152   0.40697   0.78713   0.00000  Uiso   1.00
C431   C     0.48203   0.04701   0.70766   0.00000  Uiso   1.00
C432   C     0.48126   0.45295   0.78698   0.00000  Uiso   1.00
C433   C     0.50008   0.02403   0.75000   0.00000  Uiso   1.00
C434   C     0.50008   0.47594   0.75000   0.00000  Uiso   1.00
H435   H     0.65798   0.25008   0.69422   0.00000  Uiso   1.00
H436   H     0.34202   0.25007   0.80578   0.00000  Uiso   1.00
H437   H     0.53206   0.11055   0.82531   0.00000  Uiso   1.00
H438   H     0.53341   0.38942   0.68421   0.00000  Uiso   1.00
H439   H     0.46801   0.11051   0.67469   0.00000  Uiso   1.00
H440   H     0.46665   0.38944   0.81579   0.00000  Uiso   1.00
H441   H     0.56455   0.29413   0.62999   0.00000  Uiso   1.00
H442   H     0.43284   0.29124   0.86970   0.00000  Uiso   1.00
H443   H     0.56565   0.29430   0.54259   0.00000  Uiso   1.00
H444   H     0.43172   0.29129   0.95709   0.00000  Uiso   1.00
N445   N     0.50000   0.24999   0.62623   0.00000  Uiso   1.00
N446   N     0.50000   0.25001   0.87376   0.00000  Uiso   1.00
O447   O     0.50000   0.18454   0.78974   0.00000  Uiso   1.00
O448   O     0.50000   0.31547   0.71026   0.00000  Uiso   1.00
O449   O     0.50000   0.18453   0.71026   0.00000  Uiso   1.00
O450   O     0.50000   0.31547   0.78974   0.00000  Uiso   1.00
O451   O     0.42392   0.25000   0.78044   0.00000  Uiso   1.00
O452   O     0.57608   0.25000   0.71955   0.00000  Uiso   1.00
O453   O     0.42392   0.25000   0.70096   0.00000  Uiso   1.00
O454   O     0.57608   0.25001   0.79903   0.00000  Uiso   1.00
Zn455  Zn    0.50000   0.25001   0.80307   0.00000  Uiso   1.00
Zn456  Zn    0.50000   0.25000   0.69693   0.00000  Uiso   1.00
H457   H     0.53283   0.02944   0.82507   0.00000  Uiso   1.00
H458   H     0.53418   0.47053   0.68466   0.00000  Uiso   1.00
H459   H     0.46733   0.02941   0.67493   0.00000  Uiso   1.00
H460   H     0.46596   0.47056   0.81535   0.00000  Uiso   1.00
Br461  Br    0.41179   0.18765   0.50943   0.00000  Uiso   1.00
Br462  Br    0.59210   0.19186   0.99109   0.00000  Uiso   1.00
H463   H     0.43572   0.20564   0.61339   0.00000  Uiso   1.00
H464   H     0.56693   0.20859   0.88697   0.00000  Uiso   1.00
C465   C     0.83334   0.16385   0.75000   0.00000  Uiso   1.00
C466   C     0.83333   0.33614   0.75000   0.00000  Uiso   1.00
C467   C     0.79613   0.22433   0.54744   0.00000  Uiso   1.00
C468   C     0.87211   0.22608   0.95277   0.00000  Uiso   1.00
C469   C     0.79717   0.22513   0.59743   0.00000  Uiso   1.00
C470   C     0.87099   0.22681   0.90277   0.00000  Uiso   1.00
C471   C     0.86936   0.27453   0.60685   0.00000  Uiso   1.00
C472   C     0.79586   0.27291   0.89298   0.00000  Uiso   1.00
C473   C     0.86993   0.27461   0.55713   0.00000  Uiso   1.00
C474   C     0.79528   0.27294   0.94269   0.00000  Uiso   1.00
C475   C     0.83304   0.24941   0.52655   0.00000  Uiso   1.00
C476   C     0.83370   0.24944   0.97347   0.00000  Uiso   1.00
C477   C     0.73363   0.25002   0.73751   0.00000  Uiso   1.00
C478   C     0.93303   0.25003   0.76249   0.00000  Uiso   1.00
C479   C     0.67863   0.25006   0.73075   0.00000  Uiso   1.00
C480   C     0.98803   0.25006   0.76925   0.00000  Uiso   1.00
C481   C     0.85145   0.04703   0.79233   0.00000  Uiso   1.00
C482   C     0.85221   0.45294   0.71303   0.00000  Uiso   1.00
C483   C     0.85114   0.09301   0.79241   0.00000  Uiso   1.00
C484   C     0.85189   0.40696   0.71287   0.00000  Uiso   1.00
C485   C     0.83336   0.11597   0.75000   0.00000  Uiso   1.00
C486   C     0.83336   0.38401   0.75000   0.00000  Uiso   1.00
C487   C     0.81562   0.09299   0.70759   0.00000  Uiso   1.00
C488   C     0.81485   0.40697   0.78713   0.00000  Uiso   1.00
C489   C     0.81536   0.04701   0.70766   0.00000  Uiso   1.00
C490   C     0.81459   0.45295   0.78698   0.00000  Uiso   1.00
C491   C     0.83342   0.02403   0.75000   0.00000  Uiso   1.00
C492   C     0.83341   0.47594   0.75000   0.00000  Uiso   1.00
H493   H     0.99131   0.25008   0.69422   0.00000  Uiso   1.00
H494   H     0.67535   0.25007   0.80578   0.00000  Uiso   1.00
H495   H     0.86539   0.11055   0.82531   0.00000  Uiso   1.00
H496   H     0.86674   0.38942   0.68421   0.00000  Uiso   1.00
H497   H     0.80135   0.11051   0.67469   0.00000  Uiso   1.00
H498   H     0.79999   0.38944   0.81579   0.00000  Uiso   1.00
H499   H     0.89788   0.29413   0.62999   0.00000  Uiso   1.00
H500   H     0.76618   0.29124   0.86970   0.00000  Uiso   1.00
H501   H     0.89898   0.29430   0.54259   0.00000  Uiso   1.00
H502   H     0.76505   0.29129   0.95709   0.00000  Uiso   1.00
N503   N     0.83333   0.24999   0.62623   0.00000  Uiso   1.00
N504   N     0.83333   0.25001   0.87376   0.00000  Uiso   1.00
O505   O     0.83334   0.18454   0.78974   0.00000  Uiso   1.00
O506   O     0.83333   0.31547   0.71026   0.00000  Uiso   1.00
O507   O     0.83334   0.18453   0.71026   0.00000  Uiso   1.00
O508   O     0.83333   0.31547   0.78974   0.00000  Uiso   1.00
O509   O     0.75725   0.25000   0.78044   0.00000  Uiso   1.00
O510   O     0.90942   0.25000   0.71955   0.00000  Uiso   1.00
O511   O     0.75725   0.25000   0.70096   0.00000  Uiso   1.00
O512   O     0.90942   0.25001   0.79903   0.00000  Uiso   1.00
Zn513  Zn    0.83333   0.25001   0.80307   0.00000  Uiso   1.00
Zn514  Zn    0.83333   0.25000   0.69693   0.00000  Uiso   1.00
H515   H     0.86616   0.02944   0.82507   0.00000  Uiso   1.00
H516   H     0.86752   0.47053   0.68466   0.00000  Uiso   1.00
H517   H     0.80066   0.02941   0.67493   0.00000  Uiso   1.00
H518   H     0.79930   0.47056   0.81535   0.00000  Uiso   1.00
Br519  Br    0.74512   0.18765   0.50943   0.00000  Uiso   1.00
Br520  Br    0.92544   0.19186   0.99109   0.00000  Uiso   1.00
H521   H     0.76906   0.20564   0.61339   0.00000  Uiso   1.00
H522   H     0.90026   0.20859   0.88697   0.00000  Uiso   1.00
C523   C     0.16667   0.66385   0.75000   0.00000  Uiso   1.00
C524   C     0.16667   0.83614   0.75000   0.00000  Uiso   1.00
C525   C     0.12947   0.72433   0.54744   0.00000  Uiso   1.00
C526   C     0.20545   0.72608   0.95277   0.00000  Uiso   1.00
C527   C     0.13050   0.72513   0.59743   0.00000  Uiso   1.00
C528   C     0.20432   0.72681   0.90277   0.00000  Uiso   1.00
C529   C     0.20269   0.77453   0.60685   0.00000  Uiso   1.00
C530   C     0.12919   0.77291   0.89298   0.00000  Uiso   1.00
C531   C     0.20327   0.77461   0.55713   0.00000  Uiso   1.00
C532   C     0.12861   0.77294   0.94269   0.00000  Uiso   1.00
C533   C     0.16637   0.74941   0.52655   0.00000  Uiso   1.00
C534   C     0.16703   0.74944   0.97347   0.00000  Uiso   1.00
C535   C     0.06696   0.75002   0.73751   0.00000  Uiso   1.00
C536   C     0.26637   0.75003   0.76249   0.00000  Uiso   1.00
C537   C     0.01197   0.75006   0.73075   0.00000  Uiso   1.00
C538   C     0.32137   0.75006   0.76925   0.00000  Uiso   1.00
C539   C     0.18478   0.54703   0.79233   0.00000  Uiso   1.00
C540   C     0.18554   0.95294   0.71303   0.00000  Uiso   1.00
C541   C     0.18447   0.59301   0.79241   0.00000  Uiso   1.00
C542   C     0.18522   0.90696   0.71287   0.00000  Uiso   1.00
C543   C     0.16670   0.61597   0.75000   0.00000  Uiso   1.00
C544   C     0.16669   0.88401   0.75000   0.00000  Uiso   1.00
C545   C     0.14895   0.59299   0.70759   0.00000  Uiso   1.00
C546   C     0.14819   0.90697   0.78713   0.00000  Uiso   1.00
C547   C     0.14870   0.54701   0.70766   0.00000  Uiso   1.00
C548   C     0.14793   0.95295   0.78698   0.00000  Uiso   1.00
C549   C     0.16675   0.52403   0.75000   0.00000  Uiso   1.00
C550   C     0.16675   0.97594   0.75000   0.00000  Uiso   1.00
H551   H     0.32465   0.75008   0.69422   0.00000  Uiso   1.00
H552   H     0.00869   0.75007   0.80578   0.00000  Uiso   1.00
H553   H     0.19872   0.61055   0.82531   0.00000  Uiso   1.00
H554   H     0.20007   0.88942   0.68421   0.00000  Uiso   1.00
H555   H     0.13468   0.61051   0.67469   0.00000  Uiso   1.00
H556   H     0.13332   0.88944   0.81579   0.00000  Uiso   1.00
H557   H     0.23121   0.79413   0.62999   0.00000  Uiso   1.00
H558   H     0.09951   0.79124   0.86970   0.00000  Uiso   1.00
H559   H     0.23231   0.79430   0.54259   0.00000  Uiso   1.00
H560   H     0.09839   0.79129   0.95709   0.00000  Uiso   1.00
N561   N     0.16667   0.74999   0.62623   0.00000  Uiso   1.00
N562   N     0.16667   0.75001   0.87376   0.00000  Uiso   1.00
O563   O     0.16667   0.68454   0.78974   0.00000  Uiso   1.00
O564   O     0.16666   0.81547   0.71026   0.00000  Uiso   1.00
O565   O     0.16667   0.68453   0.71026   0.00000  Uiso   1.00
O566   O     0.16666   0.81547   0.78974   0.00000  Uiso   1.00
O567   O     0.09058   0.75000   0.78044   0.00000  Uiso   1.00
O568   O     0.24275   0.75000   0.71955   0.00000  Uiso   1.00
O569   O     0.09058   0.75000   0.70096   0.00000  Uiso   1.00
O570   O     0.24275   0.75001   0.79903   0.00000  Uiso   1.00
Zn571  Zn    0.16667   0.75001   0.80307   0.00000  Uiso   1.00
Zn572  Zn    0.16667   0.75000   0.69693   0.00000  Uiso   1.00
H573   H     0.19950   0.52944   0.82507   0.00000  Uiso   1.00
H574   H     0.20085   0.97053   0.68466   0.00000  Uiso   1.00
H575   H     0.13400   0.52941   0.67493   0.00000  Uiso   1.00
H576   H     0.13263   0.97056   0.81535   0.00000  Uiso   1.00
Br577  Br    0.07846   0.68765   0.50943   0.00000  Uiso   1.00
Br578  Br    0.25877   0.69186   0.99109   0.00000  Uiso   1.00
H579   H     0.10239   0.70564   0.61339   0.00000  Uiso   1.00
H580   H     0.23359   0.70859   0.88697   0.00000  Uiso   1.00
C581   C     0.50001   0.66385   0.75000   0.00000  Uiso   1.00
C582   C     0.50000   0.83614   0.75000   0.00000  Uiso   1.00
C583   C     0.46280   0.72433   0.54744   0.00000  Uiso   1.00
C584   C     0.53878   0.72608   0.95277   0.00000  Uiso   1.00
C585   C     0.46384   0.72513   0.59743   0.00000  Uiso   1.00
C586   C     0.53766   0.72681   0.90277   0.00000  Uiso   1.00
C587   C     0.53603   0.77453   0.60685   0.00000  Uiso   1.00
C588   C     0.46252   0.77291   0.89298   0.00000  Uiso   1.00
C589   C     0.53660   0.77461   0.55713   0.00000  Uiso   1.00
C590   C     0.46195   0.77294   0.94269   0.00000  Uiso   1.00
C591   C     0.49971   0.74941   0.52655   0.00000  Uiso   1.00
C592   C     0.50036   0.74944   0.97347   0.00000  Uiso   1.00
C593   C     0.40030   0.75002   0.73751   0.00000  Uiso   1.00
C594   C     0.59970   0.75003   0.76249   0.00000  Uiso   1.00
C595   C     0.34530   0.75006   0.73075   0.00000  Uiso   1.00
C596   C     0.65470   0.75006   0.76925   0.00000  Uiso   1.00
C597   C     0.51811   0.54703   0.79233   0.00000  Uiso   1.00
C598   C     0.51887   0.95294   0.71303   0.00000  Uiso   1.00
C599   C     0.51780   0.59301   0.79241   0.00000  Uiso   1.00
C600   C     0.51856   0.90696   0.71287   0.00000  Uiso   1.00
C601   C     0.50003   0.61597   0.75000   0.00000  Uiso   1.00
C602   C     0.50002   0.88401   0.75000   0.00000  Uiso   1.00
C603   C     0.48229   0.59299   0.70759   0.00000  Uiso   1.00
C604   C     0.48152   0.90697   0.78713   0.00000  Uiso   1.00
C605   C     0.48203   0.54701   0.70766   0.00000  Uiso   1.00
C606   C     0.48126   0.95295   0.78698   0.00000  Uiso   1.00
C607   C     0.50008   0.52403   0.75000   0.00000  Uiso   1.00
C608   C     0.50008   0.97594   0.75000   0.00000  Uiso   1.00
H609   H     0.65798   0.75008   0.69422   0.00000  Uiso   1.00
H610   H     0.34202   0.75007   0.80578   0.00000  Uiso   1.00
H611   H     0.53206   0.61055   0.82531   0.00000  Uiso   1.00
H612   H     0.53341   0.88942   0.68421   0.00000  Uiso   1.00
H613   H     0.46801   0.61051   0.67469   0.00000  Uiso   1.00
H614   H     0.46665   0.88944   0.81579   0.00000  Uiso   1.00
H615   H     0.56455   0.79413   0.62999   0.00000  Uiso   1.00
H616   H     0.43284   0.79124   0.86970   0.00000  Uiso   1.00
H617   H     0.56565   0.79430   0.54259   0.00000  Uiso   1.00
H618   H     0.43172   0.79129   0.95709   0.00000  Uiso   1.00
N619   N     0.50000   0.74999   0.62623   0.00000  Uiso   1.00
N620   N     0.50000   0.75001   0.87376   0.00000  Uiso   1.00
O621   O     0.50000   0.68454   0.78974   0.00000  Uiso   1.00
O622   O     0.50000   0.81547   0.71026   0.00000  Uiso   1.00
O623   O     0.50000   0.68453   0.71026   0.00000  Uiso   1.00
O624   O     0.50000   0.81547   0.78974   0.00000  Uiso   1.00
O625   O     0.42392   0.75000   0.78044   0.00000  Uiso   1.00
O626   O     0.57608   0.75000   0.71955   0.00000  Uiso   1.00
O627   O     0.42392   0.75000   0.70096   0.00000  Uiso   1.00
O628   O     0.57608   0.75001   0.79903   0.00000  Uiso   1.00
Zn629  Zn    0.50000   0.75001   0.80307   0.00000  Uiso   1.00
Zn630  Zn    0.50000   0.75000   0.69693   0.00000  Uiso   1.00
H631   H     0.53283   0.52944   0.82507   0.00000  Uiso   1.00
H632   H     0.53418   0.97053   0.68466   0.00000  Uiso   1.00
H633   H     0.46733   0.52941   0.67493   0.00000  Uiso   1.00
H634   H     0.46596   0.97056   0.81535   0.00000  Uiso   1.00
Br635  Br    0.41179   0.68765   0.50943   0.00000  Uiso   1.00
Br636  Br    0.59210   0.69186   0.99109   0.00000  Uiso   1.00
H637   H     0.43572   0.70564   0.61339   0.00000  Uiso   1.00
H638   H     0.56693   0.70859   0.88697   0.00000  Uiso   1.00
C639   C     0.83334   0.66385   0.75000   0.00000  Uiso   1.00
C640   C     0.83333   0.83614   0.75000   0.00000  Uiso   1.00
C641   C     0.79613   0.72433   0.54744   0.00000  Uiso   1.00
C642   C     0.87211   0.72608   0.95277   0.00000  Uiso   1.00
C643   C     0.79717   0.72513   0.59743   0.00000  Uiso   1.00
C644   C     0.87099   0.72681   0.90277   0.00000  Uiso   1.00
C645   C     0.86936   0.77453   0.60685   0.00000  Uiso   1.00
C646   C     0.79586   0.77291   0.89298   0.00000  Uiso   1.00
C647   C     0.86993   0.77461   0.55713   0.00000  Uiso   1.00
C648   C     0.79528   0.77294   0.94269   0.00000  Uiso   1.00
C649   C     0.83304   0.74941   0.52655   0.00000  Uiso   1.00
C650   C     0.83370   0.74944   0.97347   0.00000  Uiso   1.00
C651   C     0.73363   0.75002   0.73751   0.00000  Uiso   1.00
C652   C     0.93303   0.75003   0.76249   0.00000  Uiso   1.00
C653   C     0.67863   0.75006   0.73075   0.00000  Uiso   1.00
C654   C     0.98803   0.75006   0.76925   0.00000  Uiso   1.00
C655   C     0.85145   0.54703   0.79233   0.00000  Uiso   1.00
C656   C     0.85221   0.95294   0.71303   0.00000  Uiso   1.00
C657   C     0.85114   0.59301   0.79241   0.00000  Uiso   1.00
C658   C     0.85189   0.90696   0.71287   0.00000  Uiso   1.00
C659   C     0.83336   0.61597   0.75000   0.00000  Uiso   1.00
C660   C     0.83336   0.88401   0.75000   0.00000  Uiso   1.00
C661   C     0.81562   0.59299   0.70759   0.00000  Uiso   1.00
C662   C     0.81485   0.90697   0.78713   0.00000  Uiso   1.00
C663   C     0.81536   0.54701   0.70766   0.00000  Uiso   1.00
C664   C     0.81459   0.95295   0.78698   0.00000  Uiso   1.00
C665   C     0.83342   0.52403   0.75000   0.00000  Uiso   1.00
C666   C     0.83341   0.97594   0.75000   0.00000  Uiso   1.00
H667   H     0.99131   0.75008   0.69422   0.00000  Uiso   1.00
H668   H     0.67535   0.75007   0.80578   0.00000  Uiso   1.00
H669   H     0.86539   0.61055   0.82531   0.00000  Uiso   1.00
H670   H     0.86674   0.88942   0.68421   0.00000  Uiso   1.00
H671   H     0.80135   0.61051   0.67469   0.00000  Uiso   1.00
H672   H     0.79999   0.88944   0.81579   0.00000  Uiso   1.00
H673   H     0.89788   0.79413   0.62999   0.00000  Uiso   1.00
H674   H     0.76618   0.79124   0.86970   0.00000  Uiso   1.00
H675   H     0.89898   0.79430   0.54259   0.00000  Uiso   1.00
H676   H     0.76505   0.79129   0.95709   0.00000  Uiso   1.00
N677   N     0.83333   0.74999   0.62623   0.00000  Uiso   1.00
N678   N     0.83333   0.75001   0.87376   0.00000  Uiso   1.00
O679   O     0.83334   0.68454   0.78974   0.00000  Uiso   1.00
O680   O     0.83333   0.81547   0.71026   0.00000  Uiso   1.00
O681   O     0.83334   0.68453   0.71026   0.00000  Uiso   1.00
O682   O     0.83333   0.81547   0.78974   0.00000  Uiso   1.00
O683   O     0.75725   0.75000   0.78044   0.00000  Uiso   1.00
O684   O     0.90942   0.75000   0.71955   0.00000  Uiso   1.00
O685   O     0.75725   0.75000   0.70096   0.00000  Uiso   1.00
O686   O     0.90942   0.75001   0.79903   0.00000  Uiso   1.00
Zn687  Zn    0.83333   0.75001   0.80307   0.00000  Uiso   1.00
Zn688  Zn    0.83333   0.75000   0.69693   0.00000  Uiso   1.00
H689   H     0.86616   0.52944   0.82507   0.00000  Uiso   1.00
H690   H     0.86752   0.97053   0.68466   0.00000  Uiso   1.00
H691   H     0.80066   0.52941   0.67493   0.00000  Uiso   1.00
H692   H     0.79930   0.97056   0.81535   0.00000  Uiso   1.00
Br693  Br    0.74512   0.68765   0.50943   0.00000  Uiso   1.00
Br694  Br    0.92544   0.69186   0.99109   0.00000  Uiso   1.00
H695   H     0.76906   0.70564   0.61339   0.00000  Uiso   1.00
H696   H     0.90026   0.70859   0.88697   0.00000  Uiso   1.00
loop_
_geom_bond_atom_site_label_1
_geom_bond_atom_site_label_2
_geom_bond_distance
_geom_bond_site_symmetry_2
_ccdc_geom_bond_type
C1     C21     1.437   .     S
C1     O41     1.284   .     A
C1     O43     1.284   .     A
C2     C22     1.437   .     S
C2     O44     1.284   .     A
C2     O42     1.284   .     A
C3     C5      1.410   .     A
C3     C11     1.411   .     A
C3     Br55    1.916   .     S
C4     Br56    1.916   .     S
C4     C12     1.411   .     A
C4     C6      1.410   .     A
C5     H57     1.082   .     S
C5     N39     1.364   .     A
C6     H58     1.082   .     S
C6     N40     1.364   .     A
C7     C9      1.408   .     A
C7     N39     1.364   .     A
C7     H35     1.082   .     S
C8     H36     1.082   .     S
C8     N40     1.364   .     A
C8     C10     1.408   .     A
C9     C11     1.406   .     A
C9     H37     1.083   .     S
C10    H38     1.083   .     S
C10    C12     1.406   .     A
C11    C360    1.504   1_554 S
C12    C359    1.504   .     S
C13    C15     1.403   .     S
C13    O45     1.273   .     A
C13    O47     1.276   .     A
C14    O46     1.273   .     A
C14    C16     1.403   .     S
C14    O48     1.276   .     A
C15    C132    1.330   1_455 S
C15    H145    1.088   1_455 S
C16    C73     1.330   .     S
C16    H88     1.088   .     S
C17    H51     1.083   .     S
C17    C27     1.399   .     A
C17    C19     1.380   .     A
C18    H52     1.083   .     S
C18    C28     1.399   .     A
C18    C20     1.380   .     A
C19    H31     1.084   .     S
C19    C21     1.399   .     A
C20    H32     1.084   .     S
C20    C22     1.399   .     A
C21    C23     1.399   .     A
C22    C24     1.399   .     A
C23    C25     1.380   .     A
C23    H33     1.084   .     S
C24    C26     1.381   .     A
C24    H34     1.084   .     S
C25    C27     1.399   .     A
C25    H53     1.083   .     S
C26    C28     1.399   .     A
C26    H54     1.083   .     S
C27    C202    1.444   1_545 S
C28    C201    1.444   .     S
H29    C73     1.088   .     S
H30    C132    1.088   1_455 S
N39    Zn50    1.999   .     S
N40    Zn49    1.999   .     S
O41    Zn49    2.001   .     S
O42    Zn50    2.001   .     S
O43    Zn50    2.001   .     S
O44    Zn49    2.001   .     S
O45    Zn49    1.970   .     S
O46    Zn50    1.970   .     S
O47    Zn50    1.983   .     S
O48    Zn49    1.983   .     S
C59    C79     1.437   .     S
C59    O99     1.284   .     A
C59    O101    1.284   .     A
C60    C80     1.437   .     S
C60    O102    1.284   .     A
C60    O100    1.284   .     A
C61    C63     1.410   .     A
C61    C69     1.411   .     A
C61    Br113   1.916   .     S
C62    Br114   1.916   .     S
C62    C70     1.411   .     A
C62    C64     1.410   .     A
C63    H115    1.082   .     S
C63    N97     1.364   .     A
C64    H116    1.082   .     S
C64    N98     1.364   .     A
C65    C67     1.408   .     A
C65    N97     1.364   .     A
C65    H93     1.082   .     S
C66    H94     1.082   .     S
C66    N98     1.364   .     A
C66    C68     1.408   .     A
C67    C69     1.406   .     A
C67    H95     1.083   .     S
C68    H96     1.083   .     S
C68    C70     1.406   .     A
C69    C418    1.504   1_554 S
C70    C417    1.504   .     S
C71    C73     1.403   .     S
C71    O103    1.273   .     A
C71    O105    1.276   .     A
C72    O104    1.273   .     A
C72    C74     1.403   .     S
C72    O106    1.276   .     A
C74    C131    1.330   .     S
C74    H146    1.088   .     S
C75    H109    1.083   .     S
C75    C85     1.399   .     A
C75    C77     1.380   .     A
C76    H110    1.083   .     S
C76    C86     1.399   .     A
C76    C78     1.380   .     A
C77    H89     1.084   .     S
C77    C79     1.399   .     A
C78    H90     1.084   .     S
C78    C80     1.399   .     A
C79    C81     1.399   .     A
C80    C82     1.399   .     A
C81    C83     1.380   .     A
C81    H91     1.084   .     S
C82    C84     1.381   .     A
C82    H92     1.084   .     S
C83    C85     1.399   .     A
C83    H111    1.083   .     S
C84    C86     1.399   .     A
C84    H112    1.083   .     S
C85    C260    1.444   1_545 S
C86    C259    1.444   .     S
H87    C131    1.088   .     S
N97    Zn108   1.999   .     S
N98    Zn107   1.999   .     S
O99    Zn107   2.001   .     S
O100   Zn108   2.001   .     S
O101   Zn108   2.001   .     S
O102   Zn107   2.001   .     S
O103   Zn107   1.970   .     S
O104   Zn108   1.970   .     S
O105   Zn108   1.983   .     S
O106   Zn107   1.983   .     S
C117   C137    1.437   .     S
C117   O157    1.284   .     A
C117   O159    1.284   .     A
C118   C138    1.437   .     S
C118   O160    1.284   .     A
C118   O158    1.284   .     A
C119   C121    1.410   .     A
C119   C127    1.411   .     A
C119   Br171   1.916   .     S
C120   Br172   1.916   .     S
C120   C128    1.411   .     A
C120   C122    1.410   .     A
C121   H173    1.082   .     S
C121   N155    1.364   .     A
C122   H174    1.082   .     S
C122   N156    1.364   .     A
C123   C125    1.408   .     A
C123   N155    1.364   .     A
C123   H151    1.082   .     S
C124   H152    1.082   .     S
C124   N156    1.364   .     A
C124   C126    1.408   .     A
C125   C127    1.406   .     A
C125   H153    1.083   .     S
C126   H154    1.083   .     S
C126   C128    1.406   .     A
C127   C476    1.504   1_554 S
C128   C475    1.504   .     S
C129   C131    1.403   .     S
C129   O161    1.273   .     A
C129   O163    1.276   .     A
C130   O162    1.273   .     A
C130   C132    1.403   .     S
C130   O164    1.276   .     A
C132   C15     1.330   1_655 S
C132   H30     1.088   1_655 S
C133   H167    1.083   .     S
C133   C143    1.399   .     A
C133   C135    1.380   .     A
C134   H168    1.083   .     S
C134   C144    1.399   .     A
C134   C136    1.380   .     A
C135   H147    1.084   .     S
C135   C137    1.399   .     A
C136   H148    1.084   .     S
C136   C138    1.399   .     A
C137   C139    1.399   .     A
C138   C140    1.399   .     A
C139   C141    1.380   .     A
C139   H149    1.084   .     S
C140   C142    1.381   .     A
C140   H150    1.084   .     S
C141   C143    1.399   .     A
C141   H169    1.083   .     S
C142   C144    1.399   .     A
C142   H170    1.083   .     S
C143   C318    1.444   1_545 S
C144   C317    1.444   .     S
H145   C15     1.088   1_655 S
N155   Zn166   1.999   .     S
N156   Zn165   1.999   .     S
O157   Zn165   2.001   .     S
O158   Zn166   2.001   .     S
O159   Zn166   2.001   .     S
O160   Zn165   2.001   .     S
O161   Zn165   1.970   .     S
O162   Zn166   1.970   .     S
O163   Zn166   1.983   .     S
O164   Zn165   1.983   .     S
C175   C195    1.437   .     S
C175   O215    1.284   .     A
C175   O217    1.284   .     A
C176   C196    1.437   .     S
C176   O218    1.284   .     A
C176   O216    1.284   .     A
C177   C179    1.410   .     A
C177   C185    1.411   .     A
C177   Br229   1.916   .     S
C178   Br230   1.916   .     S
C178   C186    1.411   .     A
C178   C180    1.410   .     A
C179   H231    1.082   .     S
C179   N213    1.364   .     A
C180   H232    1.082   .     S
C180   N214    1.364   .     A
C181   C183    1.408   .     A
C181   N213    1.364   .     A
C181   H209    1.082   .     S
C182   H210    1.082   .     S
C182   N214    1.364   .     A
C182   C184    1.408   .     A
C183   C185    1.406   .     A
C183   H211    1.083   .     S
C184   H212    1.083   .     S
C184   C186    1.406   .     A
C185   C534    1.504   1_554 S
C186   C533    1.504   .     S
C187   C189    1.403   .     S
C187   O219    1.273   .     A
C187   O221    1.276   .     A
C188   O220    1.273   .     A
C188   C190    1.403   .     S
C188   O222    1.276   .     A
C189   C306    1.330   1_455 S
C189   H319    1.088   1_455 S
C190   C247    1.330   .     S
C190   H262    1.088   .     S
C191   H225    1.083   .     S
C191   C201    1.399   .     A
C191   C193    1.380   .     A
C192   H226    1.083   .     S
C192   C202    1.399   .     A
C192   C194    1.380   .     A
C193   H205    1.084   .     S
C193   C195    1.399   .     A
C194   H206    1.084   .     S
C194   C196    1.399   .     A
C195   C197    1.399   .     A
C196   C198    1.399   .     A
C197   C199    1.380   .     A
C197   H207    1.084   .     S
C198   C200    1.381   .     A
C198   H208    1.084   .     S
C199   C201    1.399   .     A
C199   H227    1.083   .     S
C200   C202    1.399   .     A
C200   H228    1.083   .     S
C202   C27     1.444   1_565 S
H203   C247    1.088   .     S
H204   C306    1.088   1_455 S
N213   Zn224   1.999   .     S
N214   Zn223   1.999   .     S
O215   Zn223   2.001   .     S
O216   Zn224   2.001   .     S
O217   Zn224   2.001   .     S
O218   Zn223   2.001   .     S
O219   Zn223   1.970   .     S
O220   Zn224   1.970   .     S
O221   Zn224   1.983   .     S
O222   Zn223   1.983   .     S
C233   C253    1.437   .     S
C233   O273    1.284   .     A
C233   O275    1.284   .     A
C234   C254    1.437   .     S
C234   O276    1.284   .     A
C234   O274    1.284   .     A
C235   C237    1.410   .     A
C235   C243    1.411   .     A
C235   Br287   1.916   .     S
C236   Br288   1.916   .     S
C236   C244    1.411   .     A
C236   C238    1.410   .     A
C237   H289    1.082   .     S
C237   N271    1.364   .     A
C238   H290    1.082   .     S
C238   N272    1.364   .     A
C239   C241    1.408   .     A
C239   N271    1.364   .     A
C239   H267    1.082   .     S
C240   H268    1.082   .     S
C240   N272    1.364   .     A
C240   C242    1.408   .     A
C241   C243    1.406   .     A
C241   H269    1.083   .     S
C242   H270    1.083   .     S
C242   C244    1.406   .     A
C243   C592    1.504   1_554 S
C244   C591    1.504   .     S
C245   C247    1.403   .     S
C245   O277    1.273   .     A
C245   O279    1.276   .     A
C246   O278    1.273   .     A
C246   C248    1.403   .     S
C246   O280    1.276   .     A
C248   C305    1.330   .     S
C248   H320    1.088   .     S
C249   H283    1.083   .     S
C249   C259    1.399   .     A
C249   C251    1.380   .     A
C250   H284    1.083   .     S
C250   C260    1.399   .     A
C250   C252    1.380   .     A
C251   H263    1.084   .     S
C251   C253    1.399   .     A
C252   H264    1.084   .     S
C252   C254    1.399   .     A
C253   C255    1.399   .     A
C254   C256    1.399   .     A
C255   C257    1.380   .     A
C255   H265    1.084   .     S
C256   C258    1.381   .     A
C256   H266    1.084   .     S
C257   C259    1.399   .     A
C257   H285    1.083   .     S
C258   C260    1.399   .     A
C258   H286    1.083   .     S
C260   C85     1.444   1_565 S
H261   C305    1.088   .     S
N271   Zn282   1.999   .     S
N272   Zn281   1.999   .     S
O273   Zn281   2.001   .     S
O274   Zn282   2.001   .     S
O275   Zn282   2.001   .     S
O276   Zn281   2.001   .     S
O277   Zn281   1.970   .     S
O278   Zn282   1.970   .     S
O279   Zn282   1.983   .     S
O280   Zn281   1.983   .     S
C291   C311    1.437   .     S
C291   O331    1.284   .     A
C291   O333    1.284   .     A
C292   C312    1.437   .     S
C292   O334    1.284   .     A
C292   O332    1.284   .     A
C293   C295    1.410   .     A
C293   C301    1.411   .     A
C293   Br345   1.916   .     S
C294   Br346   1.916   .     S
C294   C302    1.411   .     A
C294   C296    1.410   .     A
C295   H347    1.082   .     S
C295   N329    1.364   .     A
C296   H348    1.082   .     S
C296   N330    1.364   .     A
C297   C299    1.408   .     A
C297   N329    1.364   .     A
C297   H325    1.082   .     S
C298   H326    1.082   .     S
C298   N330    1.364   .     A
C298   C300    1.408   .     A
C299   C301    1.406   .     A
C299   H327    1.083   .     S
C300   H328    1.083   .     S
C300   C302    1.406   .     A
C301   C650    1.504   1_554 S
C302   C649    1.504   .     S
C303   C305    1.403   .     S
C303   O335    1.273   .     A
C303   O337    1.276   .     A
C304   O336    1.273   .     A
C304   C306    1.403   .     S
C304   O338    1.276   .     A
C306   C189    1.330   1_655 S
C306   H204    1.088   1_655 S
C307   H341    1.083   .     S
C307   C317    1.399   .     A
C307   C309    1.380   .     A
C308   H342    1.083   .     S
C308   C318    1.399   .     A
C308   C310    1.380   .     A
C309   H321    1.084   .     S
C309   C311    1.399   .     A
C310   H322    1.084   .     S
C310   C312    1.399   .     A
C311   C313    1.399   .     A
C312   C314    1.399   .     A
C313   C315    1.380   .     A
C313   H323    1.084   .     S
C314   C316    1.381   .     A
C314   H324    1.084   .     S
C315   C317    1.399   .     A
C315   H343    1.083   .     S
C316   C318    1.399   .     A
C316   H344    1.083   .     S
C318   C143    1.444   1_565 S
H319   C189    1.088   1_655 S
N329   Zn340   1.999   .     S
N330   Zn339   1.999   .     S
O331   Zn339   2.001   .     S
O332   Zn340   2.001   .     S
O333   Zn340   2.001   .     S
O334   Zn339   2.001   .     S
O335   Zn339   1.970   .     S
O336   Zn340   1.970   .     S
O337   Zn340   1.983   .     S
O338   Zn339   1.983   .     S
C349   C369    1.437   .     S
C349   O389    1.284   .     A
C349   O391    1.284   .     A
C350   C370    1.437   .     S
C350   O392    1.284   .     A
C350   O390    1.284   .     A
C351   C353    1.410   .     A
C351   C359    1.411   .     A
C351   Br403   1.916   .     S
C352   Br404   1.916   .     S
C352   C360    1.411   .     A
C352   C354    1.410   .     A
C353   H405    1.082   .     S
C353   N387    1.364   .     A
C354   H406    1.082   .     S
C354   N388    1.364   .     A
C355   C357    1.408   .     A
C355   N387    1.364   .     A
C355   H383    1.082   .     S
C356   H384    1.082   .     S
C356   N388    1.364   .     A
C356   C358    1.408   .     A
C357   C359    1.406   .     A
C357   H385    1.083   .     S
C358   H386    1.083   .     S
C358   C360    1.406   .     A
C360   C11     1.504   1_556 S
C361   C363    1.403   .     S
C361   O393    1.273   .     A
C361   O395    1.276   .     A
C362   O394    1.273   .     A
C362   C364    1.403   .     S
C362   O396    1.276   .     A
C363   C480    1.330   1_455 S
C363   H493    1.088   1_455 S
C364   C421    1.330   .     S
C364   H436    1.088   .     S
C365   H399    1.083   .     S
C365   C375    1.399   .     A
C365   C367    1.380   .     A
C366   H400    1.083   .     S
C366   C376    1.399   .     A
C366   C368    1.380   .     A
C367   H379    1.084   .     S
C367   C369    1.399   .     A
C368   H380    1.084   .     S
C368   C370    1.399   .     A
C369   C371    1.399   .     A
C370   C372    1.399   .     A
C371   C373    1.380   .     A
C371   H381    1.084   .     S
C372   C374    1.381   .     A
C372   H382    1.084   .     S
C373   C375    1.399   .     A
C373   H401    1.083   .     S
C374   C376    1.399   .     A
C374   H402    1.083   .     S
C375   C550    1.444   1_545 S
C376   C549    1.444   .     S
H377   C421    1.088   .     S
H378   C480    1.088   1_455 S
N387   Zn398   1.999   .     S
N388   Zn397   1.999   .     S
O389   Zn397   2.001   .     S
O390   Zn398   2.001   .     S
O391   Zn398   2.001   .     S
O392   Zn397   2.001   .     S
O393   Zn397   1.970   .     S
O394   Zn398   1.970   .     S
O395   Zn398   1.983   .     S
O396   Zn397   1.983   .     S
C407   C427    1.437   .     S
C407   O447    1.284   .     A
C407   O449    1.284   .     A
C408   C428    1.437   .     S
C408   O450    1.284   .     A
C408   O448    1.284   .     A
C409   C411    1.410   .     A
C409   C417    1.411   .     A
C409   Br461   1.916   .     S
C410   Br462   1.916   .     S
C410   C418    1.411   .     A
C410   C412    1.410   .     A
C411   H463    1.082   .     S
C411   N445    1.364   .     A
C412   H464    1.082   .     S
C412   N446    1.364   .     A
C413   C415    1.408   .     A
C413   N445    1.364   .     A
C413   H441    1.082   .     S
C414   H442    1.082   .     S
C414   N446    1.364   .     A
C414   C416    1.408   .     A
C415   C417    1.406   .     A
C415   H443    1.083   .     S
C416   H444    1.083   .     S
C416   C418    1.406   .     A
C418   C69     1.504   1_556 S
C419   C421    1.403   .     S
C419   O451    1.273   .     A
C419   O453    1.276   .     A
C420   O452    1.273   .     A
C420   C422    1.403   .     S
C420   O454    1.276   .     A
C422   C479    1.330   .     S
C422   H494    1.088   .     S
C423   H457    1.083   .     S
C423   C433    1.399   .     A
C423   C425    1.380   .     A
C424   H458    1.083   .     S
C424   C434    1.399   .     A
C424   C426    1.380   .     A
C425   H437    1.084   .     S
C425   C427    1.399   .     A
C426   H438    1.084   .     S
C426   C428    1.399   .     A
C427   C429    1.399   .     A
C428   C430    1.399   .     A
C429   C431    1.380   .     A
C429   H439    1.084   .     S
C430   C432    1.381   .     A
C430   H440    1.084   .     S
C431   C433    1.399   .     A
C431   H459    1.083   .     S
C432   C434    1.399   .     A
C432   H460    1.083   .     S
C433   C608    1.444   1_545 S
C434   C607    1.444   .     S
H435   C479    1.088   .     S
N445   Zn456   1.999   .     S
N446   Zn455   1.999   .     S
O447   Zn455   2.001   .     S
O448   Zn456   2.001   .     S
O449   Zn456   2.001   .     S
O450   Zn455   2.001   .     S
O451   Zn455   1.970   .     S
O452   Zn456   1.970   .     S
O453   Zn456   1.983   .     S
O454   Zn455   1.983   .     S
C465   C485    1.437   .     S
C465   O505    1.284   .     A
C465   O507    1.284   .     A
C466   C486    1.437   .     S
C466   O508    1.284   .     A
C466   O506    1.284   .     A
C467   C469    1.410   .     A
C467   C475    1.411   .     A
C467   Br519   1.916   .     S
C468   Br520   1.916   .     S
C468   C476    1.411   .     A
C468   C470    1.410   .     A
C469   H521    1.082   .     S
C469   N503    1.364   .     A
C470   H522    1.082   .     S
C470   N504    1.364   .     A
C471   C473    1.408   .     A
C471   N503    1.364   .     A
C471   H499    1.082   .     S
C472   H500    1.082   .     S
C472   N504    1.364   .     A
C472   C474    1.408   .     A
C473   C475    1.406   .     A
C473   H501    1.083   .     S
C474   H502    1.083   .     S
C474   C476    1.406   .     A
C476   C127    1.504   1_556 S
C477   C479    1.403   .     S
C477   O509    1.273   .     A
C477   O511    1.276   .     A
C478   O510    1.273   .     A
C478   C480    1.403   .     S
C478   O512    1.276   .     A
C480   C363    1.330   1_655 S
C480   H378    1.088   1_655 S
C481   H515    1.083   .     S
C481   C491    1.399   .     A
C481   C483    1.380   .     A
C482   H516    1.083   .     S
C482   C492    1.399   .     A
C482   C484    1.380   .     A
C483   H495    1.084   .     S
C483   C485    1.399   .     A
C484   H496    1.084   .     S
C484   C486    1.399   .     A
C485   C487    1.399   .     A
C486   C488    1.399   .     A
C487   C489    1.380   .     A
C487   H497    1.084   .     S
C488   C490    1.381   .     A
C488   H498    1.084   .     S
C489   C491    1.399   .     A
C489   H517    1.083   .     S
C490   C492    1.399   .     A
C490   H518    1.083   .     S
C491   C666    1.444   1_545 S
C492   C665    1.444   .     S
H493   C363    1.088   1_655 S
N503   Zn514   1.999   .     S
N504   Zn513   1.999   .     S
O505   Zn513   2.001   .     S
O506   Zn514   2.001   .     S
O507   Zn514   2.001   .     S
O508   Zn513   2.001   .     S
O509   Zn513   1.970   .     S
O510   Zn514   1.970   .     S
O511   Zn514   1.983   .     S
O512   Zn513   1.983   .     S
C523   C543    1.437   .     S
C523   O563    1.284   .     A
C523   O565    1.284   .     A
C524   C544    1.437   .     S
C524   O566    1.284   .     A
C524   O564    1.284   .     A
C525   C527    1.410   .     A
C525   C533    1.411   .     A
C525   Br577   1.916   .     S
C526   Br578   1.916   .     S
C526   C534    1.411   .     A
C526   C528    1.410   .     A
C527   H579    1.082   .     S
C527   N561    1.364   .     A
C528   H580    1.082   .     S
C528   N562    1.364   .     A
C529   C531    1.408   .     A
C529   N561    1.364   .     A
C529   H557    1.082   .     S
C530   H558    1.082   .     S
C530   N562    1.364   .     A
C530   C532    1.408   .     A
C531   C533    1.406   .     A
C531   H559    1.083   .     S
C532   H560    1.083   .     S
C532   C534    1.406   .     A
C534   C185    1.504   1_556 S
C535   C537    1.403   .     S
C535   O567    1.273   .     A
C535   O569    1.276   .     A
C536   O568    1.273   .     A
C536   C538    1.403   .     S
C536   O570    1.276   .     A
C537   C654    1.330   1_455 S
C537   H667    1.088   1_455 S
C538   C595    1.330   .     S
C538   H610    1.088   .     S
C539   H573    1.083   .     S
C539   C549    1.399   .     A
C539   C541    1.380   .     A
C540   H574    1.083   .     S
C540   C550    1.399   .     A
C540   C542    1.380   .     A
C541   H553    1.084   .     S
C541   C543    1.399   .     A
C542   H554    1.084   .     S
C542   C544    1.399   .     A
C543   C545    1.399   .     A
C544   C546    1.399   .     A
C545   C547    1.380   .     A
C545   H555    1.084   .     S
C546   C548    1.381   .     A
C546   H556    1.084   .     S
C547   C549    1.399   .     A
C547   H575    1.083   .     S
C548   C550    1.399   .     A
C548   H576    1.083   .     S
C550   C375    1.444   1_565 S
H551   C595    1.088   .     S
H552   C654    1.088   1_455 S
N561   Zn572   1.999   .     S
N562   Zn571   1.999   .     S
O563   Zn571   2.001   .     S
O564   Zn572   2.001   .     S
O565   Zn572   2.001   .     S
O566   Zn571   2.001   .     S
O567   Zn571   1.970   .     S
O568   Zn572   1.970   .     S
O569   Zn572   1.983   .     S
O570   Zn571   1.983   .     S
C581   C601    1.437   .     S
C581   O621    1.284   .     A
C581   O623    1.284   .     A
C582   C602    1.437   .     S
C582   O624    1.284   .     A
C582   O622    1.284   .     A
C583   C585    1.410   .     A
C583   C591    1.411   .     A
C583   Br635   1.916   .     S
C584   Br636   1.916   .     S
C584   C592    1.411   .     A
C584   C586    1.410   .     A
C585   H637    1.082   .     S
C585   N619    1.364   .     A
C586   H638    1.082   .     S
C586   N620    1.364   .     A
C587   C589    1.408   .     A
C587   N619    1.364   .     A
C587   H615    1.082   .     S
C588   H616    1.082   .     S
C588   N620    1.364   .     A
C588   C590    1.408   .     A
C589   C591    1.406   .     A
C589   H617    1.083   .     S
C590   H618    1.083   .     S
C590   C592    1.406   .     A
C592   C243    1.504   1_556 S
C593   C595    1.403   .     S
C593   O625    1.273   .     A
C593   O627    1.276   .     A
C594   O626    1.273   .     A
C594   C596    1.403   .     S
C594   O628    1.276   .     A
C596   C653    1.330   .     S
C596   H668    1.088   .     S
C597   H631    1.083   .     S
C597   C607    1.399   .     A
C597   C599    1.380   .     A
C598   H632    1.083   .     S
C598   C608    1.399   .     A
C598   C600    1.380   .     A
C599   H611    1.084   .     S
C599   C601    1.399   .     A
C600   H612    1.084   .     S
C600   C602    1.399   .     A
C601   C603    1.399   .     A
C602   C604    1.399   .     A
C603   C605    1.380   .     A
C603   H613    1.084   .     S
C604   C606    1.381   .     A
C604   H614    1.084   .     S
C605   C607    1.399   .     A
C605   H633    1.083   .     S
C606   C608    1.399   .     A
C606   H634    1.083   .     S
C608   C433    1.444   1_565 S
H609   C653    1.088   .     S
N619   Zn630   1.999   .     S
N620   Zn629   1.999   .     S
O621   Zn629   2.001   .     S
O622   Zn630   2.001   .     S
O623   Zn630   2.001   .     S
O624   Zn629   2.001   .     S
O625   Zn629   1.970   .     S
O626   Zn630   1.970   .     S
O627   Zn630   1.983   .     S
O628   Zn629   1.983   .     S
C639   C659    1.437   .     S
C639   O679    1.284   .     A
C639   O681    1.284   .     A
C640   C660    1.437   .     S
C640   O682    1.284   .     A
C640   O680    1.284   .     A
C641   C643    1.410   .     A
C641   C649    1.411   .     A
C641   Br693   1.916   .     S
C642   Br694   1.916   .     S
C642   C650    1.411   .     A
C642   C644    1.410   .     A
C643   H695    1.082   .     S
C643   N677    1.364   .     A
C644   H696    1.082   .     S
C644   N678    1.364   .     A
C645   C647    1.408   .     A
C645   N677    1.364   .     A
C645   H673    1.082   .     S
C646   H674    1.082   .     S
C646   N678    1.364   .     A
C646   C648    1.408   .     A
C647   C649    1.406   .     A
C647   H675    1.083   .     S
C648   H676    1.083   .     S
C648   C650    1.406   .     A
C650   C301    1.504   1_556 S
C651   C653    1.403   .     S
C651   O683    1.273   .     A
C651   O685    1.276   .     A
C652   O684    1.273   .     A
C652   C654    1.403   .     S
C652   O686    1.276   .     A
C654   C537    1.330   1_655 S
C654   H552    1.088   1_655 S
C655   H689    1.083   .     S
C655   C665    1.399   .     A
C655   C657    1.380   .     A
C656   H690    1.083   .     S
C656   C666    1.399   .     A
C656   C658    1.380   .     A
C657   H669    1.084   .     S
C657   C659    1.399   .     A
C658   H670    1.084   .     S
C658   C660    1.399   .     A
C659   C661    1.399   .     A
C660   C662    1.399   .     A
C661   C663    1.380   .     A
C661   H671    1.084   .     S
C662   C664    1.381   .     A
C662   H672    1.084   .     S
C663   C665    1.399   .     A
C663   H691    1.083   .     S
C664   C666    1.399   .     A
C664   H692    1.083   .     S
C666   C491    1.444   1_565 S
H667   C537    1.088   1_655 S
N677   Zn688   1.999   .     S
N678   Zn687   1.999   .     S
O679   Zn687   2.001   .     S
O680   Zn688   2.001   .     S
O681   Zn688   2.001   .     S
O682   Zn687   2.001   .     S
O683   Zn687   1.970   .     S
O684   Zn688   1.970   .     S
O685   Zn688   1.983   .     S
O686   Zn687   1.983   .     S
