data_str_m2_o1_o10_pcu_sym.83
_audit_creation_date              2020-01-03
_audit_creation_method            'Materials Studio'
_symmetry_space_group_name_H-M    'P1'
_symmetry_Int_Tables_number       1
_symmetry_cell_setting            triclinic
loop_
_symmetry_equiv_pos_as_xyz
  x,y,z
_cell_length_a                    26.3589
_cell_length_b                    32.3719
_cell_length_c                    28.8135
_cell_angle_alpha                 89.0622
_cell_angle_beta                  97.4802
_cell_angle_gamma                 92.1413
loop_
_atom_site_label
_atom_site_type_symbol
_atom_site_fract_x
_atom_site_fract_y
_atom_site_fract_z
_atom_site_U_iso_or_equiv
_atom_site_adp_type
_atom_site_occupancy
C1     C     0.16658   0.08757   0.16694   0.00000  Uiso   1.00
C2     C     0.20487   0.02204   0.19644   0.00000  Uiso   1.00
C3     C     0.16676   0.29051   0.16592   0.00000  Uiso   1.00
C4     C     0.16658   0.04282   0.16741   0.00000  Uiso   1.00
C5     C     0.13040   0.14405   0.02167   0.00000  Uiso   1.00
C6     C     0.20293   0.18928   0.31166   0.00000  Uiso   1.00
C7     C     0.13004   0.14414   0.30532   0.00000  Uiso   1.00
C8     C     0.20329   0.18919   0.02802   0.00000  Uiso   1.00
C9     C     0.08817   0.28788   0.10848   0.00000  Uiso   1.00
C10    C     0.24516   0.04546   0.22486   0.00000  Uiso   1.00
C11    C     0.16676   0.24576   0.16640   0.00000  Uiso   1.00
C12    C     0.06815   0.16548   0.15487   0.00000  Uiso   1.00
C13    C     0.26518   0.16785   0.17846   0.00000  Uiso   1.00
C14    C     0.01286   0.16055   0.14928   0.00000  Uiso   1.00
C15    C     0.32047   0.17278   0.18405   0.00000  Uiso   1.00
C16    C     0.12847   0.02138   0.13753   0.00000  Uiso   1.00
C17    C     0.20487   0.31195   0.19580   0.00000  Uiso   1.00
C18    C     0.12846   0.31129   0.13690   0.00000  Uiso   1.00
Cu19   Cu    0.16667   0.16667   0.21355   0.00000  Uiso   1.00
Cu20   Cu    0.16667   0.16666   0.11978   0.00000  Uiso   1.00
H21    H     0.01242   0.13112   0.09037   0.00000  Uiso   1.00
H22    H     0.32091   0.20222   0.24296   0.00000  Uiso   1.00
H23    H     0.06891   0.02612   0.08905   0.00000  Uiso   1.00
H24    H     0.26446   0.30722   0.24425   0.00000  Uiso   1.00
H25    H     0.07211   0.10442   0.02008   0.00000  Uiso   1.00
H26    H     0.26122   0.22891   0.31326   0.00000  Uiso   1.00
H27    H     0.10339   0.11215   0.25124   0.00000  Uiso   1.00
H28    H     0.22995   0.22118   0.08209   0.00000  Uiso   1.00
N29    N     0.16668   0.16668   0.28403   0.00000  Uiso   1.00
N30    N     0.16665   0.16666   0.04931   0.00000  Uiso   1.00
N31    N     0.05605   0.26914   0.08588   0.00000  Uiso   1.00
N32    N     0.27728   0.06420   0.24746   0.00000  Uiso   1.00
O33    O     0.16666   0.10655   0.20625   0.00000  Uiso   1.00
O34    O     0.01270   0.19209   0.22347   0.00000  Uiso   1.00
O35    O     0.09157   0.04414   0.11074   0.00000  Uiso   1.00
O36    O     0.24177   0.28919   0.22259   0.00000  Uiso   1.00
O37    O     0.09540   0.12047   0.04337   0.00000  Uiso   1.00
O38    O     0.23793   0.21286   0.28996   0.00000  Uiso   1.00
O39    O     0.09104   0.12181   0.27960   0.00000  Uiso   1.00
O40    O     0.24229   0.21153   0.05373   0.00000  Uiso   1.00
O41    O     0.16667   0.22678   0.12709   0.00000  Uiso   1.00
O42    O     0.16666   0.10654   0.12706   0.00000  Uiso   1.00
O43    O     0.16667   0.22679   0.20628   0.00000  Uiso   1.00
O44    O     0.09161   0.16667   0.19712   0.00000  Uiso   1.00
O45    O     0.24172   0.16666   0.13621   0.00000  Uiso   1.00
O46    O     0.09161   0.16666   0.11793   0.00000  Uiso   1.00
O47    O     0.24172   0.16667   0.21540   0.00000  Uiso   1.00
O48    O     0.32063   0.14124   0.10986   0.00000  Uiso   1.00
C49    C     0.49991   0.08757   0.16694   0.00000  Uiso   1.00
C50    C     0.53821   0.02204   0.19644   0.00000  Uiso   1.00
C51    C     0.50009   0.29051   0.16592   0.00000  Uiso   1.00
C52    C     0.49991   0.04282   0.16741   0.00000  Uiso   1.00
C53    C     0.46373   0.14405   0.02167   0.00000  Uiso   1.00
C54    C     0.53627   0.18928   0.31166   0.00000  Uiso   1.00
C55    C     0.46337   0.14414   0.30532   0.00000  Uiso   1.00
C56    C     0.53663   0.18919   0.02802   0.00000  Uiso   1.00
C57    C     0.42150   0.28788   0.10848   0.00000  Uiso   1.00
C58    C     0.57849   0.04546   0.22486   0.00000  Uiso   1.00
C59    C     0.50009   0.24576   0.16640   0.00000  Uiso   1.00
C60    C     0.40148   0.16548   0.15487   0.00000  Uiso   1.00
C61    C     0.59852   0.16785   0.17846   0.00000  Uiso   1.00
C62    C     0.34620   0.16055   0.14928   0.00000  Uiso   1.00
C63    C     0.65380   0.17278   0.18405   0.00000  Uiso   1.00
C64    C     0.46180   0.02138   0.13753   0.00000  Uiso   1.00
C65    C     0.53820   0.31195   0.19580   0.00000  Uiso   1.00
C66    C     0.46179   0.31129   0.13690   0.00000  Uiso   1.00
Cu67   Cu    0.50000   0.16667   0.21355   0.00000  Uiso   1.00
Cu68   Cu    0.50000   0.16666   0.11978   0.00000  Uiso   1.00
H69    H     0.34575   0.13112   0.09037   0.00000  Uiso   1.00
H70    H     0.65425   0.20222   0.24296   0.00000  Uiso   1.00
H71    H     0.40225   0.02612   0.08905   0.00000  Uiso   1.00
H72    H     0.59779   0.30722   0.24425   0.00000  Uiso   1.00
H73    H     0.40545   0.10442   0.02008   0.00000  Uiso   1.00
H74    H     0.59455   0.22891   0.31326   0.00000  Uiso   1.00
H75    H     0.43672   0.11215   0.25124   0.00000  Uiso   1.00
H76    H     0.56328   0.22118   0.08209   0.00000  Uiso   1.00
N77    N     0.50001   0.16668   0.28403   0.00000  Uiso   1.00
N78    N     0.49999   0.16666   0.04931   0.00000  Uiso   1.00
N79    N     0.38938   0.26914   0.08588   0.00000  Uiso   1.00
N80    N     0.61061   0.06420   0.24746   0.00000  Uiso   1.00
O81    O     0.50000   0.10655   0.20625   0.00000  Uiso   1.00
O82    O     0.34603   0.19209   0.22347   0.00000  Uiso   1.00
O83    O     0.42490   0.04414   0.11074   0.00000  Uiso   1.00
O84    O     0.57510   0.28919   0.22259   0.00000  Uiso   1.00
O85    O     0.42874   0.12047   0.04337   0.00000  Uiso   1.00
O86    O     0.57126   0.21286   0.28996   0.00000  Uiso   1.00
O87    O     0.42437   0.12181   0.27960   0.00000  Uiso   1.00
O88    O     0.57563   0.21153   0.05373   0.00000  Uiso   1.00
O89    O     0.50000   0.22678   0.12709   0.00000  Uiso   1.00
O90    O     0.50000   0.10654   0.12706   0.00000  Uiso   1.00
O91    O     0.50000   0.22679   0.20628   0.00000  Uiso   1.00
O92    O     0.42495   0.16667   0.19712   0.00000  Uiso   1.00
O93    O     0.57505   0.16666   0.13621   0.00000  Uiso   1.00
O94    O     0.42494   0.16666   0.11793   0.00000  Uiso   1.00
O95    O     0.57506   0.16667   0.21540   0.00000  Uiso   1.00
O96    O     0.65397   0.14124   0.10986   0.00000  Uiso   1.00
C97    C     0.83324   0.08757   0.16694   0.00000  Uiso   1.00
C98    C     0.87154   0.02204   0.19644   0.00000  Uiso   1.00
C99    C     0.83342   0.29051   0.16592   0.00000  Uiso   1.00
C100   C     0.83324   0.04282   0.16741   0.00000  Uiso   1.00
C101   C     0.79707   0.14405   0.02167   0.00000  Uiso   1.00
C102   C     0.86960   0.18928   0.31166   0.00000  Uiso   1.00
C103   C     0.79671   0.14414   0.30532   0.00000  Uiso   1.00
C104   C     0.86996   0.18919   0.02802   0.00000  Uiso   1.00
C105   C     0.75484   0.28788   0.10848   0.00000  Uiso   1.00
C106   C     0.91183   0.04546   0.22486   0.00000  Uiso   1.00
C107   C     0.83342   0.24576   0.16640   0.00000  Uiso   1.00
C108   C     0.73482   0.16548   0.15487   0.00000  Uiso   1.00
C109   C     0.93185   0.16785   0.17846   0.00000  Uiso   1.00
C110   C     0.67953   0.16055   0.14928   0.00000  Uiso   1.00
C111   C     0.98714   0.17278   0.18405   0.00000  Uiso   1.00
C112   C     0.79514   0.02138   0.13753   0.00000  Uiso   1.00
C113   C     0.87153   0.31195   0.19580   0.00000  Uiso   1.00
C114   C     0.79513   0.31129   0.13690   0.00000  Uiso   1.00
Cu115  Cu    0.83333   0.16667   0.21355   0.00000  Uiso   1.00
Cu116  Cu    0.83333   0.16666   0.11978   0.00000  Uiso   1.00
H117   H     0.67909   0.13112   0.09037   0.00000  Uiso   1.00
H118   H     0.98758   0.20222   0.24296   0.00000  Uiso   1.00
H119   H     0.73558   0.02612   0.08905   0.00000  Uiso   1.00
H120   H     0.93112   0.30722   0.24425   0.00000  Uiso   1.00
H121   H     0.73878   0.10442   0.02008   0.00000  Uiso   1.00
H122   H     0.92788   0.22891   0.31326   0.00000  Uiso   1.00
H123   H     0.77005   0.11215   0.25124   0.00000  Uiso   1.00
H124   H     0.89661   0.22118   0.08209   0.00000  Uiso   1.00
N125   N     0.83335   0.16668   0.28403   0.00000  Uiso   1.00
N126   N     0.83332   0.16666   0.04931   0.00000  Uiso   1.00
N127   N     0.72272   0.26914   0.08588   0.00000  Uiso   1.00
N128   N     0.94394   0.06420   0.24746   0.00000  Uiso   1.00
O129   O     0.83333   0.10655   0.20625   0.00000  Uiso   1.00
O130   O     0.67937   0.19209   0.22347   0.00000  Uiso   1.00
O131   O     0.75823   0.04414   0.11074   0.00000  Uiso   1.00
O132   O     0.90844   0.28919   0.22259   0.00000  Uiso   1.00
O133   O     0.76207   0.12047   0.04337   0.00000  Uiso   1.00
O134   O     0.90459   0.21286   0.28996   0.00000  Uiso   1.00
O135   O     0.75771   0.12181   0.27960   0.00000  Uiso   1.00
O136   O     0.90896   0.21153   0.05373   0.00000  Uiso   1.00
O137   O     0.83334   0.22678   0.12709   0.00000  Uiso   1.00
O138   O     0.83333   0.10654   0.12706   0.00000  Uiso   1.00
O139   O     0.83334   0.22679   0.20628   0.00000  Uiso   1.00
O140   O     0.75828   0.16667   0.19712   0.00000  Uiso   1.00
O141   O     0.90839   0.16666   0.13621   0.00000  Uiso   1.00
O142   O     0.75828   0.16666   0.11793   0.00000  Uiso   1.00
O143   O     0.90839   0.16667   0.21540   0.00000  Uiso   1.00
O144   O     0.98730   0.14124   0.10986   0.00000  Uiso   1.00
C145   C     0.16658   0.42090   0.16694   0.00000  Uiso   1.00
C146   C     0.20487   0.35537   0.19644   0.00000  Uiso   1.00
C147   C     0.16676   0.62384   0.16592   0.00000  Uiso   1.00
C148   C     0.16658   0.37616   0.16741   0.00000  Uiso   1.00
C149   C     0.13040   0.47738   0.02167   0.00000  Uiso   1.00
C150   C     0.20293   0.52262   0.31166   0.00000  Uiso   1.00
C151   C     0.13004   0.47747   0.30532   0.00000  Uiso   1.00
C152   C     0.20329   0.52253   0.02802   0.00000  Uiso   1.00
C153   C     0.08817   0.62121   0.10848   0.00000  Uiso   1.00
C154   C     0.24516   0.37879   0.22486   0.00000  Uiso   1.00
C155   C     0.16676   0.57910   0.16640   0.00000  Uiso   1.00
C156   C     0.06815   0.49882   0.15487   0.00000  Uiso   1.00
C157   C     0.26518   0.50118   0.17846   0.00000  Uiso   1.00
C158   C     0.01286   0.49388   0.14928   0.00000  Uiso   1.00
C159   C     0.32047   0.50612   0.18405   0.00000  Uiso   1.00
C160   C     0.12847   0.35471   0.13753   0.00000  Uiso   1.00
C161   C     0.20487   0.64529   0.19580   0.00000  Uiso   1.00
C162   C     0.12846   0.64463   0.13690   0.00000  Uiso   1.00
Cu163  Cu    0.16667   0.50001   0.21355   0.00000  Uiso   1.00
Cu164  Cu    0.16667   0.49999   0.11978   0.00000  Uiso   1.00
H165   H     0.01242   0.46445   0.09037   0.00000  Uiso   1.00
H166   H     0.32091   0.53555   0.24296   0.00000  Uiso   1.00
H167   H     0.06891   0.35945   0.08905   0.00000  Uiso   1.00
H168   H     0.26446   0.64055   0.24425   0.00000  Uiso   1.00
H169   H     0.07211   0.43776   0.02008   0.00000  Uiso   1.00
H170   H     0.26122   0.56225   0.31326   0.00000  Uiso   1.00
H171   H     0.10339   0.44548   0.25124   0.00000  Uiso   1.00
H172   H     0.22995   0.55452   0.08209   0.00000  Uiso   1.00
N173   N     0.16668   0.50001   0.28403   0.00000  Uiso   1.00
N174   N     0.16665   0.49999   0.04931   0.00000  Uiso   1.00
N175   N     0.05605   0.60247   0.08588   0.00000  Uiso   1.00
N176   N     0.27728   0.39753   0.24746   0.00000  Uiso   1.00
O177   O     0.16666   0.43989   0.20625   0.00000  Uiso   1.00
O178   O     0.01270   0.52542   0.22347   0.00000  Uiso   1.00
O179   O     0.09157   0.37747   0.11074   0.00000  Uiso   1.00
O180   O     0.24177   0.62253   0.22259   0.00000  Uiso   1.00
O181   O     0.09540   0.45381   0.04337   0.00000  Uiso   1.00
O182   O     0.23793   0.54619   0.28996   0.00000  Uiso   1.00
O183   O     0.09104   0.45514   0.27960   0.00000  Uiso   1.00
O184   O     0.24229   0.54486   0.05373   0.00000  Uiso   1.00
O185   O     0.16667   0.56011   0.12709   0.00000  Uiso   1.00
O186   O     0.16666   0.43988   0.12706   0.00000  Uiso   1.00
O187   O     0.16667   0.56012   0.20628   0.00000  Uiso   1.00
O188   O     0.09161   0.50000   0.19712   0.00000  Uiso   1.00
O189   O     0.24172   0.50000   0.13621   0.00000  Uiso   1.00
O190   O     0.09161   0.49999   0.11793   0.00000  Uiso   1.00
O191   O     0.24172   0.50001   0.21540   0.00000  Uiso   1.00
O192   O     0.32063   0.47458   0.10986   0.00000  Uiso   1.00
C193   C     0.49991   0.42090   0.16694   0.00000  Uiso   1.00
C194   C     0.53821   0.35537   0.19644   0.00000  Uiso   1.00
C195   C     0.50009   0.62384   0.16592   0.00000  Uiso   1.00
C196   C     0.49991   0.37616   0.16741   0.00000  Uiso   1.00
C197   C     0.46373   0.47738   0.02167   0.00000  Uiso   1.00
C198   C     0.53627   0.52262   0.31166   0.00000  Uiso   1.00
C199   C     0.46337   0.47747   0.30532   0.00000  Uiso   1.00
C200   C     0.53663   0.52253   0.02802   0.00000  Uiso   1.00
C201   C     0.42150   0.62121   0.10848   0.00000  Uiso   1.00
C202   C     0.57849   0.37879   0.22486   0.00000  Uiso   1.00
C203   C     0.50009   0.57910   0.16640   0.00000  Uiso   1.00
C204   C     0.40148   0.49882   0.15487   0.00000  Uiso   1.00
C205   C     0.59852   0.50118   0.17846   0.00000  Uiso   1.00
C206   C     0.34620   0.49388   0.14928   0.00000  Uiso   1.00
C207   C     0.65380   0.50612   0.18405   0.00000  Uiso   1.00
C208   C     0.46180   0.35471   0.13753   0.00000  Uiso   1.00
C209   C     0.53820   0.64529   0.19580   0.00000  Uiso   1.00
C210   C     0.46179   0.64463   0.13690   0.00000  Uiso   1.00
Cu211  Cu    0.50000   0.50001   0.21355   0.00000  Uiso   1.00
Cu212  Cu    0.50000   0.49999   0.11978   0.00000  Uiso   1.00
H213   H     0.34575   0.46445   0.09037   0.00000  Uiso   1.00
H214   H     0.65425   0.53555   0.24296   0.00000  Uiso   1.00
H215   H     0.40225   0.35945   0.08905   0.00000  Uiso   1.00
H216   H     0.59779   0.64055   0.24425   0.00000  Uiso   1.00
H217   H     0.40545   0.43776   0.02008   0.00000  Uiso   1.00
H218   H     0.59455   0.56225   0.31326   0.00000  Uiso   1.00
H219   H     0.43672   0.44548   0.25124   0.00000  Uiso   1.00
H220   H     0.56328   0.55452   0.08209   0.00000  Uiso   1.00
N221   N     0.50001   0.50001   0.28403   0.00000  Uiso   1.00
N222   N     0.49999   0.49999   0.04931   0.00000  Uiso   1.00
N223   N     0.38938   0.60247   0.08588   0.00000  Uiso   1.00
N224   N     0.61061   0.39753   0.24746   0.00000  Uiso   1.00
O225   O     0.50000   0.43989   0.20625   0.00000  Uiso   1.00
O226   O     0.34603   0.52542   0.22347   0.00000  Uiso   1.00
O227   O     0.42490   0.37747   0.11074   0.00000  Uiso   1.00
O228   O     0.57510   0.62253   0.22259   0.00000  Uiso   1.00
O229   O     0.42874   0.45381   0.04337   0.00000  Uiso   1.00
O230   O     0.57126   0.54619   0.28996   0.00000  Uiso   1.00
O231   O     0.42437   0.45514   0.27960   0.00000  Uiso   1.00
O232   O     0.57563   0.54486   0.05373   0.00000  Uiso   1.00
O233   O     0.50000   0.56011   0.12709   0.00000  Uiso   1.00
O234   O     0.50000   0.43988   0.12706   0.00000  Uiso   1.00
O235   O     0.50000   0.56012   0.20628   0.00000  Uiso   1.00
O236   O     0.42495   0.50000   0.19712   0.00000  Uiso   1.00
O237   O     0.57505   0.50000   0.13621   0.00000  Uiso   1.00
O238   O     0.42494   0.49999   0.11793   0.00000  Uiso   1.00
O239   O     0.57506   0.50001   0.21540   0.00000  Uiso   1.00
O240   O     0.65397   0.47458   0.10986   0.00000  Uiso   1.00
C241   C     0.83324   0.42090   0.16694   0.00000  Uiso   1.00
C242   C     0.87154   0.35537   0.19644   0.00000  Uiso   1.00
C243   C     0.83342   0.62384   0.16592   0.00000  Uiso   1.00
C244   C     0.83324   0.37616   0.16741   0.00000  Uiso   1.00
C245   C     0.79707   0.47738   0.02167   0.00000  Uiso   1.00
C246   C     0.86960   0.52262   0.31166   0.00000  Uiso   1.00
C247   C     0.79671   0.47747   0.30532   0.00000  Uiso   1.00
C248   C     0.86996   0.52253   0.02802   0.00000  Uiso   1.00
C249   C     0.75484   0.62121   0.10848   0.00000  Uiso   1.00
C250   C     0.91183   0.37879   0.22486   0.00000  Uiso   1.00
C251   C     0.83342   0.57910   0.16640   0.00000  Uiso   1.00
C252   C     0.73482   0.49882   0.15487   0.00000  Uiso   1.00
C253   C     0.93185   0.50118   0.17846   0.00000  Uiso   1.00
C254   C     0.67953   0.49388   0.14928   0.00000  Uiso   1.00
C255   C     0.98714   0.50612   0.18405   0.00000  Uiso   1.00
C256   C     0.79514   0.35471   0.13753   0.00000  Uiso   1.00
C257   C     0.87153   0.64529   0.19580   0.00000  Uiso   1.00
C258   C     0.79513   0.64463   0.13690   0.00000  Uiso   1.00
Cu259  Cu    0.83333   0.50001   0.21355   0.00000  Uiso   1.00
Cu260  Cu    0.83333   0.49999   0.11978   0.00000  Uiso   1.00
H261   H     0.67909   0.46445   0.09037   0.00000  Uiso   1.00
H262   H     0.98758   0.53555   0.24296   0.00000  Uiso   1.00
H263   H     0.73558   0.35945   0.08905   0.00000  Uiso   1.00
H264   H     0.93112   0.64055   0.24425   0.00000  Uiso   1.00
H265   H     0.73878   0.43776   0.02008   0.00000  Uiso   1.00
H266   H     0.92788   0.56225   0.31326   0.00000  Uiso   1.00
H267   H     0.77005   0.44548   0.25124   0.00000  Uiso   1.00
H268   H     0.89661   0.55452   0.08209   0.00000  Uiso   1.00
N269   N     0.83335   0.50001   0.28403   0.00000  Uiso   1.00
N270   N     0.83332   0.49999   0.04931   0.00000  Uiso   1.00
N271   N     0.72272   0.60247   0.08588   0.00000  Uiso   1.00
N272   N     0.94394   0.39753   0.24746   0.00000  Uiso   1.00
O273   O     0.83333   0.43989   0.20625   0.00000  Uiso   1.00
O274   O     0.67937   0.52542   0.22347   0.00000  Uiso   1.00
O275   O     0.75823   0.37747   0.11074   0.00000  Uiso   1.00
O276   O     0.90844   0.62253   0.22259   0.00000  Uiso   1.00
O277   O     0.76207   0.45381   0.04337   0.00000  Uiso   1.00
O278   O     0.90459   0.54619   0.28996   0.00000  Uiso   1.00
O279   O     0.75771   0.45514   0.27960   0.00000  Uiso   1.00
O280   O     0.90896   0.54486   0.05373   0.00000  Uiso   1.00
O281   O     0.83334   0.56011   0.12709   0.00000  Uiso   1.00
O282   O     0.83333   0.43988   0.12706   0.00000  Uiso   1.00
O283   O     0.83334   0.56012   0.20628   0.00000  Uiso   1.00
O284   O     0.75828   0.50000   0.19712   0.00000  Uiso   1.00
O285   O     0.90839   0.50000   0.13621   0.00000  Uiso   1.00
O286   O     0.75828   0.49999   0.11793   0.00000  Uiso   1.00
O287   O     0.90839   0.50001   0.21540   0.00000  Uiso   1.00
O288   O     0.98730   0.47458   0.10986   0.00000  Uiso   1.00
C289   C     0.16658   0.75424   0.16694   0.00000  Uiso   1.00
C290   C     0.20487   0.68870   0.19644   0.00000  Uiso   1.00
C291   C     0.16676   0.95718   0.16592   0.00000  Uiso   1.00
C292   C     0.16658   0.70949   0.16741   0.00000  Uiso   1.00
C293   C     0.13040   0.81072   0.02167   0.00000  Uiso   1.00
C294   C     0.20293   0.85595   0.31166   0.00000  Uiso   1.00
C295   C     0.13004   0.81081   0.30532   0.00000  Uiso   1.00
C296   C     0.20329   0.85586   0.02802   0.00000  Uiso   1.00
C297   C     0.08817   0.95454   0.10848   0.00000  Uiso   1.00
C298   C     0.24516   0.71212   0.22486   0.00000  Uiso   1.00
C299   C     0.16676   0.91243   0.16640   0.00000  Uiso   1.00
C300   C     0.06815   0.83215   0.15487   0.00000  Uiso   1.00
C301   C     0.26518   0.83452   0.17846   0.00000  Uiso   1.00
C302   C     0.01286   0.82721   0.14928   0.00000  Uiso   1.00
C303   C     0.32047   0.83945   0.18405   0.00000  Uiso   1.00
C304   C     0.12847   0.68804   0.13753   0.00000  Uiso   1.00
C305   C     0.20487   0.97862   0.19580   0.00000  Uiso   1.00
C306   C     0.12846   0.97796   0.13690   0.00000  Uiso   1.00
Cu307  Cu    0.16667   0.83334   0.21355   0.00000  Uiso   1.00
Cu308  Cu    0.16667   0.83333   0.11978   0.00000  Uiso   1.00
H309   H     0.01242   0.79778   0.09037   0.00000  Uiso   1.00
H310   H     0.32091   0.86888   0.24296   0.00000  Uiso   1.00
H311   H     0.06891   0.69278   0.08905   0.00000  Uiso   1.00
H312   H     0.26446   0.97389   0.24425   0.00000  Uiso   1.00
H313   H     0.07211   0.77109   0.02008   0.00000  Uiso   1.00
H314   H     0.26122   0.89558   0.31326   0.00000  Uiso   1.00
H315   H     0.10339   0.77881   0.25124   0.00000  Uiso   1.00
H316   H     0.22995   0.88785   0.08209   0.00000  Uiso   1.00
N317   N     0.16668   0.83334   0.28403   0.00000  Uiso   1.00
N318   N     0.16665   0.83332   0.04931   0.00000  Uiso   1.00
N319   N     0.05605   0.93580   0.08588   0.00000  Uiso   1.00
N320   N     0.27728   0.73086   0.24746   0.00000  Uiso   1.00
O321   O     0.16666   0.77322   0.20625   0.00000  Uiso   1.00
O322   O     0.01270   0.85876   0.22347   0.00000  Uiso   1.00
O323   O     0.09157   0.71081   0.11074   0.00000  Uiso   1.00
O324   O     0.24177   0.95586   0.22259   0.00000  Uiso   1.00
O325   O     0.09540   0.78714   0.04337   0.00000  Uiso   1.00
O326   O     0.23793   0.87953   0.28996   0.00000  Uiso   1.00
O327   O     0.09104   0.78847   0.27960   0.00000  Uiso   1.00
O328   O     0.24229   0.87819   0.05373   0.00000  Uiso   1.00
O329   O     0.16667   0.89345   0.12709   0.00000  Uiso   1.00
O330   O     0.16666   0.77321   0.12706   0.00000  Uiso   1.00
O331   O     0.16667   0.89346   0.20628   0.00000  Uiso   1.00
O332   O     0.09161   0.83334   0.19712   0.00000  Uiso   1.00
O333   O     0.24172   0.83333   0.13621   0.00000  Uiso   1.00
O334   O     0.09161   0.83333   0.11793   0.00000  Uiso   1.00
O335   O     0.24172   0.83334   0.21540   0.00000  Uiso   1.00
O336   O     0.32063   0.80791   0.10986   0.00000  Uiso   1.00
C337   C     0.49991   0.75424   0.16694   0.00000  Uiso   1.00
C338   C     0.53821   0.68870   0.19644   0.00000  Uiso   1.00
C339   C     0.50009   0.95718   0.16592   0.00000  Uiso   1.00
C340   C     0.49991   0.70949   0.16741   0.00000  Uiso   1.00
C341   C     0.46373   0.81072   0.02167   0.00000  Uiso   1.00
C342   C     0.53627   0.85595   0.31166   0.00000  Uiso   1.00
C343   C     0.46337   0.81081   0.30532   0.00000  Uiso   1.00
C344   C     0.53663   0.85586   0.02802   0.00000  Uiso   1.00
C345   C     0.42150   0.95454   0.10848   0.00000  Uiso   1.00
C346   C     0.57849   0.71212   0.22486   0.00000  Uiso   1.00
C347   C     0.50009   0.91243   0.16640   0.00000  Uiso   1.00
C348   C     0.40148   0.83215   0.15487   0.00000  Uiso   1.00
C349   C     0.59852   0.83452   0.17846   0.00000  Uiso   1.00
C350   C     0.34620   0.82721   0.14928   0.00000  Uiso   1.00
C351   C     0.65380   0.83945   0.18405   0.00000  Uiso   1.00
C352   C     0.46180   0.68804   0.13753   0.00000  Uiso   1.00
C353   C     0.53820   0.97862   0.19580   0.00000  Uiso   1.00
C354   C     0.46179   0.97796   0.13690   0.00000  Uiso   1.00
Cu355  Cu    0.50000   0.83334   0.21355   0.00000  Uiso   1.00
Cu356  Cu    0.50000   0.83333   0.11978   0.00000  Uiso   1.00
H357   H     0.34575   0.79778   0.09037   0.00000  Uiso   1.00
H358   H     0.65425   0.86888   0.24296   0.00000  Uiso   1.00
H359   H     0.40225   0.69278   0.08905   0.00000  Uiso   1.00
H360   H     0.59779   0.97389   0.24425   0.00000  Uiso   1.00
H361   H     0.40545   0.77109   0.02008   0.00000  Uiso   1.00
H362   H     0.59455   0.89558   0.31326   0.00000  Uiso   1.00
H363   H     0.43672   0.77881   0.25124   0.00000  Uiso   1.00
H364   H     0.56328   0.88785   0.08209   0.00000  Uiso   1.00
N365   N     0.50001   0.83334   0.28403   0.00000  Uiso   1.00
N366   N     0.49999   0.83332   0.04931   0.00000  Uiso   1.00
N367   N     0.38938   0.93580   0.08588   0.00000  Uiso   1.00
N368   N     0.61061   0.73086   0.24746   0.00000  Uiso   1.00
O369   O     0.50000   0.77322   0.20625   0.00000  Uiso   1.00
O370   O     0.34603   0.85876   0.22347   0.00000  Uiso   1.00
O371   O     0.42490   0.71081   0.11074   0.00000  Uiso   1.00
O372   O     0.57510   0.95586   0.22259   0.00000  Uiso   1.00
O373   O     0.42874   0.78714   0.04337   0.00000  Uiso   1.00
O374   O     0.57126   0.87953   0.28996   0.00000  Uiso   1.00
O375   O     0.42437   0.78847   0.27960   0.00000  Uiso   1.00
O376   O     0.57563   0.87819   0.05373   0.00000  Uiso   1.00
O377   O     0.50000   0.89345   0.12709   0.00000  Uiso   1.00
O378   O     0.50000   0.77321   0.12706   0.00000  Uiso   1.00
O379   O     0.50000   0.89346   0.20628   0.00000  Uiso   1.00
O380   O     0.42495   0.83334   0.19712   0.00000  Uiso   1.00
O381   O     0.57505   0.83333   0.13621   0.00000  Uiso   1.00
O382   O     0.42494   0.83333   0.11793   0.00000  Uiso   1.00
O383   O     0.57506   0.83334   0.21540   0.00000  Uiso   1.00
O384   O     0.65397   0.80791   0.10986   0.00000  Uiso   1.00
C385   C     0.83324   0.75424   0.16694   0.00000  Uiso   1.00
C386   C     0.87154   0.68870   0.19644   0.00000  Uiso   1.00
C387   C     0.83342   0.95718   0.16592   0.00000  Uiso   1.00
C388   C     0.83324   0.70949   0.16741   0.00000  Uiso   1.00
C389   C     0.79707   0.81072   0.02167   0.00000  Uiso   1.00
C390   C     0.86960   0.85595   0.31166   0.00000  Uiso   1.00
C391   C     0.79671   0.81081   0.30532   0.00000  Uiso   1.00
C392   C     0.86996   0.85586   0.02802   0.00000  Uiso   1.00
C393   C     0.75484   0.95454   0.10848   0.00000  Uiso   1.00
C394   C     0.91183   0.71212   0.22486   0.00000  Uiso   1.00
C395   C     0.83342   0.91243   0.16640   0.00000  Uiso   1.00
C396   C     0.73482   0.83215   0.15487   0.00000  Uiso   1.00
C397   C     0.93185   0.83452   0.17846   0.00000  Uiso   1.00
C398   C     0.67953   0.82721   0.14928   0.00000  Uiso   1.00
C399   C     0.98714   0.83945   0.18405   0.00000  Uiso   1.00
C400   C     0.79514   0.68804   0.13753   0.00000  Uiso   1.00
C401   C     0.87153   0.97862   0.19580   0.00000  Uiso   1.00
C402   C     0.79513   0.97796   0.13690   0.00000  Uiso   1.00
Cu403  Cu    0.83333   0.83334   0.21355   0.00000  Uiso   1.00
Cu404  Cu    0.83333   0.83333   0.11978   0.00000  Uiso   1.00
H405   H     0.67909   0.79778   0.09037   0.00000  Uiso   1.00
H406   H     0.98758   0.86888   0.24296   0.00000  Uiso   1.00
H407   H     0.73558   0.69278   0.08905   0.00000  Uiso   1.00
H408   H     0.93112   0.97389   0.24425   0.00000  Uiso   1.00
H409   H     0.73878   0.77109   0.02008   0.00000  Uiso   1.00
H410   H     0.92788   0.89558   0.31326   0.00000  Uiso   1.00
H411   H     0.77005   0.77881   0.25124   0.00000  Uiso   1.00
H412   H     0.89661   0.88785   0.08209   0.00000  Uiso   1.00
N413   N     0.83335   0.83334   0.28403   0.00000  Uiso   1.00
N414   N     0.83332   0.83332   0.04931   0.00000  Uiso   1.00
N415   N     0.72272   0.93580   0.08588   0.00000  Uiso   1.00
N416   N     0.94394   0.73086   0.24746   0.00000  Uiso   1.00
O417   O     0.83333   0.77322   0.20625   0.00000  Uiso   1.00
O418   O     0.67937   0.85876   0.22347   0.00000  Uiso   1.00
O419   O     0.75823   0.71081   0.11074   0.00000  Uiso   1.00
O420   O     0.90844   0.95586   0.22259   0.00000  Uiso   1.00
O421   O     0.76207   0.78714   0.04337   0.00000  Uiso   1.00
O422   O     0.90459   0.87953   0.28996   0.00000  Uiso   1.00
O423   O     0.75771   0.78847   0.27960   0.00000  Uiso   1.00
O424   O     0.90896   0.87819   0.05373   0.00000  Uiso   1.00
O425   O     0.83334   0.89345   0.12709   0.00000  Uiso   1.00
O426   O     0.83333   0.77321   0.12706   0.00000  Uiso   1.00
O427   O     0.83334   0.89346   0.20628   0.00000  Uiso   1.00
O428   O     0.75828   0.83334   0.19712   0.00000  Uiso   1.00
O429   O     0.90839   0.83333   0.13621   0.00000  Uiso   1.00
O430   O     0.75828   0.83333   0.11793   0.00000  Uiso   1.00
O431   O     0.90839   0.83334   0.21540   0.00000  Uiso   1.00
O432   O     0.98730   0.80791   0.10986   0.00000  Uiso   1.00
C433   C     0.16658   0.08757   0.50027   0.00000  Uiso   1.00
C434   C     0.20487   0.02204   0.52977   0.00000  Uiso   1.00
C435   C     0.16676   0.29051   0.49926   0.00000  Uiso   1.00
C436   C     0.16658   0.04282   0.50074   0.00000  Uiso   1.00
C437   C     0.13040   0.14405   0.35500   0.00000  Uiso   1.00
C438   C     0.20293   0.18928   0.64500   0.00000  Uiso   1.00
C439   C     0.13004   0.14414   0.63865   0.00000  Uiso   1.00
C440   C     0.20329   0.18919   0.36135   0.00000  Uiso   1.00
C441   C     0.08817   0.28788   0.44181   0.00000  Uiso   1.00
C442   C     0.24516   0.04546   0.55819   0.00000  Uiso   1.00
C443   C     0.16676   0.24576   0.49973   0.00000  Uiso   1.00
C444   C     0.06815   0.16548   0.48821   0.00000  Uiso   1.00
C445   C     0.26518   0.16785   0.51179   0.00000  Uiso   1.00
C446   C     0.01286   0.16055   0.48262   0.00000  Uiso   1.00
C447   C     0.32047   0.17278   0.51738   0.00000  Uiso   1.00
C448   C     0.12847   0.02138   0.47086   0.00000  Uiso   1.00
C449   C     0.20487   0.31195   0.52913   0.00000  Uiso   1.00
C450   C     0.12846   0.31129   0.47023   0.00000  Uiso   1.00
Cu451  Cu    0.16667   0.16667   0.54689   0.00000  Uiso   1.00
Cu452  Cu    0.16667   0.16666   0.45311   0.00000  Uiso   1.00
H453   H     0.01242   0.13112   0.42371   0.00000  Uiso   1.00
H454   H     0.32091   0.20222   0.57629   0.00000  Uiso   1.00
H455   H     0.06891   0.02612   0.42238   0.00000  Uiso   1.00
H456   H     0.26446   0.30722   0.57759   0.00000  Uiso   1.00
H457   H     0.07211   0.10442   0.35341   0.00000  Uiso   1.00
H458   H     0.26122   0.22891   0.64659   0.00000  Uiso   1.00
H459   H     0.10339   0.11215   0.58457   0.00000  Uiso   1.00
H460   H     0.22995   0.22118   0.41543   0.00000  Uiso   1.00
N461   N     0.16668   0.16668   0.61736   0.00000  Uiso   1.00
N462   N     0.16665   0.16666   0.38264   0.00000  Uiso   1.00
N463   N     0.05605   0.26914   0.41921   0.00000  Uiso   1.00
N464   N     0.27728   0.06420   0.58080   0.00000  Uiso   1.00
O465   O     0.16666   0.10655   0.53958   0.00000  Uiso   1.00
O466   O     0.01270   0.19209   0.55680   0.00000  Uiso   1.00
O467   O     0.09157   0.04414   0.44407   0.00000  Uiso   1.00
O468   O     0.24177   0.28919   0.55593   0.00000  Uiso   1.00
O469   O     0.09540   0.12047   0.37670   0.00000  Uiso   1.00
O470   O     0.23793   0.21286   0.62330   0.00000  Uiso   1.00
O471   O     0.09104   0.12181   0.61293   0.00000  Uiso   1.00
O472   O     0.24229   0.21153   0.38707   0.00000  Uiso   1.00
O473   O     0.16667   0.22678   0.46042   0.00000  Uiso   1.00
O474   O     0.16666   0.10654   0.46039   0.00000  Uiso   1.00
O475   O     0.16667   0.22679   0.53961   0.00000  Uiso   1.00
O476   O     0.09161   0.16667   0.53046   0.00000  Uiso   1.00
O477   O     0.24172   0.16666   0.46954   0.00000  Uiso   1.00
O478   O     0.09161   0.16666   0.45127   0.00000  Uiso   1.00
O479   O     0.24172   0.16667   0.54873   0.00000  Uiso   1.00
O480   O     0.32063   0.14124   0.44320   0.00000  Uiso   1.00
C481   C     0.49991   0.08757   0.50027   0.00000  Uiso   1.00
C482   C     0.53821   0.02204   0.52977   0.00000  Uiso   1.00
C483   C     0.50009   0.29051   0.49926   0.00000  Uiso   1.00
C484   C     0.49991   0.04282   0.50074   0.00000  Uiso   1.00
C485   C     0.46373   0.14405   0.35500   0.00000  Uiso   1.00
C486   C     0.53627   0.18928   0.64500   0.00000  Uiso   1.00
C487   C     0.46337   0.14414   0.63865   0.00000  Uiso   1.00
C488   C     0.53663   0.18919   0.36135   0.00000  Uiso   1.00
C489   C     0.42150   0.28788   0.44181   0.00000  Uiso   1.00
C490   C     0.57849   0.04546   0.55819   0.00000  Uiso   1.00
C491   C     0.50009   0.24576   0.49973   0.00000  Uiso   1.00
C492   C     0.40148   0.16548   0.48821   0.00000  Uiso   1.00
C493   C     0.59852   0.16785   0.51179   0.00000  Uiso   1.00
C494   C     0.34620   0.16055   0.48262   0.00000  Uiso   1.00
C495   C     0.65380   0.17278   0.51738   0.00000  Uiso   1.00
C496   C     0.46180   0.02138   0.47086   0.00000  Uiso   1.00
C497   C     0.53820   0.31195   0.52913   0.00000  Uiso   1.00
C498   C     0.46179   0.31129   0.47023   0.00000  Uiso   1.00
Cu499  Cu    0.50000   0.16667   0.54689   0.00000  Uiso   1.00
Cu500  Cu    0.50000   0.16666   0.45311   0.00000  Uiso   1.00
H501   H     0.34575   0.13112   0.42371   0.00000  Uiso   1.00
H502   H     0.65425   0.20222   0.57629   0.00000  Uiso   1.00
H503   H     0.40225   0.02612   0.42238   0.00000  Uiso   1.00
H504   H     0.59779   0.30722   0.57759   0.00000  Uiso   1.00
H505   H     0.40545   0.10442   0.35341   0.00000  Uiso   1.00
H506   H     0.59455   0.22891   0.64659   0.00000  Uiso   1.00
H507   H     0.43672   0.11215   0.58457   0.00000  Uiso   1.00
H508   H     0.56328   0.22118   0.41543   0.00000  Uiso   1.00
N509   N     0.50001   0.16668   0.61736   0.00000  Uiso   1.00
N510   N     0.49999   0.16666   0.38264   0.00000  Uiso   1.00
N511   N     0.38938   0.26914   0.41921   0.00000  Uiso   1.00
N512   N     0.61061   0.06420   0.58080   0.00000  Uiso   1.00
O513   O     0.50000   0.10655   0.53958   0.00000  Uiso   1.00
O514   O     0.34603   0.19209   0.55680   0.00000  Uiso   1.00
O515   O     0.42490   0.04414   0.44407   0.00000  Uiso   1.00
O516   O     0.57510   0.28919   0.55593   0.00000  Uiso   1.00
O517   O     0.42874   0.12047   0.37670   0.00000  Uiso   1.00
O518   O     0.57126   0.21286   0.62330   0.00000  Uiso   1.00
O519   O     0.42437   0.12181   0.61293   0.00000  Uiso   1.00
O520   O     0.57563   0.21153   0.38707   0.00000  Uiso   1.00
O521   O     0.50000   0.22678   0.46042   0.00000  Uiso   1.00
O522   O     0.50000   0.10654   0.46039   0.00000  Uiso   1.00
O523   O     0.50000   0.22679   0.53961   0.00000  Uiso   1.00
O524   O     0.42495   0.16667   0.53046   0.00000  Uiso   1.00
O525   O     0.57505   0.16666   0.46954   0.00000  Uiso   1.00
O526   O     0.42494   0.16666   0.45127   0.00000  Uiso   1.00
O527   O     0.57506   0.16667   0.54873   0.00000  Uiso   1.00
O528   O     0.65397   0.14124   0.44320   0.00000  Uiso   1.00
C529   C     0.83324   0.08757   0.50027   0.00000  Uiso   1.00
C530   C     0.87154   0.02204   0.52977   0.00000  Uiso   1.00
C531   C     0.83342   0.29051   0.49926   0.00000  Uiso   1.00
C532   C     0.83324   0.04282   0.50074   0.00000  Uiso   1.00
C533   C     0.79707   0.14405   0.35500   0.00000  Uiso   1.00
C534   C     0.86960   0.18928   0.64500   0.00000  Uiso   1.00
C535   C     0.79671   0.14414   0.63865   0.00000  Uiso   1.00
C536   C     0.86996   0.18919   0.36135   0.00000  Uiso   1.00
C537   C     0.75484   0.28788   0.44181   0.00000  Uiso   1.00
C538   C     0.91183   0.04546   0.55819   0.00000  Uiso   1.00
C539   C     0.83342   0.24576   0.49973   0.00000  Uiso   1.00
C540   C     0.73482   0.16548   0.48821   0.00000  Uiso   1.00
C541   C     0.93185   0.16785   0.51179   0.00000  Uiso   1.00
C542   C     0.67953   0.16055   0.48262   0.00000  Uiso   1.00
C543   C     0.98714   0.17278   0.51738   0.00000  Uiso   1.00
C544   C     0.79514   0.02138   0.47086   0.00000  Uiso   1.00
C545   C     0.87153   0.31195   0.52913   0.00000  Uiso   1.00
C546   C     0.79513   0.31129   0.47023   0.00000  Uiso   1.00
Cu547  Cu    0.83333   0.16667   0.54689   0.00000  Uiso   1.00
Cu548  Cu    0.83333   0.16666   0.45311   0.00000  Uiso   1.00
H549   H     0.67909   0.13112   0.42371   0.00000  Uiso   1.00
H550   H     0.98758   0.20222   0.57629   0.00000  Uiso   1.00
H551   H     0.73558   0.02612   0.42238   0.00000  Uiso   1.00
H552   H     0.93112   0.30722   0.57759   0.00000  Uiso   1.00
H553   H     0.73878   0.10442   0.35341   0.00000  Uiso   1.00
H554   H     0.92788   0.22891   0.64659   0.00000  Uiso   1.00
H555   H     0.77005   0.11215   0.58457   0.00000  Uiso   1.00
H556   H     0.89661   0.22118   0.41543   0.00000  Uiso   1.00
N557   N     0.83335   0.16668   0.61736   0.00000  Uiso   1.00
N558   N     0.83332   0.16666   0.38264   0.00000  Uiso   1.00
N559   N     0.72272   0.26914   0.41921   0.00000  Uiso   1.00
N560   N     0.94394   0.06420   0.58080   0.00000  Uiso   1.00
O561   O     0.83333   0.10655   0.53958   0.00000  Uiso   1.00
O562   O     0.67937   0.19209   0.55680   0.00000  Uiso   1.00
O563   O     0.75823   0.04414   0.44407   0.00000  Uiso   1.00
O564   O     0.90844   0.28919   0.55593   0.00000  Uiso   1.00
O565   O     0.76207   0.12047   0.37670   0.00000  Uiso   1.00
O566   O     0.90459   0.21286   0.62330   0.00000  Uiso   1.00
O567   O     0.75771   0.12181   0.61293   0.00000  Uiso   1.00
O568   O     0.90896   0.21153   0.38707   0.00000  Uiso   1.00
O569   O     0.83334   0.22678   0.46042   0.00000  Uiso   1.00
O570   O     0.83333   0.10654   0.46039   0.00000  Uiso   1.00
O571   O     0.83334   0.22679   0.53961   0.00000  Uiso   1.00
O572   O     0.75828   0.16667   0.53046   0.00000  Uiso   1.00
O573   O     0.90839   0.16666   0.46954   0.00000  Uiso   1.00
O574   O     0.75828   0.16666   0.45127   0.00000  Uiso   1.00
O575   O     0.90839   0.16667   0.54873   0.00000  Uiso   1.00
O576   O     0.98730   0.14124   0.44320   0.00000  Uiso   1.00
C577   C     0.16658   0.42090   0.50027   0.00000  Uiso   1.00
C578   C     0.20487   0.35537   0.52977   0.00000  Uiso   1.00
C579   C     0.16676   0.62384   0.49926   0.00000  Uiso   1.00
C580   C     0.16658   0.37616   0.50074   0.00000  Uiso   1.00
C581   C     0.13040   0.47738   0.35500   0.00000  Uiso   1.00
C582   C     0.20293   0.52262   0.64500   0.00000  Uiso   1.00
C583   C     0.13004   0.47747   0.63865   0.00000  Uiso   1.00
C584   C     0.20329   0.52253   0.36135   0.00000  Uiso   1.00
C585   C     0.08817   0.62121   0.44181   0.00000  Uiso   1.00
C586   C     0.24516   0.37879   0.55819   0.00000  Uiso   1.00
C587   C     0.16676   0.57910   0.49973   0.00000  Uiso   1.00
C588   C     0.06815   0.49882   0.48821   0.00000  Uiso   1.00
C589   C     0.26518   0.50118   0.51179   0.00000  Uiso   1.00
C590   C     0.01286   0.49388   0.48262   0.00000  Uiso   1.00
C591   C     0.32047   0.50612   0.51738   0.00000  Uiso   1.00
C592   C     0.12847   0.35471   0.47086   0.00000  Uiso   1.00
C593   C     0.20487   0.64529   0.52913   0.00000  Uiso   1.00
C594   C     0.12846   0.64463   0.47023   0.00000  Uiso   1.00
Cu595  Cu    0.16667   0.50001   0.54689   0.00000  Uiso   1.00
Cu596  Cu    0.16667   0.49999   0.45311   0.00000  Uiso   1.00
H597   H     0.01242   0.46445   0.42371   0.00000  Uiso   1.00
H598   H     0.32091   0.53555   0.57629   0.00000  Uiso   1.00
H599   H     0.06891   0.35945   0.42238   0.00000  Uiso   1.00
H600   H     0.26446   0.64055   0.57759   0.00000  Uiso   1.00
H601   H     0.07211   0.43776   0.35341   0.00000  Uiso   1.00
H602   H     0.26122   0.56225   0.64659   0.00000  Uiso   1.00
H603   H     0.10339   0.44548   0.58457   0.00000  Uiso   1.00
H604   H     0.22995   0.55452   0.41543   0.00000  Uiso   1.00
N605   N     0.16668   0.50001   0.61736   0.00000  Uiso   1.00
N606   N     0.16665   0.49999   0.38264   0.00000  Uiso   1.00
N607   N     0.05605   0.60247   0.41921   0.00000  Uiso   1.00
N608   N     0.27728   0.39753   0.58080   0.00000  Uiso   1.00
O609   O     0.16666   0.43989   0.53958   0.00000  Uiso   1.00
O610   O     0.01270   0.52542   0.55680   0.00000  Uiso   1.00
O611   O     0.09157   0.37747   0.44407   0.00000  Uiso   1.00
O612   O     0.24177   0.62253   0.55593   0.00000  Uiso   1.00
O613   O     0.09540   0.45381   0.37670   0.00000  Uiso   1.00
O614   O     0.23793   0.54619   0.62330   0.00000  Uiso   1.00
O615   O     0.09104   0.45514   0.61293   0.00000  Uiso   1.00
O616   O     0.24229   0.54486   0.38707   0.00000  Uiso   1.00
O617   O     0.16667   0.56011   0.46042   0.00000  Uiso   1.00
O618   O     0.16666   0.43988   0.46039   0.00000  Uiso   1.00
O619   O     0.16667   0.56012   0.53961   0.00000  Uiso   1.00
O620   O     0.09161   0.50000   0.53046   0.00000  Uiso   1.00
O621   O     0.24172   0.50000   0.46954   0.00000  Uiso   1.00
O622   O     0.09161   0.49999   0.45127   0.00000  Uiso   1.00
O623   O     0.24172   0.50001   0.54873   0.00000  Uiso   1.00
O624   O     0.32063   0.47458   0.44320   0.00000  Uiso   1.00
C625   C     0.49991   0.42090   0.50027   0.00000  Uiso   1.00
C626   C     0.53821   0.35537   0.52977   0.00000  Uiso   1.00
C627   C     0.50009   0.62384   0.49926   0.00000  Uiso   1.00
C628   C     0.49991   0.37616   0.50074   0.00000  Uiso   1.00
C629   C     0.46373   0.47738   0.35500   0.00000  Uiso   1.00
C630   C     0.53627   0.52262   0.64500   0.00000  Uiso   1.00
C631   C     0.46337   0.47747   0.63865   0.00000  Uiso   1.00
C632   C     0.53663   0.52253   0.36135   0.00000  Uiso   1.00
C633   C     0.42150   0.62121   0.44181   0.00000  Uiso   1.00
C634   C     0.57849   0.37879   0.55819   0.00000  Uiso   1.00
C635   C     0.50009   0.57910   0.49973   0.00000  Uiso   1.00
C636   C     0.40148   0.49882   0.48821   0.00000  Uiso   1.00
C637   C     0.59852   0.50118   0.51179   0.00000  Uiso   1.00
C638   C     0.34620   0.49388   0.48262   0.00000  Uiso   1.00
C639   C     0.65380   0.50612   0.51738   0.00000  Uiso   1.00
C640   C     0.46180   0.35471   0.47086   0.00000  Uiso   1.00
C641   C     0.53820   0.64529   0.52913   0.00000  Uiso   1.00
C642   C     0.46179   0.64463   0.47023   0.00000  Uiso   1.00
Cu643  Cu    0.50000   0.50001   0.54689   0.00000  Uiso   1.00
Cu644  Cu    0.50000   0.49999   0.45311   0.00000  Uiso   1.00
H645   H     0.34575   0.46445   0.42371   0.00000  Uiso   1.00
H646   H     0.65425   0.53555   0.57629   0.00000  Uiso   1.00
H647   H     0.40225   0.35945   0.42238   0.00000  Uiso   1.00
H648   H     0.59779   0.64055   0.57759   0.00000  Uiso   1.00
H649   H     0.40545   0.43776   0.35341   0.00000  Uiso   1.00
H650   H     0.59455   0.56225   0.64659   0.00000  Uiso   1.00
H651   H     0.43672   0.44548   0.58457   0.00000  Uiso   1.00
H652   H     0.56328   0.55452   0.41543   0.00000  Uiso   1.00
N653   N     0.50001   0.50001   0.61736   0.00000  Uiso   1.00
N654   N     0.49999   0.49999   0.38264   0.00000  Uiso   1.00
N655   N     0.38938   0.60247   0.41921   0.00000  Uiso   1.00
N656   N     0.61061   0.39753   0.58080   0.00000  Uiso   1.00
O657   O     0.50000   0.43989   0.53958   0.00000  Uiso   1.00
O658   O     0.34603   0.52542   0.55680   0.00000  Uiso   1.00
O659   O     0.42490   0.37747   0.44407   0.00000  Uiso   1.00
O660   O     0.57510   0.62253   0.55593   0.00000  Uiso   1.00
O661   O     0.42874   0.45381   0.37670   0.00000  Uiso   1.00
O662   O     0.57126   0.54619   0.62330   0.00000  Uiso   1.00
O663   O     0.42437   0.45514   0.61293   0.00000  Uiso   1.00
O664   O     0.57563   0.54486   0.38707   0.00000  Uiso   1.00
O665   O     0.50000   0.56011   0.46042   0.00000  Uiso   1.00
O666   O     0.50000   0.43988   0.46039   0.00000  Uiso   1.00
O667   O     0.50000   0.56012   0.53961   0.00000  Uiso   1.00
O668   O     0.42495   0.50000   0.53046   0.00000  Uiso   1.00
O669   O     0.57505   0.50000   0.46954   0.00000  Uiso   1.00
O670   O     0.42494   0.49999   0.45127   0.00000  Uiso   1.00
O671   O     0.57506   0.50001   0.54873   0.00000  Uiso   1.00
O672   O     0.65397   0.47458   0.44320   0.00000  Uiso   1.00
C673   C     0.83324   0.42090   0.50027   0.00000  Uiso   1.00
C674   C     0.87154   0.35537   0.52977   0.00000  Uiso   1.00
C675   C     0.83342   0.62384   0.49926   0.00000  Uiso   1.00
C676   C     0.83324   0.37616   0.50074   0.00000  Uiso   1.00
C677   C     0.79707   0.47738   0.35500   0.00000  Uiso   1.00
C678   C     0.86960   0.52262   0.64500   0.00000  Uiso   1.00
C679   C     0.79671   0.47747   0.63865   0.00000  Uiso   1.00
C680   C     0.86996   0.52253   0.36135   0.00000  Uiso   1.00
C681   C     0.75484   0.62121   0.44181   0.00000  Uiso   1.00
C682   C     0.91183   0.37879   0.55819   0.00000  Uiso   1.00
C683   C     0.83342   0.57910   0.49973   0.00000  Uiso   1.00
C684   C     0.73482   0.49882   0.48821   0.00000  Uiso   1.00
C685   C     0.93185   0.50118   0.51179   0.00000  Uiso   1.00
C686   C     0.67953   0.49388   0.48262   0.00000  Uiso   1.00
C687   C     0.98714   0.50612   0.51738   0.00000  Uiso   1.00
C688   C     0.79514   0.35471   0.47086   0.00000  Uiso   1.00
C689   C     0.87153   0.64529   0.52913   0.00000  Uiso   1.00
C690   C     0.79513   0.64463   0.47023   0.00000  Uiso   1.00
Cu691  Cu    0.83333   0.50001   0.54689   0.00000  Uiso   1.00
Cu692  Cu    0.83333   0.49999   0.45311   0.00000  Uiso   1.00
H693   H     0.67909   0.46445   0.42371   0.00000  Uiso   1.00
H694   H     0.98758   0.53555   0.57629   0.00000  Uiso   1.00
H695   H     0.73558   0.35945   0.42238   0.00000  Uiso   1.00
H696   H     0.93112   0.64055   0.57759   0.00000  Uiso   1.00
H697   H     0.73878   0.43776   0.35341   0.00000  Uiso   1.00
H698   H     0.92788   0.56225   0.64659   0.00000  Uiso   1.00
H699   H     0.77005   0.44548   0.58457   0.00000  Uiso   1.00
H700   H     0.89661   0.55452   0.41543   0.00000  Uiso   1.00
N701   N     0.83335   0.50001   0.61736   0.00000  Uiso   1.00
N702   N     0.83332   0.49999   0.38264   0.00000  Uiso   1.00
N703   N     0.72272   0.60247   0.41921   0.00000  Uiso   1.00
N704   N     0.94394   0.39753   0.58080   0.00000  Uiso   1.00
O705   O     0.83333   0.43989   0.53958   0.00000  Uiso   1.00
O706   O     0.67937   0.52542   0.55680   0.00000  Uiso   1.00
O707   O     0.75823   0.37747   0.44407   0.00000  Uiso   1.00
O708   O     0.90844   0.62253   0.55593   0.00000  Uiso   1.00
O709   O     0.76207   0.45381   0.37670   0.00000  Uiso   1.00
O710   O     0.90459   0.54619   0.62330   0.00000  Uiso   1.00
O711   O     0.75771   0.45514   0.61293   0.00000  Uiso   1.00
O712   O     0.90896   0.54486   0.38707   0.00000  Uiso   1.00
O713   O     0.83334   0.56011   0.46042   0.00000  Uiso   1.00
O714   O     0.83333   0.43988   0.46039   0.00000  Uiso   1.00
O715   O     0.83334   0.56012   0.53961   0.00000  Uiso   1.00
O716   O     0.75828   0.50000   0.53046   0.00000  Uiso   1.00
O717   O     0.90839   0.50000   0.46954   0.00000  Uiso   1.00
O718   O     0.75828   0.49999   0.45127   0.00000  Uiso   1.00
O719   O     0.90839   0.50001   0.54873   0.00000  Uiso   1.00
O720   O     0.98730   0.47458   0.44320   0.00000  Uiso   1.00
C721   C     0.16658   0.75424   0.50027   0.00000  Uiso   1.00
C722   C     0.20487   0.68870   0.52977   0.00000  Uiso   1.00
C723   C     0.16676   0.95718   0.49926   0.00000  Uiso   1.00
C724   C     0.16658   0.70949   0.50074   0.00000  Uiso   1.00
C725   C     0.13040   0.81072   0.35500   0.00000  Uiso   1.00
C726   C     0.20293   0.85595   0.64500   0.00000  Uiso   1.00
C727   C     0.13004   0.81081   0.63865   0.00000  Uiso   1.00
C728   C     0.20329   0.85586   0.36135   0.00000  Uiso   1.00
C729   C     0.08817   0.95454   0.44181   0.00000  Uiso   1.00
C730   C     0.24516   0.71212   0.55819   0.00000  Uiso   1.00
C731   C     0.16676   0.91243   0.49973   0.00000  Uiso   1.00
C732   C     0.06815   0.83215   0.48821   0.00000  Uiso   1.00
C733   C     0.26518   0.83452   0.51179   0.00000  Uiso   1.00
C734   C     0.01286   0.82721   0.48262   0.00000  Uiso   1.00
C735   C     0.32047   0.83945   0.51738   0.00000  Uiso   1.00
C736   C     0.12847   0.68804   0.47086   0.00000  Uiso   1.00
C737   C     0.20487   0.97862   0.52913   0.00000  Uiso   1.00
C738   C     0.12846   0.97796   0.47023   0.00000  Uiso   1.00
Cu739  Cu    0.16667   0.83334   0.54689   0.00000  Uiso   1.00
Cu740  Cu    0.16667   0.83333   0.45311   0.00000  Uiso   1.00
H741   H     0.01242   0.79778   0.42371   0.00000  Uiso   1.00
H742   H     0.32091   0.86888   0.57629   0.00000  Uiso   1.00
H743   H     0.06891   0.69278   0.42238   0.00000  Uiso   1.00
H744   H     0.26446   0.97389   0.57759   0.00000  Uiso   1.00
H745   H     0.07211   0.77109   0.35341   0.00000  Uiso   1.00
H746   H     0.26122   0.89558   0.64659   0.00000  Uiso   1.00
H747   H     0.10339   0.77881   0.58457   0.00000  Uiso   1.00
H748   H     0.22995   0.88785   0.41543   0.00000  Uiso   1.00
N749   N     0.16668   0.83334   0.61736   0.00000  Uiso   1.00
N750   N     0.16665   0.83332   0.38264   0.00000  Uiso   1.00
N751   N     0.05605   0.93580   0.41921   0.00000  Uiso   1.00
N752   N     0.27728   0.73086   0.58080   0.00000  Uiso   1.00
O753   O     0.16666   0.77322   0.53958   0.00000  Uiso   1.00
O754   O     0.01270   0.85876   0.55680   0.00000  Uiso   1.00
O755   O     0.09157   0.71081   0.44407   0.00000  Uiso   1.00
O756   O     0.24177   0.95586   0.55593   0.00000  Uiso   1.00
O757   O     0.09540   0.78714   0.37670   0.00000  Uiso   1.00
O758   O     0.23793   0.87953   0.62330   0.00000  Uiso   1.00
O759   O     0.09104   0.78847   0.61293   0.00000  Uiso   1.00
O760   O     0.24229   0.87819   0.38707   0.00000  Uiso   1.00
O761   O     0.16667   0.89345   0.46042   0.00000  Uiso   1.00
O762   O     0.16666   0.77321   0.46039   0.00000  Uiso   1.00
O763   O     0.16667   0.89346   0.53961   0.00000  Uiso   1.00
O764   O     0.09161   0.83334   0.53046   0.00000  Uiso   1.00
O765   O     0.24172   0.83333   0.46954   0.00000  Uiso   1.00
O766   O     0.09161   0.83333   0.45127   0.00000  Uiso   1.00
O767   O     0.24172   0.83334   0.54873   0.00000  Uiso   1.00
O768   O     0.32063   0.80791   0.44320   0.00000  Uiso   1.00
C769   C     0.49991   0.75424   0.50027   0.00000  Uiso   1.00
C770   C     0.53821   0.68870   0.52977   0.00000  Uiso   1.00
C771   C     0.50009   0.95718   0.49926   0.00000  Uiso   1.00
C772   C     0.49991   0.70949   0.50074   0.00000  Uiso   1.00
C773   C     0.46373   0.81072   0.35500   0.00000  Uiso   1.00
C774   C     0.53627   0.85595   0.64500   0.00000  Uiso   1.00
C775   C     0.46337   0.81081   0.63865   0.00000  Uiso   1.00
C776   C     0.53663   0.85586   0.36135   0.00000  Uiso   1.00
C777   C     0.42150   0.95454   0.44181   0.00000  Uiso   1.00
C778   C     0.57849   0.71212   0.55819   0.00000  Uiso   1.00
C779   C     0.50009   0.91243   0.49973   0.00000  Uiso   1.00
C780   C     0.40148   0.83215   0.48821   0.00000  Uiso   1.00
C781   C     0.59852   0.83452   0.51179   0.00000  Uiso   1.00
C782   C     0.34620   0.82721   0.48262   0.00000  Uiso   1.00
C783   C     0.65380   0.83945   0.51738   0.00000  Uiso   1.00
C784   C     0.46180   0.68804   0.47086   0.00000  Uiso   1.00
C785   C     0.53820   0.97862   0.52913   0.00000  Uiso   1.00
C786   C     0.46179   0.97796   0.47023   0.00000  Uiso   1.00
Cu787  Cu    0.50000   0.83334   0.54689   0.00000  Uiso   1.00
Cu788  Cu    0.50000   0.83333   0.45311   0.00000  Uiso   1.00
H789   H     0.34575   0.79778   0.42371   0.00000  Uiso   1.00
H790   H     0.65425   0.86888   0.57629   0.00000  Uiso   1.00
H791   H     0.40225   0.69278   0.42238   0.00000  Uiso   1.00
H792   H     0.59779   0.97389   0.57759   0.00000  Uiso   1.00
H793   H     0.40545   0.77109   0.35341   0.00000  Uiso   1.00
H794   H     0.59455   0.89558   0.64659   0.00000  Uiso   1.00
H795   H     0.43672   0.77881   0.58457   0.00000  Uiso   1.00
H796   H     0.56328   0.88785   0.41543   0.00000  Uiso   1.00
N797   N     0.50001   0.83334   0.61736   0.00000  Uiso   1.00
N798   N     0.49999   0.83332   0.38264   0.00000  Uiso   1.00
N799   N     0.38938   0.93580   0.41921   0.00000  Uiso   1.00
N800   N     0.61061   0.73086   0.58080   0.00000  Uiso   1.00
O801   O     0.50000   0.77322   0.53958   0.00000  Uiso   1.00
O802   O     0.34603   0.85876   0.55680   0.00000  Uiso   1.00
O803   O     0.42490   0.71081   0.44407   0.00000  Uiso   1.00
O804   O     0.57510   0.95586   0.55593   0.00000  Uiso   1.00
O805   O     0.42874   0.78714   0.37670   0.00000  Uiso   1.00
O806   O     0.57126   0.87953   0.62330   0.00000  Uiso   1.00
O807   O     0.42437   0.78847   0.61293   0.00000  Uiso   1.00
O808   O     0.57563   0.87819   0.38707   0.00000  Uiso   1.00
O809   O     0.50000   0.89345   0.46042   0.00000  Uiso   1.00
O810   O     0.50000   0.77321   0.46039   0.00000  Uiso   1.00
O811   O     0.50000   0.89346   0.53961   0.00000  Uiso   1.00
O812   O     0.42495   0.83334   0.53046   0.00000  Uiso   1.00
O813   O     0.57505   0.83333   0.46954   0.00000  Uiso   1.00
O814   O     0.42494   0.83333   0.45127   0.00000  Uiso   1.00
O815   O     0.57506   0.83334   0.54873   0.00000  Uiso   1.00
O816   O     0.65397   0.80791   0.44320   0.00000  Uiso   1.00
C817   C     0.83324   0.75424   0.50027   0.00000  Uiso   1.00
C818   C     0.87154   0.68870   0.52977   0.00000  Uiso   1.00
C819   C     0.83342   0.95718   0.49926   0.00000  Uiso   1.00
C820   C     0.83324   0.70949   0.50074   0.00000  Uiso   1.00
C821   C     0.79707   0.81072   0.35500   0.00000  Uiso   1.00
C822   C     0.86960   0.85595   0.64500   0.00000  Uiso   1.00
C823   C     0.79671   0.81081   0.63865   0.00000  Uiso   1.00
C824   C     0.86996   0.85586   0.36135   0.00000  Uiso   1.00
C825   C     0.75484   0.95454   0.44181   0.00000  Uiso   1.00
C826   C     0.91183   0.71212   0.55819   0.00000  Uiso   1.00
C827   C     0.83342   0.91243   0.49973   0.00000  Uiso   1.00
C828   C     0.73482   0.83215   0.48821   0.00000  Uiso   1.00
C829   C     0.93185   0.83452   0.51179   0.00000  Uiso   1.00
C830   C     0.67953   0.82721   0.48262   0.00000  Uiso   1.00
C831   C     0.98714   0.83945   0.51738   0.00000  Uiso   1.00
C832   C     0.79514   0.68804   0.47086   0.00000  Uiso   1.00
C833   C     0.87153   0.97862   0.52913   0.00000  Uiso   1.00
C834   C     0.79513   0.97796   0.47023   0.00000  Uiso   1.00
Cu835  Cu    0.83333   0.83334   0.54689   0.00000  Uiso   1.00
Cu836  Cu    0.83333   0.83333   0.45311   0.00000  Uiso   1.00
H837   H     0.67909   0.79778   0.42371   0.00000  Uiso   1.00
H838   H     0.98758   0.86888   0.57629   0.00000  Uiso   1.00
H839   H     0.73558   0.69278   0.42238   0.00000  Uiso   1.00
H840   H     0.93112   0.97389   0.57759   0.00000  Uiso   1.00
H841   H     0.73878   0.77109   0.35341   0.00000  Uiso   1.00
H842   H     0.92788   0.89558   0.64659   0.00000  Uiso   1.00
H843   H     0.77005   0.77881   0.58457   0.00000  Uiso   1.00
H844   H     0.89661   0.88785   0.41543   0.00000  Uiso   1.00
N845   N     0.83335   0.83334   0.61736   0.00000  Uiso   1.00
N846   N     0.83332   0.83332   0.38264   0.00000  Uiso   1.00
N847   N     0.72272   0.93580   0.41921   0.00000  Uiso   1.00
N848   N     0.94394   0.73086   0.58080   0.00000  Uiso   1.00
O849   O     0.83333   0.77322   0.53958   0.00000  Uiso   1.00
O850   O     0.67937   0.85876   0.55680   0.00000  Uiso   1.00
O851   O     0.75823   0.71081   0.44407   0.00000  Uiso   1.00
O852   O     0.90844   0.95586   0.55593   0.00000  Uiso   1.00
O853   O     0.76207   0.78714   0.37670   0.00000  Uiso   1.00
O854   O     0.90459   0.87953   0.62330   0.00000  Uiso   1.00
O855   O     0.75771   0.78847   0.61293   0.00000  Uiso   1.00
O856   O     0.90896   0.87819   0.38707   0.00000  Uiso   1.00
O857   O     0.83334   0.89345   0.46042   0.00000  Uiso   1.00
O858   O     0.83333   0.77321   0.46039   0.00000  Uiso   1.00
O859   O     0.83334   0.89346   0.53961   0.00000  Uiso   1.00
O860   O     0.75828   0.83334   0.53046   0.00000  Uiso   1.00
O861   O     0.90839   0.83333   0.46954   0.00000  Uiso   1.00
O862   O     0.75828   0.83333   0.45127   0.00000  Uiso   1.00
O863   O     0.90839   0.83334   0.54873   0.00000  Uiso   1.00
O864   O     0.98730   0.80791   0.44320   0.00000  Uiso   1.00
C865   C     0.16658   0.08757   0.83360   0.00000  Uiso   1.00
C866   C     0.20487   0.02204   0.86310   0.00000  Uiso   1.00
C867   C     0.16676   0.29051   0.83259   0.00000  Uiso   1.00
C868   C     0.16658   0.04282   0.83408   0.00000  Uiso   1.00
C869   C     0.13040   0.14405   0.68834   0.00000  Uiso   1.00
C870   C     0.20293   0.18928   0.97833   0.00000  Uiso   1.00
C871   C     0.13004   0.14414   0.97198   0.00000  Uiso   1.00
C872   C     0.20329   0.18919   0.69468   0.00000  Uiso   1.00
C873   C     0.08817   0.28788   0.77515   0.00000  Uiso   1.00
C874   C     0.24516   0.04546   0.89152   0.00000  Uiso   1.00
C875   C     0.16676   0.24576   0.83306   0.00000  Uiso   1.00
C876   C     0.06815   0.16548   0.82154   0.00000  Uiso   1.00
C877   C     0.26518   0.16785   0.84513   0.00000  Uiso   1.00
C878   C     0.01286   0.16055   0.81595   0.00000  Uiso   1.00
C879   C     0.32047   0.17278   0.85072   0.00000  Uiso   1.00
C880   C     0.12847   0.02138   0.80420   0.00000  Uiso   1.00
C881   C     0.20487   0.31195   0.86247   0.00000  Uiso   1.00
C882   C     0.12846   0.31129   0.80356   0.00000  Uiso   1.00
Cu883  Cu    0.16667   0.16667   0.88022   0.00000  Uiso   1.00
Cu884  Cu    0.16667   0.16666   0.78645   0.00000  Uiso   1.00
H885   H     0.01242   0.13112   0.75704   0.00000  Uiso   1.00
H886   H     0.32091   0.20222   0.90962   0.00000  Uiso   1.00
H887   H     0.06891   0.02612   0.75571   0.00000  Uiso   1.00
H888   H     0.26446   0.30722   0.91092   0.00000  Uiso   1.00
H889   H     0.07211   0.10442   0.68674   0.00000  Uiso   1.00
H890   H     0.26122   0.22891   0.97992   0.00000  Uiso   1.00
H891   H     0.10339   0.11215   0.91791   0.00000  Uiso   1.00
H892   H     0.22995   0.22118   0.74876   0.00000  Uiso   1.00
N893   N     0.16668   0.16668   0.95069   0.00000  Uiso   1.00
N894   N     0.16665   0.16666   0.71597   0.00000  Uiso   1.00
N895   N     0.05605   0.26914   0.75254   0.00000  Uiso   1.00
N896   N     0.27728   0.06420   0.91413   0.00000  Uiso   1.00
O897   O     0.16666   0.10655   0.87291   0.00000  Uiso   1.00
O898   O     0.01270   0.19209   0.89014   0.00000  Uiso   1.00
O899   O     0.09157   0.04414   0.77740   0.00000  Uiso   1.00
O900   O     0.24177   0.28919   0.88926   0.00000  Uiso   1.00
O901   O     0.09540   0.12047   0.71004   0.00000  Uiso   1.00
O902   O     0.23793   0.21286   0.95663   0.00000  Uiso   1.00
O903   O     0.09104   0.12181   0.94627   0.00000  Uiso   1.00
O904   O     0.24229   0.21153   0.72040   0.00000  Uiso   1.00
O905   O     0.16667   0.22678   0.79375   0.00000  Uiso   1.00
O906   O     0.16666   0.10654   0.79372   0.00000  Uiso   1.00
O907   O     0.16667   0.22679   0.87294   0.00000  Uiso   1.00
O908   O     0.09161   0.16667   0.86379   0.00000  Uiso   1.00
O909   O     0.24172   0.16666   0.80288   0.00000  Uiso   1.00
O910   O     0.09161   0.16666   0.78460   0.00000  Uiso   1.00
O911   O     0.24172   0.16667   0.88207   0.00000  Uiso   1.00
O912   O     0.32063   0.14124   0.77653   0.00000  Uiso   1.00
C913   C     0.49991   0.08757   0.83360   0.00000  Uiso   1.00
C914   C     0.53821   0.02204   0.86310   0.00000  Uiso   1.00
C915   C     0.50009   0.29051   0.83259   0.00000  Uiso   1.00
C916   C     0.49991   0.04282   0.83408   0.00000  Uiso   1.00
C917   C     0.46373   0.14405   0.68834   0.00000  Uiso   1.00
C918   C     0.53627   0.18928   0.97833   0.00000  Uiso   1.00
C919   C     0.46337   0.14414   0.97198   0.00000  Uiso   1.00
C920   C     0.53663   0.18919   0.69468   0.00000  Uiso   1.00
C921   C     0.42150   0.28788   0.77515   0.00000  Uiso   1.00
C922   C     0.57849   0.04546   0.89152   0.00000  Uiso   1.00
C923   C     0.50009   0.24576   0.83306   0.00000  Uiso   1.00
C924   C     0.40148   0.16548   0.82154   0.00000  Uiso   1.00
C925   C     0.59852   0.16785   0.84513   0.00000  Uiso   1.00
C926   C     0.34620   0.16055   0.81595   0.00000  Uiso   1.00
C927   C     0.65380   0.17278   0.85072   0.00000  Uiso   1.00
C928   C     0.46180   0.02138   0.80420   0.00000  Uiso   1.00
C929   C     0.53820   0.31195   0.86247   0.00000  Uiso   1.00
C930   C     0.46179   0.31129   0.80356   0.00000  Uiso   1.00
Cu931  Cu    0.50000   0.16667   0.88022   0.00000  Uiso   1.00
Cu932  Cu    0.50000   0.16666   0.78645   0.00000  Uiso   1.00
H933   H     0.34575   0.13112   0.75704   0.00000  Uiso   1.00
H934   H     0.65425   0.20222   0.90962   0.00000  Uiso   1.00
H935   H     0.40225   0.02612   0.75571   0.00000  Uiso   1.00
H936   H     0.59779   0.30722   0.91092   0.00000  Uiso   1.00
H937   H     0.40545   0.10442   0.68674   0.00000  Uiso   1.00
H938   H     0.59455   0.22891   0.97992   0.00000  Uiso   1.00
H939   H     0.43672   0.11215   0.91791   0.00000  Uiso   1.00
H940   H     0.56328   0.22118   0.74876   0.00000  Uiso   1.00
N941   N     0.50001   0.16668   0.95069   0.00000  Uiso   1.00
N942   N     0.49999   0.16666   0.71597   0.00000  Uiso   1.00
N943   N     0.38938   0.26914   0.75254   0.00000  Uiso   1.00
N944   N     0.61061   0.06420   0.91413   0.00000  Uiso   1.00
O945   O     0.50000   0.10655   0.87291   0.00000  Uiso   1.00
O946   O     0.34603   0.19209   0.89014   0.00000  Uiso   1.00
O947   O     0.42490   0.04414   0.77740   0.00000  Uiso   1.00
O948   O     0.57510   0.28919   0.88926   0.00000  Uiso   1.00
O949   O     0.42874   0.12047   0.71004   0.00000  Uiso   1.00
O950   O     0.57126   0.21286   0.95663   0.00000  Uiso   1.00
O951   O     0.42437   0.12181   0.94627   0.00000  Uiso   1.00
O952   O     0.57563   0.21153   0.72040   0.00000  Uiso   1.00
O953   O     0.50000   0.22678   0.79375   0.00000  Uiso   1.00
O954   O     0.50000   0.10654   0.79372   0.00000  Uiso   1.00
O955   O     0.50000   0.22679   0.87294   0.00000  Uiso   1.00
O956   O     0.42495   0.16667   0.86379   0.00000  Uiso   1.00
O957   O     0.57505   0.16666   0.80288   0.00000  Uiso   1.00
O958   O     0.42494   0.16666   0.78460   0.00000  Uiso   1.00
O959   O     0.57506   0.16667   0.88207   0.00000  Uiso   1.00
O960   O     0.65397   0.14124   0.77653   0.00000  Uiso   1.00
C961   C     0.83324   0.08757   0.83360   0.00000  Uiso   1.00
C962   C     0.87154   0.02204   0.86310   0.00000  Uiso   1.00
C963   C     0.83342   0.29051   0.83259   0.00000  Uiso   1.00
C964   C     0.83324   0.04282   0.83408   0.00000  Uiso   1.00
C965   C     0.79707   0.14405   0.68834   0.00000  Uiso   1.00
C966   C     0.86960   0.18928   0.97833   0.00000  Uiso   1.00
C967   C     0.79671   0.14414   0.97198   0.00000  Uiso   1.00
C968   C     0.86996   0.18919   0.69468   0.00000  Uiso   1.00
C969   C     0.75484   0.28788   0.77515   0.00000  Uiso   1.00
C970   C     0.91183   0.04546   0.89152   0.00000  Uiso   1.00
C971   C     0.83342   0.24576   0.83306   0.00000  Uiso   1.00
C972   C     0.73482   0.16548   0.82154   0.00000  Uiso   1.00
C973   C     0.93185   0.16785   0.84513   0.00000  Uiso   1.00
C974   C     0.67953   0.16055   0.81595   0.00000  Uiso   1.00
C975   C     0.98714   0.17278   0.85072   0.00000  Uiso   1.00
C976   C     0.79514   0.02138   0.80420   0.00000  Uiso   1.00
C977   C     0.87153   0.31195   0.86247   0.00000  Uiso   1.00
C978   C     0.79513   0.31129   0.80356   0.00000  Uiso   1.00
Cu979  Cu    0.83333   0.16667   0.88022   0.00000  Uiso   1.00
Cu980  Cu    0.83333   0.16666   0.78645   0.00000  Uiso   1.00
H981   H     0.67909   0.13112   0.75704   0.00000  Uiso   1.00
H982   H     0.98758   0.20222   0.90962   0.00000  Uiso   1.00
H983   H     0.73558   0.02612   0.75571   0.00000  Uiso   1.00
H984   H     0.93112   0.30722   0.91092   0.00000  Uiso   1.00
H985   H     0.73878   0.10442   0.68674   0.00000  Uiso   1.00
H986   H     0.92788   0.22891   0.97992   0.00000  Uiso   1.00
H987   H     0.77005   0.11215   0.91791   0.00000  Uiso   1.00
H988   H     0.89661   0.22118   0.74876   0.00000  Uiso   1.00
N989   N     0.83335   0.16668   0.95069   0.00000  Uiso   1.00
N990   N     0.83332   0.16666   0.71597   0.00000  Uiso   1.00
N991   N     0.72272   0.26914   0.75254   0.00000  Uiso   1.00
N992   N     0.94394   0.06420   0.91413   0.00000  Uiso   1.00
O993   O     0.83333   0.10655   0.87291   0.00000  Uiso   1.00
O994   O     0.67937   0.19209   0.89014   0.00000  Uiso   1.00
O995   O     0.75823   0.04414   0.77740   0.00000  Uiso   1.00
O996   O     0.90844   0.28919   0.88926   0.00000  Uiso   1.00
O997   O     0.76207   0.12047   0.71004   0.00000  Uiso   1.00
O998   O     0.90459   0.21286   0.95663   0.00000  Uiso   1.00
O999   O     0.75771   0.12181   0.94627   0.00000  Uiso   1.00
O1000  O     0.90896   0.21153   0.72040   0.00000  Uiso   1.00
O1001  O     0.83334   0.22678   0.79375   0.00000  Uiso   1.00
O1002  O     0.83333   0.10654   0.79372   0.00000  Uiso   1.00
O1003  O     0.83334   0.22679   0.87294   0.00000  Uiso   1.00
O1004  O     0.75828   0.16667   0.86379   0.00000  Uiso   1.00
O1005  O     0.90839   0.16666   0.80288   0.00000  Uiso   1.00
O1006  O     0.75828   0.16666   0.78460   0.00000  Uiso   1.00
O1007  O     0.90839   0.16667   0.88207   0.00000  Uiso   1.00
O1008  O     0.98730   0.14124   0.77653   0.00000  Uiso   1.00
C1009  C     0.16658   0.42090   0.83360   0.00000  Uiso   1.00
C1010  C     0.20487   0.35537   0.86310   0.00000  Uiso   1.00
C1011  C     0.16676   0.62384   0.83259   0.00000  Uiso   1.00
C1012  C     0.16658   0.37616   0.83408   0.00000  Uiso   1.00
C1013  C     0.13040   0.47738   0.68834   0.00000  Uiso   1.00
C1014  C     0.20293   0.52262   0.97833   0.00000  Uiso   1.00
C1015  C     0.13004   0.47747   0.97198   0.00000  Uiso   1.00
C1016  C     0.20329   0.52253   0.69468   0.00000  Uiso   1.00
C1017  C     0.08817   0.62121   0.77515   0.00000  Uiso   1.00
C1018  C     0.24516   0.37879   0.89152   0.00000  Uiso   1.00
C1019  C     0.16676   0.57910   0.83306   0.00000  Uiso   1.00
C1020  C     0.06815   0.49882   0.82154   0.00000  Uiso   1.00
C1021  C     0.26518   0.50118   0.84513   0.00000  Uiso   1.00
C1022  C     0.01286   0.49388   0.81595   0.00000  Uiso   1.00
C1023  C     0.32047   0.50612   0.85072   0.00000  Uiso   1.00
C1024  C     0.12847   0.35471   0.80420   0.00000  Uiso   1.00
C1025  C     0.20487   0.64529   0.86247   0.00000  Uiso   1.00
C1026  C     0.12846   0.64463   0.80356   0.00000  Uiso   1.00
Cu1027 Cu    0.16667   0.50001   0.88022   0.00000  Uiso   1.00
Cu1028 Cu    0.16667   0.49999   0.78645   0.00000  Uiso   1.00
H1029  H     0.01242   0.46445   0.75704   0.00000  Uiso   1.00
H1030  H     0.32091   0.53555   0.90962   0.00000  Uiso   1.00
H1031  H     0.06891   0.35945   0.75571   0.00000  Uiso   1.00
H1032  H     0.26446   0.64055   0.91092   0.00000  Uiso   1.00
H1033  H     0.07211   0.43776   0.68674   0.00000  Uiso   1.00
H1034  H     0.26122   0.56225   0.97992   0.00000  Uiso   1.00
H1035  H     0.10339   0.44548   0.91791   0.00000  Uiso   1.00
H1036  H     0.22995   0.55452   0.74876   0.00000  Uiso   1.00
N1037  N     0.16668   0.50001   0.95069   0.00000  Uiso   1.00
N1038  N     0.16665   0.49999   0.71597   0.00000  Uiso   1.00
N1039  N     0.05605   0.60247   0.75254   0.00000  Uiso   1.00
N1040  N     0.27728   0.39753   0.91413   0.00000  Uiso   1.00
O1041  O     0.16666   0.43989   0.87291   0.00000  Uiso   1.00
O1042  O     0.01270   0.52542   0.89014   0.00000  Uiso   1.00
O1043  O     0.09157   0.37747   0.77740   0.00000  Uiso   1.00
O1044  O     0.24177   0.62253   0.88926   0.00000  Uiso   1.00
O1045  O     0.09540   0.45381   0.71004   0.00000  Uiso   1.00
O1046  O     0.23793   0.54619   0.95663   0.00000  Uiso   1.00
O1047  O     0.09104   0.45514   0.94627   0.00000  Uiso   1.00
O1048  O     0.24229   0.54486   0.72040   0.00000  Uiso   1.00
O1049  O     0.16667   0.56011   0.79375   0.00000  Uiso   1.00
O1050  O     0.16666   0.43988   0.79372   0.00000  Uiso   1.00
O1051  O     0.16667   0.56012   0.87294   0.00000  Uiso   1.00
O1052  O     0.09161   0.50000   0.86379   0.00000  Uiso   1.00
O1053  O     0.24172   0.50000   0.80288   0.00000  Uiso   1.00
O1054  O     0.09161   0.49999   0.78460   0.00000  Uiso   1.00
O1055  O     0.24172   0.50001   0.88207   0.00000  Uiso   1.00
O1056  O     0.32063   0.47458   0.77653   0.00000  Uiso   1.00
C1057  C     0.49991   0.42090   0.83360   0.00000  Uiso   1.00
C1058  C     0.53821   0.35537   0.86310   0.00000  Uiso   1.00
C1059  C     0.50009   0.62384   0.83259   0.00000  Uiso   1.00
C1060  C     0.49991   0.37616   0.83408   0.00000  Uiso   1.00
C1061  C     0.46373   0.47738   0.68834   0.00000  Uiso   1.00
C1062  C     0.53627   0.52262   0.97833   0.00000  Uiso   1.00
C1063  C     0.46337   0.47747   0.97198   0.00000  Uiso   1.00
C1064  C     0.53663   0.52253   0.69468   0.00000  Uiso   1.00
C1065  C     0.42150   0.62121   0.77515   0.00000  Uiso   1.00
C1066  C     0.57849   0.37879   0.89152   0.00000  Uiso   1.00
C1067  C     0.50009   0.57910   0.83306   0.00000  Uiso   1.00
C1068  C     0.40148   0.49882   0.82154   0.00000  Uiso   1.00
C1069  C     0.59852   0.50118   0.84513   0.00000  Uiso   1.00
C1070  C     0.34620   0.49388   0.81595   0.00000  Uiso   1.00
C1071  C     0.65380   0.50612   0.85072   0.00000  Uiso   1.00
C1072  C     0.46180   0.35471   0.80420   0.00000  Uiso   1.00
C1073  C     0.53820   0.64529   0.86247   0.00000  Uiso   1.00
C1074  C     0.46179   0.64463   0.80356   0.00000  Uiso   1.00
Cu1075 Cu    0.50000   0.50001   0.88022   0.00000  Uiso   1.00
Cu1076 Cu    0.50000   0.49999   0.78645   0.00000  Uiso   1.00
H1077  H     0.34575   0.46445   0.75704   0.00000  Uiso   1.00
H1078  H     0.65425   0.53555   0.90962   0.00000  Uiso   1.00
H1079  H     0.40225   0.35945   0.75571   0.00000  Uiso   1.00
H1080  H     0.59779   0.64055   0.91092   0.00000  Uiso   1.00
H1081  H     0.40545   0.43776   0.68674   0.00000  Uiso   1.00
H1082  H     0.59455   0.56225   0.97992   0.00000  Uiso   1.00
H1083  H     0.43672   0.44548   0.91791   0.00000  Uiso   1.00
H1084  H     0.56328   0.55452   0.74876   0.00000  Uiso   1.00
N1085  N     0.50001   0.50001   0.95069   0.00000  Uiso   1.00
N1086  N     0.49999   0.49999   0.71597   0.00000  Uiso   1.00
N1087  N     0.38938   0.60247   0.75254   0.00000  Uiso   1.00
N1088  N     0.61061   0.39753   0.91413   0.00000  Uiso   1.00
O1089  O     0.50000   0.43989   0.87291   0.00000  Uiso   1.00
O1090  O     0.34603   0.52542   0.89014   0.00000  Uiso   1.00
O1091  O     0.42490   0.37747   0.77740   0.00000  Uiso   1.00
O1092  O     0.57510   0.62253   0.88926   0.00000  Uiso   1.00
O1093  O     0.42874   0.45381   0.71004   0.00000  Uiso   1.00
O1094  O     0.57126   0.54619   0.95663   0.00000  Uiso   1.00
O1095  O     0.42437   0.45514   0.94627   0.00000  Uiso   1.00
O1096  O     0.57563   0.54486   0.72040   0.00000  Uiso   1.00
O1097  O     0.50000   0.56011   0.79375   0.00000  Uiso   1.00
O1098  O     0.50000   0.43988   0.79372   0.00000  Uiso   1.00
O1099  O     0.50000   0.56012   0.87294   0.00000  Uiso   1.00
O1100  O     0.42495   0.50000   0.86379   0.00000  Uiso   1.00
O1101  O     0.57505   0.50000   0.80288   0.00000  Uiso   1.00
O1102  O     0.42494   0.49999   0.78460   0.00000  Uiso   1.00
O1103  O     0.57506   0.50001   0.88207   0.00000  Uiso   1.00
O1104  O     0.65397   0.47458   0.77653   0.00000  Uiso   1.00
C1105  C     0.83324   0.42090   0.83360   0.00000  Uiso   1.00
C1106  C     0.87154   0.35537   0.86310   0.00000  Uiso   1.00
C1107  C     0.83342   0.62384   0.83259   0.00000  Uiso   1.00
C1108  C     0.83324   0.37616   0.83408   0.00000  Uiso   1.00
C1109  C     0.79707   0.47738   0.68834   0.00000  Uiso   1.00
C1110  C     0.86960   0.52262   0.97833   0.00000  Uiso   1.00
C1111  C     0.79671   0.47747   0.97198   0.00000  Uiso   1.00
C1112  C     0.86996   0.52253   0.69468   0.00000  Uiso   1.00
C1113  C     0.75484   0.62121   0.77515   0.00000  Uiso   1.00
C1114  C     0.91183   0.37879   0.89152   0.00000  Uiso   1.00
C1115  C     0.83342   0.57910   0.83306   0.00000  Uiso   1.00
C1116  C     0.73482   0.49882   0.82154   0.00000  Uiso   1.00
C1117  C     0.93185   0.50118   0.84513   0.00000  Uiso   1.00
C1118  C     0.67953   0.49388   0.81595   0.00000  Uiso   1.00
C1119  C     0.98714   0.50612   0.85072   0.00000  Uiso   1.00
C1120  C     0.79514   0.35471   0.80420   0.00000  Uiso   1.00
C1121  C     0.87153   0.64529   0.86247   0.00000  Uiso   1.00
C1122  C     0.79513   0.64463   0.80356   0.00000  Uiso   1.00
Cu1123 Cu    0.83333   0.50001   0.88022   0.00000  Uiso   1.00
Cu1124 Cu    0.83333   0.49999   0.78645   0.00000  Uiso   1.00
H1125  H     0.67909   0.46445   0.75704   0.00000  Uiso   1.00
H1126  H     0.98758   0.53555   0.90962   0.00000  Uiso   1.00
H1127  H     0.73558   0.35945   0.75571   0.00000  Uiso   1.00
H1128  H     0.93112   0.64055   0.91092   0.00000  Uiso   1.00
H1129  H     0.73878   0.43776   0.68674   0.00000  Uiso   1.00
H1130  H     0.92788   0.56225   0.97992   0.00000  Uiso   1.00
H1131  H     0.77005   0.44548   0.91791   0.00000  Uiso   1.00
H1132  H     0.89661   0.55452   0.74876   0.00000  Uiso   1.00
N1133  N     0.83335   0.50001   0.95069   0.00000  Uiso   1.00
N1134  N     0.83332   0.49999   0.71597   0.00000  Uiso   1.00
N1135  N     0.72272   0.60247   0.75254   0.00000  Uiso   1.00
N1136  N     0.94394   0.39753   0.91413   0.00000  Uiso   1.00
O1137  O     0.83333   0.43989   0.87291   0.00000  Uiso   1.00
O1138  O     0.67937   0.52542   0.89014   0.00000  Uiso   1.00
O1139  O     0.75823   0.37747   0.77740   0.00000  Uiso   1.00
O1140  O     0.90844   0.62253   0.88926   0.00000  Uiso   1.00
O1141  O     0.76207   0.45381   0.71004   0.00000  Uiso   1.00
O1142  O     0.90459   0.54619   0.95663   0.00000  Uiso   1.00
O1143  O     0.75771   0.45514   0.94627   0.00000  Uiso   1.00
O1144  O     0.90896   0.54486   0.72040   0.00000  Uiso   1.00
O1145  O     0.83334   0.56011   0.79375   0.00000  Uiso   1.00
O1146  O     0.83333   0.43988   0.79372   0.00000  Uiso   1.00
O1147  O     0.83334   0.56012   0.87294   0.00000  Uiso   1.00
O1148  O     0.75828   0.50000   0.86379   0.00000  Uiso   1.00
O1149  O     0.90839   0.50000   0.80288   0.00000  Uiso   1.00
O1150  O     0.75828   0.49999   0.78460   0.00000  Uiso   1.00
O1151  O     0.90839   0.50001   0.88207   0.00000  Uiso   1.00
O1152  O     0.98730   0.47458   0.77653   0.00000  Uiso   1.00
C1153  C     0.16658   0.75424   0.83360   0.00000  Uiso   1.00
C1154  C     0.20487   0.68870   0.86310   0.00000  Uiso   1.00
C1155  C     0.16676   0.95718   0.83259   0.00000  Uiso   1.00
C1156  C     0.16658   0.70949   0.83408   0.00000  Uiso   1.00
C1157  C     0.13040   0.81072   0.68834   0.00000  Uiso   1.00
C1158  C     0.20293   0.85595   0.97833   0.00000  Uiso   1.00
C1159  C     0.13004   0.81081   0.97198   0.00000  Uiso   1.00
C1160  C     0.20329   0.85586   0.69468   0.00000  Uiso   1.00
C1161  C     0.08817   0.95454   0.77515   0.00000  Uiso   1.00
C1162  C     0.24516   0.71212   0.89152   0.00000  Uiso   1.00
C1163  C     0.16676   0.91243   0.83306   0.00000  Uiso   1.00
C1164  C     0.06815   0.83215   0.82154   0.00000  Uiso   1.00
C1165  C     0.26518   0.83452   0.84513   0.00000  Uiso   1.00
C1166  C     0.01286   0.82721   0.81595   0.00000  Uiso   1.00
C1167  C     0.32047   0.83945   0.85072   0.00000  Uiso   1.00
C1168  C     0.12847   0.68804   0.80420   0.00000  Uiso   1.00
C1169  C     0.20487   0.97862   0.86247   0.00000  Uiso   1.00
C1170  C     0.12846   0.97796   0.80356   0.00000  Uiso   1.00
Cu1171 Cu    0.16667   0.83334   0.88022   0.00000  Uiso   1.00
Cu1172 Cu    0.16667   0.83333   0.78645   0.00000  Uiso   1.00
H1173  H     0.01242   0.79778   0.75704   0.00000  Uiso   1.00
H1174  H     0.32091   0.86888   0.90962   0.00000  Uiso   1.00
H1175  H     0.06891   0.69278   0.75571   0.00000  Uiso   1.00
H1176  H     0.26446   0.97389   0.91092   0.00000  Uiso   1.00
H1177  H     0.07211   0.77109   0.68674   0.00000  Uiso   1.00
H1178  H     0.26122   0.89558   0.97992   0.00000  Uiso   1.00
H1179  H     0.10339   0.77881   0.91791   0.00000  Uiso   1.00
H1180  H     0.22995   0.88785   0.74876   0.00000  Uiso   1.00
N1181  N     0.16668   0.83334   0.95069   0.00000  Uiso   1.00
N1182  N     0.16665   0.83332   0.71597   0.00000  Uiso   1.00
N1183  N     0.05605   0.93580   0.75254   0.00000  Uiso   1.00
N1184  N     0.27728   0.73086   0.91413   0.00000  Uiso   1.00
O1185  O     0.16666   0.77322   0.87291   0.00000  Uiso   1.00
O1186  O     0.01270   0.85876   0.89014   0.00000  Uiso   1.00
O1187  O     0.09157   0.71081   0.77740   0.00000  Uiso   1.00
O1188  O     0.24177   0.95586   0.88926   0.00000  Uiso   1.00
O1189  O     0.09540   0.78714   0.71004   0.00000  Uiso   1.00
O1190  O     0.23793   0.87953   0.95663   0.00000  Uiso   1.00
O1191  O     0.09104   0.78847   0.94627   0.00000  Uiso   1.00
O1192  O     0.24229   0.87819   0.72040   0.00000  Uiso   1.00
O1193  O     0.16667   0.89345   0.79375   0.00000  Uiso   1.00
O1194  O     0.16666   0.77321   0.79372   0.00000  Uiso   1.00
O1195  O     0.16667   0.89346   0.87294   0.00000  Uiso   1.00
O1196  O     0.09161   0.83334   0.86379   0.00000  Uiso   1.00
O1197  O     0.24172   0.83333   0.80288   0.00000  Uiso   1.00
O1198  O     0.09161   0.83333   0.78460   0.00000  Uiso   1.00
O1199  O     0.24172   0.83334   0.88207   0.00000  Uiso   1.00
O1200  O     0.32063   0.80791   0.77653   0.00000  Uiso   1.00
C1201  C     0.49991   0.75424   0.83360   0.00000  Uiso   1.00
C1202  C     0.53821   0.68870   0.86310   0.00000  Uiso   1.00
C1203  C     0.50009   0.95718   0.83259   0.00000  Uiso   1.00
C1204  C     0.49991   0.70949   0.83408   0.00000  Uiso   1.00
C1205  C     0.46373   0.81072   0.68834   0.00000  Uiso   1.00
C1206  C     0.53627   0.85595   0.97833   0.00000  Uiso   1.00
C1207  C     0.46337   0.81081   0.97198   0.00000  Uiso   1.00
C1208  C     0.53663   0.85586   0.69468   0.00000  Uiso   1.00
C1209  C     0.42150   0.95454   0.77515   0.00000  Uiso   1.00
C1210  C     0.57849   0.71212   0.89152   0.00000  Uiso   1.00
C1211  C     0.50009   0.91243   0.83306   0.00000  Uiso   1.00
C1212  C     0.40148   0.83215   0.82154   0.00000  Uiso   1.00
C1213  C     0.59852   0.83452   0.84513   0.00000  Uiso   1.00
C1214  C     0.34620   0.82721   0.81595   0.00000  Uiso   1.00
C1215  C     0.65380   0.83945   0.85072   0.00000  Uiso   1.00
C1216  C     0.46180   0.68804   0.80420   0.00000  Uiso   1.00
C1217  C     0.53820   0.97862   0.86247   0.00000  Uiso   1.00
C1218  C     0.46179   0.97796   0.80356   0.00000  Uiso   1.00
Cu1219 Cu    0.50000   0.83334   0.88022   0.00000  Uiso   1.00
Cu1220 Cu    0.50000   0.83333   0.78645   0.00000  Uiso   1.00
H1221  H     0.34575   0.79778   0.75704   0.00000  Uiso   1.00
H1222  H     0.65425   0.86888   0.90962   0.00000  Uiso   1.00
H1223  H     0.40225   0.69278   0.75571   0.00000  Uiso   1.00
H1224  H     0.59779   0.97389   0.91092   0.00000  Uiso   1.00
H1225  H     0.40545   0.77109   0.68674   0.00000  Uiso   1.00
H1226  H     0.59455   0.89558   0.97992   0.00000  Uiso   1.00
H1227  H     0.43672   0.77881   0.91791   0.00000  Uiso   1.00
H1228  H     0.56328   0.88785   0.74876   0.00000  Uiso   1.00
N1229  N     0.50001   0.83334   0.95069   0.00000  Uiso   1.00
N1230  N     0.49999   0.83332   0.71597   0.00000  Uiso   1.00
N1231  N     0.38938   0.93580   0.75254   0.00000  Uiso   1.00
N1232  N     0.61061   0.73086   0.91413   0.00000  Uiso   1.00
O1233  O     0.50000   0.77322   0.87291   0.00000  Uiso   1.00
O1234  O     0.34603   0.85876   0.89014   0.00000  Uiso   1.00
O1235  O     0.42490   0.71081   0.77740   0.00000  Uiso   1.00
O1236  O     0.57510   0.95586   0.88926   0.00000  Uiso   1.00
O1237  O     0.42874   0.78714   0.71004   0.00000  Uiso   1.00
O1238  O     0.57126   0.87953   0.95663   0.00000  Uiso   1.00
O1239  O     0.42437   0.78847   0.94627   0.00000  Uiso   1.00
O1240  O     0.57563   0.87819   0.72040   0.00000  Uiso   1.00
O1241  O     0.50000   0.89345   0.79375   0.00000  Uiso   1.00
O1242  O     0.50000   0.77321   0.79372   0.00000  Uiso   1.00
O1243  O     0.50000   0.89346   0.87294   0.00000  Uiso   1.00
O1244  O     0.42495   0.83334   0.86379   0.00000  Uiso   1.00
O1245  O     0.57505   0.83333   0.80288   0.00000  Uiso   1.00
O1246  O     0.42494   0.83333   0.78460   0.00000  Uiso   1.00
O1247  O     0.57506   0.83334   0.88207   0.00000  Uiso   1.00
O1248  O     0.65397   0.80791   0.77653   0.00000  Uiso   1.00
C1249  C     0.83324   0.75424   0.83360   0.00000  Uiso   1.00
C1250  C     0.87154   0.68870   0.86310   0.00000  Uiso   1.00
C1251  C     0.83342   0.95718   0.83259   0.00000  Uiso   1.00
C1252  C     0.83324   0.70949   0.83408   0.00000  Uiso   1.00
C1253  C     0.79707   0.81072   0.68834   0.00000  Uiso   1.00
C1254  C     0.86960   0.85595   0.97833   0.00000  Uiso   1.00
C1255  C     0.79671   0.81081   0.97198   0.00000  Uiso   1.00
C1256  C     0.86996   0.85586   0.69468   0.00000  Uiso   1.00
C1257  C     0.75484   0.95454   0.77515   0.00000  Uiso   1.00
C1258  C     0.91183   0.71212   0.89152   0.00000  Uiso   1.00
C1259  C     0.83342   0.91243   0.83306   0.00000  Uiso   1.00
C1260  C     0.73482   0.83215   0.82154   0.00000  Uiso   1.00
C1261  C     0.93185   0.83452   0.84513   0.00000  Uiso   1.00
C1262  C     0.67953   0.82721   0.81595   0.00000  Uiso   1.00
C1263  C     0.98714   0.83945   0.85072   0.00000  Uiso   1.00
C1264  C     0.79514   0.68804   0.80420   0.00000  Uiso   1.00
C1265  C     0.87153   0.97862   0.86247   0.00000  Uiso   1.00
C1266  C     0.79513   0.97796   0.80356   0.00000  Uiso   1.00
Cu1267 Cu    0.83333   0.83334   0.88022   0.00000  Uiso   1.00
Cu1268 Cu    0.83333   0.83333   0.78645   0.00000  Uiso   1.00
H1269  H     0.67909   0.79778   0.75704   0.00000  Uiso   1.00
H1270  H     0.98758   0.86888   0.90962   0.00000  Uiso   1.00
H1271  H     0.73558   0.69278   0.75571   0.00000  Uiso   1.00
H1272  H     0.93112   0.97389   0.91092   0.00000  Uiso   1.00
H1273  H     0.73878   0.77109   0.68674   0.00000  Uiso   1.00
H1274  H     0.92788   0.89558   0.97992   0.00000  Uiso   1.00
H1275  H     0.77005   0.77881   0.91791   0.00000  Uiso   1.00
H1276  H     0.89661   0.88785   0.74876   0.00000  Uiso   1.00
N1277  N     0.83335   0.83334   0.95069   0.00000  Uiso   1.00
N1278  N     0.83332   0.83332   0.71597   0.00000  Uiso   1.00
N1279  N     0.72272   0.93580   0.75254   0.00000  Uiso   1.00
N1280  N     0.94394   0.73086   0.91413   0.00000  Uiso   1.00
O1281  O     0.83333   0.77322   0.87291   0.00000  Uiso   1.00
O1282  O     0.67937   0.85876   0.89014   0.00000  Uiso   1.00
O1283  O     0.75823   0.71081   0.77740   0.00000  Uiso   1.00
O1284  O     0.90844   0.95586   0.88926   0.00000  Uiso   1.00
O1285  O     0.76207   0.78714   0.71004   0.00000  Uiso   1.00
O1286  O     0.90459   0.87953   0.95663   0.00000  Uiso   1.00
O1287  O     0.75771   0.78847   0.94627   0.00000  Uiso   1.00
O1288  O     0.90896   0.87819   0.72040   0.00000  Uiso   1.00
O1289  O     0.83334   0.89345   0.79375   0.00000  Uiso   1.00
O1290  O     0.83333   0.77321   0.79372   0.00000  Uiso   1.00
O1291  O     0.83334   0.89346   0.87294   0.00000  Uiso   1.00
O1292  O     0.75828   0.83334   0.86379   0.00000  Uiso   1.00
O1293  O     0.90839   0.83333   0.80288   0.00000  Uiso   1.00
O1294  O     0.75828   0.83333   0.78460   0.00000  Uiso   1.00
O1295  O     0.90839   0.83334   0.88207   0.00000  Uiso   1.00
O1296  O     0.98730   0.80791   0.77653   0.00000  Uiso   1.00
loop_
_geom_bond_atom_site_label_1
_geom_bond_atom_site_label_2
_geom_bond_distance
_geom_bond_site_symmetry_2
_ccdc_geom_bond_type
C1     O42     1.294   .     A
C1     C4      1.448   .     S
C1     O33     1.297   .     A
C2     C4      1.408   .     A
C2     C10     1.451   .     S
C2     C305    1.406   1_545 S
C3     C17     1.405   .     A
C3     C11     1.448   .     S
C3     C18     1.408   .     A
C4     C16     1.405   .     A
C5     O37     1.381   .     S
C5     N30     1.361   .     A
C5     C871    1.430   1_554 S
C6     O38     1.381   .     S
C6     N29     1.361   .     A
C6     C440    1.430   .     S
C7     N29     1.389   .     A
C7     O39     1.376   .     S
C7     C437    1.430   .     S
C8     N30     1.389   .     A
C8     O40     1.376   .     S
C8     C870    1.430   1_554 S
C9     N31     1.158   .     T
C9     C18     1.451   .     S
C10    N32     1.158   .     T
C11    O43     1.294   .     A
C11    O41     1.297   .     A
C12    O44     1.292   .     A
C12    O46     1.298   .     A
C12    C14     1.448   .     S
C13    O45     1.292   .     A
C13    C15     1.448   .     S
C13    O47     1.298   .     A
C14    C111    1.353   1_455 S
C14    O144    1.388   1_455 S
C15    C62     1.353   .     S
C15    O82     1.388   .     S
C16    O35     1.387   .     S
C16    C306    1.406   1_545 S
C17    O36     1.387   .     S
C17    C146    1.406   .     S
C18    C160    1.406   .     S
Cu19   O43     1.954   .     S
Cu19   Cu20    2.702   .     S
Cu19   O47     1.972   .     S
Cu19   N29     2.031   .     S
Cu19   O44     1.973   .     S
Cu19   O33     1.961   .     S
Cu20   O42     1.954   .     S
Cu20   O41     1.961   .     S
Cu20   N30     2.031   .     S
Cu20   O46     1.972   .     S
Cu20   O45     1.973   .     S
H21    O144    0.990   1_455 S
H22    O82     0.990   .     S
H23    O35     0.988   .     S
H24    O36     0.988   .     S
H25    O37     0.989   .     S
H26    O38     0.989   .     S
H27    O39     0.978   .     S
H28    O40     0.978   .     S
O34    H118    0.990   1_455 S
O34    C111    1.388   1_455 S
O48    H69     0.990   .     S
O48    C62     1.388   .     S
C49    O90     1.294   .     A
C49    C52     1.448   .     S
C49    O81     1.297   .     A
C50    C52     1.408   .     A
C50    C58     1.451   .     S
C50    C353    1.406   1_545 S
C51    C65     1.405   .     A
C51    C59     1.448   .     S
C51    C66     1.408   .     A
C52    C64     1.405   .     A
C53    O85     1.381   .     S
C53    N78     1.361   .     A
C53    C919    1.430   1_554 S
C54    O86     1.381   .     S
C54    N77     1.361   .     A
C54    C488    1.430   .     S
C55    N77     1.389   .     A
C55    O87     1.376   .     S
C55    C485    1.430   .     S
C56    N78     1.389   .     A
C56    O88     1.376   .     S
C56    C918    1.430   1_554 S
C57    N79     1.158   .     T
C57    C66     1.451   .     S
C58    N80     1.158   .     T
C59    O91     1.294   .     A
C59    O89     1.297   .     A
C60    O92     1.292   .     A
C60    O94     1.298   .     A
C60    C62     1.448   .     S
C61    O93     1.292   .     A
C61    C63     1.448   .     S
C61    O95     1.298   .     A
C63    C110    1.353   .     S
C63    O130    1.388   .     S
C64    O83     1.387   .     S
C64    C354    1.406   1_545 S
C65    O84     1.387   .     S
C65    C194    1.406   .     S
C66    C208    1.406   .     S
Cu67   O91     1.954   .     S
Cu67   Cu68    2.702   .     S
Cu67   O95     1.972   .     S
Cu67   N77     2.031   .     S
Cu67   O92     1.973   .     S
Cu67   O81     1.961   .     S
Cu68   O90     1.954   .     S
Cu68   O89     1.961   .     S
Cu68   N78     2.031   .     S
Cu68   O94     1.972   .     S
Cu68   O93     1.973   .     S
H70    O130    0.990   .     S
H71    O83     0.988   .     S
H72    O84     0.988   .     S
H73    O85     0.989   .     S
H74    O86     0.989   .     S
H75    O87     0.978   .     S
H76    O88     0.978   .     S
O96    H117    0.990   .     S
O96    C110    1.388   .     S
C97    O138    1.294   .     A
C97    C100    1.448   .     S
C97    O129    1.297   .     A
C98    C100    1.408   .     A
C98    C106    1.451   .     S
C98    C401    1.406   1_545 S
C99    C113    1.405   .     A
C99    C107    1.448   .     S
C99    C114    1.408   .     A
C100   C112    1.405   .     A
C101   O133    1.381   .     S
C101   N126    1.361   .     A
C101   C967    1.430   1_554 S
C102   O134    1.381   .     S
C102   N125    1.361   .     A
C102   C536    1.430   .     S
C103   N125    1.389   .     A
C103   O135    1.376   .     S
C103   C533    1.430   .     S
C104   N126    1.389   .     A
C104   O136    1.376   .     S
C104   C966    1.430   1_554 S
C105   N127    1.158   .     T
C105   C114    1.451   .     S
C106   N128    1.158   .     T
C107   O139    1.294   .     A
C107   O137    1.297   .     A
C108   O140    1.292   .     A
C108   O142    1.298   .     A
C108   C110    1.448   .     S
C109   O141    1.292   .     A
C109   C111    1.448   .     S
C109   O143    1.298   .     A
C111   C14     1.353   1_655 S
C111   O34     1.388   1_655 S
C112   O131    1.387   .     S
C112   C402    1.406   1_545 S
C113   O132    1.387   .     S
C113   C242    1.406   .     S
C114   C256    1.406   .     S
Cu115  O139    1.954   .     S
Cu115  Cu116   2.702   .     S
Cu115  O143    1.972   .     S
Cu115  N125    2.031   .     S
Cu115  O140    1.973   .     S
Cu115  O129    1.961   .     S
Cu116  O138    1.954   .     S
Cu116  O137    1.961   .     S
Cu116  N126    2.031   .     S
Cu116  O142    1.972   .     S
Cu116  O141    1.973   .     S
H118   O34     0.990   1_655 S
H119   O131    0.988   .     S
H120   O132    0.988   .     S
H121   O133    0.989   .     S
H122   O134    0.989   .     S
H123   O135    0.978   .     S
H124   O136    0.978   .     S
O144   H21     0.990   1_655 S
O144   C14     1.388   1_655 S
C145   O186    1.294   .     A
C145   C148    1.448   .     S
C145   O177    1.297   .     A
C146   C148    1.408   .     A
C146   C154    1.451   .     S
C147   C161    1.405   .     A
C147   C155    1.448   .     S
C147   C162    1.408   .     A
C148   C160    1.405   .     A
C149   O181    1.381   .     S
C149   N174    1.361   .     A
C149   C1015   1.430   1_554 S
C150   O182    1.381   .     S
C150   N173    1.361   .     A
C150   C584    1.430   .     S
C151   N173    1.389   .     A
C151   O183    1.376   .     S
C151   C581    1.430   .     S
C152   N174    1.389   .     A
C152   O184    1.376   .     S
C152   C1014   1.430   1_554 S
C153   N175    1.158   .     T
C153   C162    1.451   .     S
C154   N176    1.158   .     T
C155   O187    1.294   .     A
C155   O185    1.297   .     A
C156   O188    1.292   .     A
C156   O190    1.298   .     A
C156   C158    1.448   .     S
C157   O189    1.292   .     A
C157   C159    1.448   .     S
C157   O191    1.298   .     A
C158   C255    1.353   1_455 S
C158   O288    1.388   1_455 S
C159   C206    1.353   .     S
C159   O226    1.388   .     S
C160   O179    1.387   .     S
C161   O180    1.387   .     S
C161   C290    1.406   .     S
C162   C304    1.406   .     S
Cu163  O187    1.954   .     S
Cu163  Cu164   2.702   .     S
Cu163  O191    1.972   .     S
Cu163  N173    2.031   .     S
Cu163  O188    1.973   .     S
Cu163  O177    1.961   .     S
Cu164  O186    1.954   .     S
Cu164  O185    1.961   .     S
Cu164  N174    2.031   .     S
Cu164  O190    1.972   .     S
Cu164  O189    1.973   .     S
H165   O288    0.990   1_455 S
H166   O226    0.990   .     S
H167   O179    0.988   .     S
H168   O180    0.988   .     S
H169   O181    0.989   .     S
H170   O182    0.989   .     S
H171   O183    0.978   .     S
H172   O184    0.978   .     S
O178   H262    0.990   1_455 S
O178   C255    1.388   1_455 S
O192   H213    0.990   .     S
O192   C206    1.388   .     S
C193   O234    1.294   .     A
C193   C196    1.448   .     S
C193   O225    1.297   .     A
C194   C196    1.408   .     A
C194   C202    1.451   .     S
C195   C209    1.405   .     A
C195   C203    1.448   .     S
C195   C210    1.408   .     A
C196   C208    1.405   .     A
C197   O229    1.381   .     S
C197   N222    1.361   .     A
C197   C1063   1.430   1_554 S
C198   O230    1.381   .     S
C198   N221    1.361   .     A
C198   C632    1.430   .     S
C199   N221    1.389   .     A
C199   O231    1.376   .     S
C199   C629    1.430   .     S
C200   N222    1.389   .     A
C200   O232    1.376   .     S
C200   C1062   1.430   1_554 S
C201   N223    1.158   .     T
C201   C210    1.451   .     S
C202   N224    1.158   .     T
C203   O235    1.294   .     A
C203   O233    1.297   .     A
C204   O236    1.292   .     A
C204   O238    1.298   .     A
C204   C206    1.448   .     S
C205   O237    1.292   .     A
C205   C207    1.448   .     S
C205   O239    1.298   .     A
C207   C254    1.353   .     S
C207   O274    1.388   .     S
C208   O227    1.387   .     S
C209   O228    1.387   .     S
C209   C338    1.406   .     S
C210   C352    1.406   .     S
Cu211  O235    1.954   .     S
Cu211  Cu212   2.702   .     S
Cu211  O239    1.972   .     S
Cu211  N221    2.031   .     S
Cu211  O236    1.973   .     S
Cu211  O225    1.961   .     S
Cu212  O234    1.954   .     S
Cu212  O233    1.961   .     S
Cu212  N222    2.031   .     S
Cu212  O238    1.972   .     S
Cu212  O237    1.973   .     S
H214   O274    0.990   .     S
H215   O227    0.988   .     S
H216   O228    0.988   .     S
H217   O229    0.989   .     S
H218   O230    0.989   .     S
H219   O231    0.978   .     S
H220   O232    0.978   .     S
O240   H261    0.990   .     S
O240   C254    1.388   .     S
C241   O282    1.294   .     A
C241   C244    1.448   .     S
C241   O273    1.297   .     A
C242   C244    1.408   .     A
C242   C250    1.451   .     S
C243   C257    1.405   .     A
C243   C251    1.448   .     S
C243   C258    1.408   .     A
C244   C256    1.405   .     A
C245   O277    1.381   .     S
C245   N270    1.361   .     A
C245   C1111   1.430   1_554 S
C246   O278    1.381   .     S
C246   N269    1.361   .     A
C246   C680    1.430   .     S
C247   N269    1.389   .     A
C247   O279    1.376   .     S
C247   C677    1.430   .     S
C248   N270    1.389   .     A
C248   O280    1.376   .     S
C248   C1110   1.430   1_554 S
C249   N271    1.158   .     T
C249   C258    1.451   .     S
C250   N272    1.158   .     T
C251   O283    1.294   .     A
C251   O281    1.297   .     A
C252   O284    1.292   .     A
C252   O286    1.298   .     A
C252   C254    1.448   .     S
C253   O285    1.292   .     A
C253   C255    1.448   .     S
C253   O287    1.298   .     A
C255   C158    1.353   1_655 S
C255   O178    1.388   1_655 S
C256   O275    1.387   .     S
C257   O276    1.387   .     S
C257   C386    1.406   .     S
C258   C400    1.406   .     S
Cu259  O283    1.954   .     S
Cu259  Cu260   2.702   .     S
Cu259  O287    1.972   .     S
Cu259  N269    2.031   .     S
Cu259  O284    1.973   .     S
Cu259  O273    1.961   .     S
Cu260  O282    1.954   .     S
Cu260  O281    1.961   .     S
Cu260  N270    2.031   .     S
Cu260  O286    1.972   .     S
Cu260  O285    1.973   .     S
H262   O178    0.990   1_655 S
H263   O275    0.988   .     S
H264   O276    0.988   .     S
H265   O277    0.989   .     S
H266   O278    0.989   .     S
H267   O279    0.978   .     S
H268   O280    0.978   .     S
O288   H165    0.990   1_655 S
O288   C158    1.388   1_655 S
C289   O330    1.294   .     A
C289   C292    1.448   .     S
C289   O321    1.297   .     A
C290   C292    1.408   .     A
C290   C298    1.451   .     S
C291   C305    1.405   .     A
C291   C299    1.448   .     S
C291   C306    1.408   .     A
C292   C304    1.405   .     A
C293   O325    1.381   .     S
C293   N318    1.361   .     A
C293   C1159   1.430   1_554 S
C294   O326    1.381   .     S
C294   N317    1.361   .     A
C294   C728    1.430   .     S
C295   N317    1.389   .     A
C295   O327    1.376   .     S
C295   C725    1.430   .     S
C296   N318    1.389   .     A
C296   O328    1.376   .     S
C296   C1158   1.430   1_554 S
C297   N319    1.158   .     T
C297   C306    1.451   .     S
C298   N320    1.158   .     T
C299   O331    1.294   .     A
C299   O329    1.297   .     A
C300   O332    1.292   .     A
C300   O334    1.298   .     A
C300   C302    1.448   .     S
C301   O333    1.292   .     A
C301   C303    1.448   .     S
C301   O335    1.298   .     A
C302   C399    1.353   1_455 S
C302   O432    1.388   1_455 S
C303   C350    1.353   .     S
C303   O370    1.388   .     S
C304   O323    1.387   .     S
C305   O324    1.387   .     S
C305   C2      1.406   1_565 S
C306   C16     1.406   1_565 S
Cu307  O331    1.954   .     S
Cu307  Cu308   2.702   .     S
Cu307  O335    1.972   .     S
Cu307  N317    2.031   .     S
Cu307  O332    1.973   .     S
Cu307  O321    1.961   .     S
Cu308  O330    1.954   .     S
Cu308  O329    1.961   .     S
Cu308  N318    2.031   .     S
Cu308  O334    1.972   .     S
Cu308  O333    1.973   .     S
H309   O432    0.990   1_455 S
H310   O370    0.990   .     S
H311   O323    0.988   .     S
H312   O324    0.988   .     S
H313   O325    0.989   .     S
H314   O326    0.989   .     S
H315   O327    0.978   .     S
H316   O328    0.978   .     S
O322   H406    0.990   1_455 S
O322   C399    1.388   1_455 S
O336   H357    0.990   .     S
O336   C350    1.388   .     S
C337   O378    1.294   .     A
C337   C340    1.448   .     S
C337   O369    1.297   .     A
C338   C340    1.408   .     A
C338   C346    1.451   .     S
C339   C353    1.405   .     A
C339   C347    1.448   .     S
C339   C354    1.408   .     A
C340   C352    1.405   .     A
C341   O373    1.381   .     S
C341   N366    1.361   .     A
C341   C1207   1.430   1_554 S
C342   O374    1.381   .     S
C342   N365    1.361   .     A
C342   C776    1.430   .     S
C343   N365    1.389   .     A
C343   O375    1.376   .     S
C343   C773    1.430   .     S
C344   N366    1.389   .     A
C344   O376    1.376   .     S
C344   C1206   1.430   1_554 S
C345   N367    1.158   .     T
C345   C354    1.451   .     S
C346   N368    1.158   .     T
C347   O379    1.294   .     A
C347   O377    1.297   .     A
C348   O380    1.292   .     A
C348   O382    1.298   .     A
C348   C350    1.448   .     S
C349   O381    1.292   .     A
C349   C351    1.448   .     S
C349   O383    1.298   .     A
C351   C398    1.353   .     S
C351   O418    1.388   .     S
C352   O371    1.387   .     S
C353   O372    1.387   .     S
C353   C50     1.406   1_565 S
C354   C64     1.406   1_565 S
Cu355  O379    1.954   .     S
Cu355  Cu356   2.702   .     S
Cu355  O383    1.972   .     S
Cu355  N365    2.031   .     S
Cu355  O380    1.973   .     S
Cu355  O369    1.961   .     S
Cu356  O378    1.954   .     S
Cu356  O377    1.961   .     S
Cu356  N366    2.031   .     S
Cu356  O382    1.972   .     S
Cu356  O381    1.973   .     S
H358   O418    0.990   .     S
H359   O371    0.988   .     S
H360   O372    0.988   .     S
H361   O373    0.989   .     S
H362   O374    0.989   .     S
H363   O375    0.978   .     S
H364   O376    0.978   .     S
O384   H405    0.990   .     S
O384   C398    1.388   .     S
C385   O426    1.294   .     A
C385   C388    1.448   .     S
C385   O417    1.297   .     A
C386   C388    1.408   .     A
C386   C394    1.451   .     S
C387   C401    1.405   .     A
C387   C395    1.448   .     S
C387   C402    1.408   .     A
C388   C400    1.405   .     A
C389   O421    1.381   .     S
C389   N414    1.361   .     A
C389   C1255   1.430   1_554 S
C390   O422    1.381   .     S
C390   N413    1.361   .     A
C390   C824    1.430   .     S
C391   N413    1.389   .     A
C391   O423    1.376   .     S
C391   C821    1.430   .     S
C392   N414    1.389   .     A
C392   O424    1.376   .     S
C392   C1254   1.430   1_554 S
C393   N415    1.158   .     T
C393   C402    1.451   .     S
C394   N416    1.158   .     T
C395   O427    1.294   .     A
C395   O425    1.297   .     A
C396   O428    1.292   .     A
C396   O430    1.298   .     A
C396   C398    1.448   .     S
C397   O429    1.292   .     A
C397   C399    1.448   .     S
C397   O431    1.298   .     A
C399   C302    1.353   1_655 S
C399   O322    1.388   1_655 S
C400   O419    1.387   .     S
C401   O420    1.387   .     S
C401   C98     1.406   1_565 S
C402   C112    1.406   1_565 S
Cu403  O427    1.954   .     S
Cu403  Cu404   2.702   .     S
Cu403  O431    1.972   .     S
Cu403  N413    2.031   .     S
Cu403  O428    1.973   .     S
Cu403  O417    1.961   .     S
Cu404  O426    1.954   .     S
Cu404  O425    1.961   .     S
Cu404  N414    2.031   .     S
Cu404  O430    1.972   .     S
Cu404  O429    1.973   .     S
H406   O322    0.990   1_655 S
H407   O419    0.988   .     S
H408   O420    0.988   .     S
H409   O421    0.989   .     S
H410   O422    0.989   .     S
H411   O423    0.978   .     S
H412   O424    0.978   .     S
O432   H309    0.990   1_655 S
O432   C302    1.388   1_655 S
C433   O474    1.294   .     A
C433   C436    1.448   .     S
C433   O465    1.297   .     A
C434   C436    1.408   .     A
C434   C442    1.451   .     S
C434   C737    1.406   1_545 S
C435   C449    1.405   .     A
C435   C443    1.448   .     S
C435   C450    1.408   .     A
C436   C448    1.405   .     A
C437   O469    1.381   .     S
C437   N462    1.361   .     A
C438   O470    1.381   .     S
C438   N461    1.361   .     A
C438   C872    1.430   .     S
C439   N461    1.389   .     A
C439   O471    1.376   .     S
C439   C869    1.430   .     S
C440   N462    1.389   .     A
C440   O472    1.376   .     S
C441   N463    1.158   .     T
C441   C450    1.451   .     S
C442   N464    1.158   .     T
C443   O475    1.294   .     A
C443   O473    1.297   .     A
C444   O476    1.292   .     A
C444   O478    1.298   .     A
C444   C446    1.448   .     S
C445   O477    1.292   .     A
C445   C447    1.448   .     S
C445   O479    1.298   .     A
C446   C543    1.353   1_455 S
C446   O576    1.388   1_455 S
C447   C494    1.353   .     S
C447   O514    1.388   .     S
C448   O467    1.387   .     S
C448   C738    1.406   1_545 S
C449   O468    1.387   .     S
C449   C578    1.406   .     S
C450   C592    1.406   .     S
Cu451  O475    1.954   .     S
Cu451  Cu452   2.702   .     S
Cu451  O479    1.972   .     S
Cu451  N461    2.031   .     S
Cu451  O476    1.973   .     S
Cu451  O465    1.961   .     S
Cu452  O474    1.954   .     S
Cu452  O473    1.961   .     S
Cu452  N462    2.031   .     S
Cu452  O478    1.972   .     S
Cu452  O477    1.973   .     S
H453   O576    0.990   1_455 S
H454   O514    0.990   .     S
H455   O467    0.988   .     S
H456   O468    0.988   .     S
H457   O469    0.989   .     S
H458   O470    0.989   .     S
H459   O471    0.978   .     S
H460   O472    0.978   .     S
O466   H550    0.990   1_455 S
O466   C543    1.388   1_455 S
O480   H501    0.990   .     S
O480   C494    1.388   .     S
C481   O522    1.294   .     A
C481   C484    1.448   .     S
C481   O513    1.297   .     A
C482   C484    1.408   .     A
C482   C490    1.451   .     S
C482   C785    1.406   1_545 S
C483   C497    1.405   .     A
C483   C491    1.448   .     S
C483   C498    1.408   .     A
C484   C496    1.405   .     A
C485   O517    1.381   .     S
C485   N510    1.361   .     A
C486   O518    1.381   .     S
C486   N509    1.361   .     A
C486   C920    1.430   .     S
C487   N509    1.389   .     A
C487   O519    1.376   .     S
C487   C917    1.430   .     S
C488   N510    1.389   .     A
C488   O520    1.376   .     S
C489   N511    1.158   .     T
C489   C498    1.451   .     S
C490   N512    1.158   .     T
C491   O523    1.294   .     A
C491   O521    1.297   .     A
C492   O524    1.292   .     A
C492   O526    1.298   .     A
C492   C494    1.448   .     S
C493   O525    1.292   .     A
C493   C495    1.448   .     S
C493   O527    1.298   .     A
C495   C542    1.353   .     S
C495   O562    1.388   .     S
C496   O515    1.387   .     S
C496   C786    1.406   1_545 S
C497   O516    1.387   .     S
C497   C626    1.406   .     S
C498   C640    1.406   .     S
Cu499  O523    1.954   .     S
Cu499  Cu500   2.702   .     S
Cu499  O527    1.972   .     S
Cu499  N509    2.031   .     S
Cu499  O524    1.973   .     S
Cu499  O513    1.961   .     S
Cu500  O522    1.954   .     S
Cu500  O521    1.961   .     S
Cu500  N510    2.031   .     S
Cu500  O526    1.972   .     S
Cu500  O525    1.973   .     S
H502   O562    0.990   .     S
H503   O515    0.988   .     S
H504   O516    0.988   .     S
H505   O517    0.989   .     S
H506   O518    0.989   .     S
H507   O519    0.978   .     S
H508   O520    0.978   .     S
O528   H549    0.990   .     S
O528   C542    1.388   .     S
C529   O570    1.294   .     A
C529   C532    1.448   .     S
C529   O561    1.297   .     A
C530   C532    1.408   .     A
C530   C538    1.451   .     S
C530   C833    1.406   1_545 S
C531   C545    1.405   .     A
C531   C539    1.448   .     S
C531   C546    1.408   .     A
C532   C544    1.405   .     A
C533   O565    1.381   .     S
C533   N558    1.361   .     A
C534   O566    1.381   .     S
C534   N557    1.361   .     A
C534   C968    1.430   .     S
C535   N557    1.389   .     A
C535   O567    1.376   .     S
C535   C965    1.430   .     S
C536   N558    1.389   .     A
C536   O568    1.376   .     S
C537   N559    1.158   .     T
C537   C546    1.451   .     S
C538   N560    1.158   .     T
C539   O571    1.294   .     A
C539   O569    1.297   .     A
C540   O572    1.292   .     A
C540   O574    1.298   .     A
C540   C542    1.448   .     S
C541   O573    1.292   .     A
C541   C543    1.448   .     S
C541   O575    1.298   .     A
C543   C446    1.353   1_655 S
C543   O466    1.388   1_655 S
C544   O563    1.387   .     S
C544   C834    1.406   1_545 S
C545   O564    1.387   .     S
C545   C674    1.406   .     S
C546   C688    1.406   .     S
Cu547  O571    1.954   .     S
Cu547  Cu548   2.702   .     S
Cu547  O575    1.972   .     S
Cu547  N557    2.031   .     S
Cu547  O572    1.973   .     S
Cu547  O561    1.961   .     S
Cu548  O570    1.954   .     S
Cu548  O569    1.961   .     S
Cu548  N558    2.031   .     S
Cu548  O574    1.972   .     S
Cu548  O573    1.973   .     S
H550   O466    0.990   1_655 S
H551   O563    0.988   .     S
H552   O564    0.988   .     S
H553   O565    0.989   .     S
H554   O566    0.989   .     S
H555   O567    0.978   .     S
H556   O568    0.978   .     S
O576   H453    0.990   1_655 S
O576   C446    1.388   1_655 S
C577   O618    1.294   .     A
C577   C580    1.448   .     S
C577   O609    1.297   .     A
C578   C580    1.408   .     A
C578   C586    1.451   .     S
C579   C593    1.405   .     A
C579   C587    1.448   .     S
C579   C594    1.408   .     A
C580   C592    1.405   .     A
C581   O613    1.381   .     S
C581   N606    1.361   .     A
C582   O614    1.381   .     S
C582   N605    1.361   .     A
C582   C1016   1.430   .     S
C583   N605    1.389   .     A
C583   O615    1.376   .     S
C583   C1013   1.430   .     S
C584   N606    1.389   .     A
C584   O616    1.376   .     S
C585   N607    1.158   .     T
C585   C594    1.451   .     S
C586   N608    1.158   .     T
C587   O619    1.294   .     A
C587   O617    1.297   .     A
C588   O620    1.292   .     A
C588   O622    1.298   .     A
C588   C590    1.448   .     S
C589   O621    1.292   .     A
C589   C591    1.448   .     S
C589   O623    1.298   .     A
C590   C687    1.353   1_455 S
C590   O720    1.388   1_455 S
C591   C638    1.353   .     S
C591   O658    1.388   .     S
C592   O611    1.387   .     S
C593   O612    1.387   .     S
C593   C722    1.406   .     S
C594   C736    1.406   .     S
Cu595  O619    1.954   .     S
Cu595  Cu596   2.702   .     S
Cu595  O623    1.972   .     S
Cu595  N605    2.031   .     S
Cu595  O620    1.973   .     S
Cu595  O609    1.961   .     S
Cu596  O618    1.954   .     S
Cu596  O617    1.961   .     S
Cu596  N606    2.031   .     S
Cu596  O622    1.972   .     S
Cu596  O621    1.973   .     S
H597   O720    0.990   1_455 S
H598   O658    0.990   .     S
H599   O611    0.988   .     S
H600   O612    0.988   .     S
H601   O613    0.989   .     S
H602   O614    0.989   .     S
H603   O615    0.978   .     S
H604   O616    0.978   .     S
O610   H694    0.990   1_455 S
O610   C687    1.388   1_455 S
O624   H645    0.990   .     S
O624   C638    1.388   .     S
C625   O666    1.294   .     A
C625   C628    1.448   .     S
C625   O657    1.297   .     A
C626   C628    1.408   .     A
C626   C634    1.451   .     S
C627   C641    1.405   .     A
C627   C635    1.448   .     S
C627   C642    1.408   .     A
C628   C640    1.405   .     A
C629   O661    1.381   .     S
C629   N654    1.361   .     A
C630   O662    1.381   .     S
C630   N653    1.361   .     A
C630   C1064   1.430   .     S
C631   N653    1.389   .     A
C631   O663    1.376   .     S
C631   C1061   1.430   .     S
C632   N654    1.389   .     A
C632   O664    1.376   .     S
C633   N655    1.158   .     T
C633   C642    1.451   .     S
C634   N656    1.158   .     T
C635   O667    1.294   .     A
C635   O665    1.297   .     A
C636   O668    1.292   .     A
C636   O670    1.298   .     A
C636   C638    1.448   .     S
C637   O669    1.292   .     A
C637   C639    1.448   .     S
C637   O671    1.298   .     A
C639   C686    1.353   .     S
C639   O706    1.388   .     S
C640   O659    1.387   .     S
C641   O660    1.387   .     S
C641   C770    1.406   .     S
C642   C784    1.406   .     S
Cu643  O667    1.954   .     S
Cu643  Cu644   2.702   .     S
Cu643  O671    1.972   .     S
Cu643  N653    2.031   .     S
Cu643  O668    1.973   .     S
Cu643  O657    1.961   .     S
Cu644  O666    1.954   .     S
Cu644  O665    1.961   .     S
Cu644  N654    2.031   .     S
Cu644  O670    1.972   .     S
Cu644  O669    1.973   .     S
H646   O706    0.990   .     S
H647   O659    0.988   .     S
H648   O660    0.988   .     S
H649   O661    0.989   .     S
H650   O662    0.989   .     S
H651   O663    0.978   .     S
H652   O664    0.978   .     S
O672   H693    0.990   .     S
O672   C686    1.388   .     S
C673   O714    1.294   .     A
C673   C676    1.448   .     S
C673   O705    1.297   .     A
C674   C676    1.408   .     A
C674   C682    1.451   .     S
C675   C689    1.405   .     A
C675   C683    1.448   .     S
C675   C690    1.408   .     A
C676   C688    1.405   .     A
C677   O709    1.381   .     S
C677   N702    1.361   .     A
C678   O710    1.381   .     S
C678   N701    1.361   .     A
C678   C1112   1.430   .     S
C679   N701    1.389   .     A
C679   O711    1.376   .     S
C679   C1109   1.430   .     S
C680   N702    1.389   .     A
C680   O712    1.376   .     S
C681   N703    1.158   .     T
C681   C690    1.451   .     S
C682   N704    1.158   .     T
C683   O715    1.294   .     A
C683   O713    1.297   .     A
C684   O716    1.292   .     A
C684   O718    1.298   .     A
C684   C686    1.448   .     S
C685   O717    1.292   .     A
C685   C687    1.448   .     S
C685   O719    1.298   .     A
C687   C590    1.353   1_655 S
C687   O610    1.388   1_655 S
C688   O707    1.387   .     S
C689   O708    1.387   .     S
C689   C818    1.406   .     S
C690   C832    1.406   .     S
Cu691  O715    1.954   .     S
Cu691  Cu692   2.702   .     S
Cu691  O719    1.972   .     S
Cu691  N701    2.031   .     S
Cu691  O716    1.973   .     S
Cu691  O705    1.961   .     S
Cu692  O714    1.954   .     S
Cu692  O713    1.961   .     S
Cu692  N702    2.031   .     S
Cu692  O718    1.972   .     S
Cu692  O717    1.973   .     S
H694   O610    0.990   1_655 S
H695   O707    0.988   .     S
H696   O708    0.988   .     S
H697   O709    0.989   .     S
H698   O710    0.989   .     S
H699   O711    0.978   .     S
H700   O712    0.978   .     S
O720   H597    0.990   1_655 S
O720   C590    1.388   1_655 S
C721   O762    1.294   .     A
C721   C724    1.448   .     S
C721   O753    1.297   .     A
C722   C724    1.408   .     A
C722   C730    1.451   .     S
C723   C737    1.405   .     A
C723   C731    1.448   .     S
C723   C738    1.408   .     A
C724   C736    1.405   .     A
C725   O757    1.381   .     S
C725   N750    1.361   .     A
C726   O758    1.381   .     S
C726   N749    1.361   .     A
C726   C1160   1.430   .     S
C727   N749    1.389   .     A
C727   O759    1.376   .     S
C727   C1157   1.430   .     S
C728   N750    1.389   .     A
C728   O760    1.376   .     S
C729   N751    1.158   .     T
C729   C738    1.451   .     S
C730   N752    1.158   .     T
C731   O763    1.294   .     A
C731   O761    1.297   .     A
C732   O764    1.292   .     A
C732   O766    1.298   .     A
C732   C734    1.448   .     S
C733   O765    1.292   .     A
C733   C735    1.448   .     S
C733   O767    1.298   .     A
C734   C831    1.353   1_455 S
C734   O864    1.388   1_455 S
C735   C782    1.353   .     S
C735   O802    1.388   .     S
C736   O755    1.387   .     S
C737   O756    1.387   .     S
C737   C434    1.406   1_565 S
C738   C448    1.406   1_565 S
Cu739  O763    1.954   .     S
Cu739  Cu740   2.702   .     S
Cu739  O767    1.972   .     S
Cu739  N749    2.031   .     S
Cu739  O764    1.973   .     S
Cu739  O753    1.961   .     S
Cu740  O762    1.954   .     S
Cu740  O761    1.961   .     S
Cu740  N750    2.031   .     S
Cu740  O766    1.972   .     S
Cu740  O765    1.973   .     S
H741   O864    0.990   1_455 S
H742   O802    0.990   .     S
H743   O755    0.988   .     S
H744   O756    0.988   .     S
H745   O757    0.989   .     S
H746   O758    0.989   .     S
H747   O759    0.978   .     S
H748   O760    0.978   .     S
O754   H838    0.990   1_455 S
O754   C831    1.388   1_455 S
O768   H789    0.990   .     S
O768   C782    1.388   .     S
C769   O810    1.294   .     A
C769   C772    1.448   .     S
C769   O801    1.297   .     A
C770   C772    1.408   .     A
C770   C778    1.451   .     S
C771   C785    1.405   .     A
C771   C779    1.448   .     S
C771   C786    1.408   .     A
C772   C784    1.405   .     A
C773   O805    1.381   .     S
C773   N798    1.361   .     A
C774   O806    1.381   .     S
C774   N797    1.361   .     A
C774   C1208   1.430   .     S
C775   N797    1.389   .     A
C775   O807    1.376   .     S
C775   C1205   1.430   .     S
C776   N798    1.389   .     A
C776   O808    1.376   .     S
C777   N799    1.158   .     T
C777   C786    1.451   .     S
C778   N800    1.158   .     T
C779   O811    1.294   .     A
C779   O809    1.297   .     A
C780   O812    1.292   .     A
C780   O814    1.298   .     A
C780   C782    1.448   .     S
C781   O813    1.292   .     A
C781   C783    1.448   .     S
C781   O815    1.298   .     A
C783   C830    1.353   .     S
C783   O850    1.388   .     S
C784   O803    1.387   .     S
C785   O804    1.387   .     S
C785   C482    1.406   1_565 S
C786   C496    1.406   1_565 S
Cu787  O811    1.954   .     S
Cu787  Cu788   2.702   .     S
Cu787  O815    1.972   .     S
Cu787  N797    2.031   .     S
Cu787  O812    1.973   .     S
Cu787  O801    1.961   .     S
Cu788  O810    1.954   .     S
Cu788  O809    1.961   .     S
Cu788  N798    2.031   .     S
Cu788  O814    1.972   .     S
Cu788  O813    1.973   .     S
H790   O850    0.990   .     S
H791   O803    0.988   .     S
H792   O804    0.988   .     S
H793   O805    0.989   .     S
H794   O806    0.989   .     S
H795   O807    0.978   .     S
H796   O808    0.978   .     S
O816   H837    0.990   .     S
O816   C830    1.388   .     S
C817   O858    1.294   .     A
C817   C820    1.448   .     S
C817   O849    1.297   .     A
C818   C820    1.408   .     A
C818   C826    1.451   .     S
C819   C833    1.405   .     A
C819   C827    1.448   .     S
C819   C834    1.408   .     A
C820   C832    1.405   .     A
C821   O853    1.381   .     S
C821   N846    1.361   .     A
C822   O854    1.381   .     S
C822   N845    1.361   .     A
C822   C1256   1.430   .     S
C823   N845    1.389   .     A
C823   O855    1.376   .     S
C823   C1253   1.430   .     S
C824   N846    1.389   .     A
C824   O856    1.376   .     S
C825   N847    1.158   .     T
C825   C834    1.451   .     S
C826   N848    1.158   .     T
C827   O859    1.294   .     A
C827   O857    1.297   .     A
C828   O860    1.292   .     A
C828   O862    1.298   .     A
C828   C830    1.448   .     S
C829   O861    1.292   .     A
C829   C831    1.448   .     S
C829   O863    1.298   .     A
C831   C734    1.353   1_655 S
C831   O754    1.388   1_655 S
C832   O851    1.387   .     S
C833   O852    1.387   .     S
C833   C530    1.406   1_565 S
C834   C544    1.406   1_565 S
Cu835  O859    1.954   .     S
Cu835  Cu836   2.702   .     S
Cu835  O863    1.972   .     S
Cu835  N845    2.031   .     S
Cu835  O860    1.973   .     S
Cu835  O849    1.961   .     S
Cu836  O858    1.954   .     S
Cu836  O857    1.961   .     S
Cu836  N846    2.031   .     S
Cu836  O862    1.972   .     S
Cu836  O861    1.973   .     S
H838   O754    0.990   1_655 S
H839   O851    0.988   .     S
H840   O852    0.988   .     S
H841   O853    0.989   .     S
H842   O854    0.989   .     S
H843   O855    0.978   .     S
H844   O856    0.978   .     S
O864   H741    0.990   1_655 S
O864   C734    1.388   1_655 S
C865   O906    1.294   .     A
C865   C868    1.448   .     S
C865   O897    1.297   .     A
C866   C868    1.408   .     A
C866   C874    1.451   .     S
C866   C1169   1.406   1_545 S
C867   C881    1.405   .     A
C867   C875    1.448   .     S
C867   C882    1.408   .     A
C868   C880    1.405   .     A
C869   O901    1.381   .     S
C869   N894    1.361   .     A
C870   O902    1.381   .     S
C870   N893    1.361   .     A
C870   C8      1.430   1_556 S
C871   N893    1.389   .     A
C871   O903    1.376   .     S
C871   C5      1.430   1_556 S
C872   N894    1.389   .     A
C872   O904    1.376   .     S
C873   N895    1.158   .     T
C873   C882    1.451   .     S
C874   N896    1.158   .     T
C875   O907    1.294   .     A
C875   O905    1.297   .     A
C876   O908    1.292   .     A
C876   O910    1.298   .     A
C876   C878    1.448   .     S
C877   O909    1.292   .     A
C877   C879    1.448   .     S
C877   O911    1.298   .     A
C878   C975    1.353   1_455 S
C878   O1008   1.388   1_455 S
C879   C926    1.353   .     S
C879   O946    1.388   .     S
C880   O899    1.387   .     S
C880   C1170   1.406   1_545 S
C881   O900    1.387   .     S
C881   C1010   1.406   .     S
C882   C1024   1.406   .     S
Cu883  O907    1.954   .     S
Cu883  Cu884   2.702   .     S
Cu883  O911    1.972   .     S
Cu883  N893    2.031   .     S
Cu883  O908    1.973   .     S
Cu883  O897    1.961   .     S
Cu884  O906    1.954   .     S
Cu884  O905    1.961   .     S
Cu884  N894    2.031   .     S
Cu884  O910    1.972   .     S
Cu884  O909    1.973   .     S
H885   O1008   0.990   1_455 S
H886   O946    0.990   .     S
H887   O899    0.988   .     S
H888   O900    0.988   .     S
H889   O901    0.989   .     S
H890   O902    0.989   .     S
H891   O903    0.978   .     S
H892   O904    0.978   .     S
O898   H982    0.990   1_455 S
O898   C975    1.388   1_455 S
O912   H933    0.990   .     S
O912   C926    1.388   .     S
C913   O954    1.294   .     A
C913   C916    1.448   .     S
C913   O945    1.297   .     A
C914   C916    1.408   .     A
C914   C922    1.451   .     S
C914   C1217   1.406   1_545 S
C915   C929    1.405   .     A
C915   C923    1.448   .     S
C915   C930    1.408   .     A
C916   C928    1.405   .     A
C917   O949    1.381   .     S
C917   N942    1.361   .     A
C918   O950    1.381   .     S
C918   N941    1.361   .     A
C918   C56     1.430   1_556 S
C919   N941    1.389   .     A
C919   O951    1.376   .     S
C919   C53     1.430   1_556 S
C920   N942    1.389   .     A
C920   O952    1.376   .     S
C921   N943    1.158   .     T
C921   C930    1.451   .     S
C922   N944    1.158   .     T
C923   O955    1.294   .     A
C923   O953    1.297   .     A
C924   O956    1.292   .     A
C924   O958    1.298   .     A
C924   C926    1.448   .     S
C925   O957    1.292   .     A
C925   C927    1.448   .     S
C925   O959    1.298   .     A
C927   C974    1.353   .     S
C927   O994    1.388   .     S
C928   O947    1.387   .     S
C928   C1218   1.406   1_545 S
C929   O948    1.387   .     S
C929   C1058   1.406   .     S
C930   C1072   1.406   .     S
Cu931  O955    1.954   .     S
Cu931  Cu932   2.702   .     S
Cu931  O959    1.972   .     S
Cu931  N941    2.031   .     S
Cu931  O956    1.973   .     S
Cu931  O945    1.961   .     S
Cu932  O954    1.954   .     S
Cu932  O953    1.961   .     S
Cu932  N942    2.031   .     S
Cu932  O958    1.972   .     S
Cu932  O957    1.973   .     S
H934   O994    0.990   .     S
H935   O947    0.988   .     S
H936   O948    0.988   .     S
H937   O949    0.989   .     S
H938   O950    0.989   .     S
H939   O951    0.978   .     S
H940   O952    0.978   .     S
O960   H981    0.990   .     S
O960   C974    1.388   .     S
C961   O1002   1.294   .     A
C961   C964    1.448   .     S
C961   O993    1.297   .     A
C962   C964    1.408   .     A
C962   C970    1.451   .     S
C962   C1265   1.406   1_545 S
C963   C977    1.405   .     A
C963   C971    1.448   .     S
C963   C978    1.408   .     A
C964   C976    1.405   .     A
C965   O997    1.381   .     S
C965   N990    1.361   .     A
C966   O998    1.381   .     S
C966   N989    1.361   .     A
C966   C104    1.430   1_556 S
C967   N989    1.389   .     A
C967   O999    1.376   .     S
C967   C101    1.430   1_556 S
C968   N990    1.389   .     A
C968   O1000   1.376   .     S
C969   N991    1.158   .     T
C969   C978    1.451   .     S
C970   N992    1.158   .     T
C971   O1003   1.294   .     A
C971   O1001   1.297   .     A
C972   O1004   1.292   .     A
C972   O1006   1.298   .     A
C972   C974    1.448   .     S
C973   O1005   1.292   .     A
C973   C975    1.448   .     S
C973   O1007   1.298   .     A
C975   C878    1.353   1_655 S
C975   O898    1.388   1_655 S
C976   O995    1.387   .     S
C976   C1266   1.406   1_545 S
C977   O996    1.387   .     S
C977   C1106   1.406   .     S
C978   C1120   1.406   .     S
Cu979  O1003   1.954   .     S
Cu979  Cu980   2.702   .     S
Cu979  O1007   1.972   .     S
Cu979  N989    2.031   .     S
Cu979  O1004   1.973   .     S
Cu979  O993    1.961   .     S
Cu980  O1002   1.954   .     S
Cu980  O1001   1.961   .     S
Cu980  N990    2.031   .     S
Cu980  O1006   1.972   .     S
Cu980  O1005   1.973   .     S
H982   O898    0.990   1_655 S
H983   O995    0.988   .     S
H984   O996    0.988   .     S
H985   O997    0.989   .     S
H986   O998    0.989   .     S
H987   O999    0.978   .     S
H988   O1000   0.978   .     S
O1008  H885    0.990   1_655 S
O1008  C878    1.388   1_655 S
C1009  O1050   1.294   .     A
C1009  C1012   1.448   .     S
C1009  O1041   1.297   .     A
C1010  C1012   1.408   .     A
C1010  C1018   1.451   .     S
C1011  C1025   1.405   .     A
C1011  C1019   1.448   .     S
C1011  C1026   1.408   .     A
C1012  C1024   1.405   .     A
C1013  O1045   1.381   .     S
C1013  N1038   1.361   .     A
C1014  O1046   1.381   .     S
C1014  N1037   1.361   .     A
C1014  C152    1.430   1_556 S
C1015  N1037   1.389   .     A
C1015  O1047   1.376   .     S
C1015  C149    1.430   1_556 S
C1016  N1038   1.389   .     A
C1016  O1048   1.376   .     S
C1017  N1039   1.158   .     T
C1017  C1026   1.451   .     S
C1018  N1040   1.158   .     T
C1019  O1051   1.294   .     A
C1019  O1049   1.297   .     A
C1020  O1052   1.292   .     A
C1020  O1054   1.298   .     A
C1020  C1022   1.448   .     S
C1021  O1053   1.292   .     A
C1021  C1023   1.448   .     S
C1021  O1055   1.298   .     A
C1022  C1119   1.353   1_455 S
C1022  O1152   1.388   1_455 S
C1023  C1070   1.353   .     S
C1023  O1090   1.388   .     S
C1024  O1043   1.387   .     S
C1025  O1044   1.387   .     S
C1025  C1154   1.406   .     S
C1026  C1168   1.406   .     S
Cu1027 O1051   1.954   .     S
Cu1027 Cu1028  2.702   .     S
Cu1027 O1055   1.972   .     S
Cu1027 N1037   2.031   .     S
Cu1027 O1052   1.973   .     S
Cu1027 O1041   1.961   .     S
Cu1028 O1050   1.954   .     S
Cu1028 O1049   1.961   .     S
Cu1028 N1038   2.031   .     S
Cu1028 O1054   1.972   .     S
Cu1028 O1053   1.973   .     S
H1029  O1152   0.990   1_455 S
H1030  O1090   0.990   .     S
H1031  O1043   0.988   .     S
H1032  O1044   0.988   .     S
H1033  O1045   0.989   .     S
H1034  O1046   0.989   .     S
H1035  O1047   0.978   .     S
H1036  O1048   0.978   .     S
O1042  H1126   0.990   1_455 S
O1042  C1119   1.388   1_455 S
O1056  H1077   0.990   .     S
O1056  C1070   1.388   .     S
C1057  O1098   1.294   .     A
C1057  C1060   1.448   .     S
C1057  O1089   1.297   .     A
C1058  C1060   1.408   .     A
C1058  C1066   1.451   .     S
C1059  C1073   1.405   .     A
C1059  C1067   1.448   .     S
C1059  C1074   1.408   .     A
C1060  C1072   1.405   .     A
C1061  O1093   1.381   .     S
C1061  N1086   1.361   .     A
C1062  O1094   1.381   .     S
C1062  N1085   1.361   .     A
C1062  C200    1.430   1_556 S
C1063  N1085   1.389   .     A
C1063  O1095   1.376   .     S
C1063  C197    1.430   1_556 S
C1064  N1086   1.389   .     A
C1064  O1096   1.376   .     S
C1065  N1087   1.158   .     T
C1065  C1074   1.451   .     S
C1066  N1088   1.158   .     T
C1067  O1099   1.294   .     A
C1067  O1097   1.297   .     A
C1068  O1100   1.292   .     A
C1068  O1102   1.298   .     A
C1068  C1070   1.448   .     S
C1069  O1101   1.292   .     A
C1069  C1071   1.448   .     S
C1069  O1103   1.298   .     A
C1071  C1118   1.353   .     S
C1071  O1138   1.388   .     S
C1072  O1091   1.387   .     S
C1073  O1092   1.387   .     S
C1073  C1202   1.406   .     S
C1074  C1216   1.406   .     S
Cu1075 O1099   1.954   .     S
Cu1075 Cu1076  2.702   .     S
Cu1075 O1103   1.972   .     S
Cu1075 N1085   2.031   .     S
Cu1075 O1100   1.973   .     S
Cu1075 O1089   1.961   .     S
Cu1076 O1098   1.954   .     S
Cu1076 O1097   1.961   .     S
Cu1076 N1086   2.031   .     S
Cu1076 O1102   1.972   .     S
Cu1076 O1101   1.973   .     S
H1078  O1138   0.990   .     S
H1079  O1091   0.988   .     S
H1080  O1092   0.988   .     S
H1081  O1093   0.989   .     S
H1082  O1094   0.989   .     S
H1083  O1095   0.978   .     S
H1084  O1096   0.978   .     S
O1104  H1125   0.990   .     S
O1104  C1118   1.388   .     S
C1105  O1146   1.294   .     A
C1105  C1108   1.448   .     S
C1105  O1137   1.297   .     A
C1106  C1108   1.408   .     A
C1106  C1114   1.451   .     S
C1107  C1121   1.405   .     A
C1107  C1115   1.448   .     S
C1107  C1122   1.408   .     A
C1108  C1120   1.405   .     A
C1109  O1141   1.381   .     S
C1109  N1134   1.361   .     A
C1110  O1142   1.381   .     S
C1110  N1133   1.361   .     A
C1110  C248    1.430   1_556 S
C1111  N1133   1.389   .     A
C1111  O1143   1.376   .     S
C1111  C245    1.430   1_556 S
C1112  N1134   1.389   .     A
C1112  O1144   1.376   .     S
C1113  N1135   1.158   .     T
C1113  C1122   1.451   .     S
C1114  N1136   1.158   .     T
C1115  O1147   1.294   .     A
C1115  O1145   1.297   .     A
C1116  O1148   1.292   .     A
C1116  O1150   1.298   .     A
C1116  C1118   1.448   .     S
C1117  O1149   1.292   .     A
C1117  C1119   1.448   .     S
C1117  O1151   1.298   .     A
C1119  C1022   1.353   1_655 S
C1119  O1042   1.388   1_655 S
C1120  O1139   1.387   .     S
C1121  O1140   1.387   .     S
C1121  C1250   1.406   .     S
C1122  C1264   1.406   .     S
Cu1123 O1147   1.954   .     S
Cu1123 Cu1124  2.702   .     S
Cu1123 O1151   1.972   .     S
Cu1123 N1133   2.031   .     S
Cu1123 O1148   1.973   .     S
Cu1123 O1137   1.961   .     S
Cu1124 O1146   1.954   .     S
Cu1124 O1145   1.961   .     S
Cu1124 N1134   2.031   .     S
Cu1124 O1150   1.972   .     S
Cu1124 O1149   1.973   .     S
H1126  O1042   0.990   1_655 S
H1127  O1139   0.988   .     S
H1128  O1140   0.988   .     S
H1129  O1141   0.989   .     S
H1130  O1142   0.989   .     S
H1131  O1143   0.978   .     S
H1132  O1144   0.978   .     S
O1152  H1029   0.990   1_655 S
O1152  C1022   1.388   1_655 S
C1153  O1194   1.294   .     A
C1153  C1156   1.448   .     S
C1153  O1185   1.297   .     A
C1154  C1156   1.408   .     A
C1154  C1162   1.451   .     S
C1155  C1169   1.405   .     A
C1155  C1163   1.448   .     S
C1155  C1170   1.408   .     A
C1156  C1168   1.405   .     A
C1157  O1189   1.381   .     S
C1157  N1182   1.361   .     A
C1158  O1190   1.381   .     S
C1158  N1181   1.361   .     A
C1158  C296    1.430   1_556 S
C1159  N1181   1.389   .     A
C1159  O1191   1.376   .     S
C1159  C293    1.430   1_556 S
C1160  N1182   1.389   .     A
C1160  O1192   1.376   .     S
C1161  N1183   1.158   .     T
C1161  C1170   1.451   .     S
C1162  N1184   1.158   .     T
C1163  O1195   1.294   .     A
C1163  O1193   1.297   .     A
C1164  O1196   1.292   .     A
C1164  O1198   1.298   .     A
C1164  C1166   1.448   .     S
C1165  O1197   1.292   .     A
C1165  C1167   1.448   .     S
C1165  O1199   1.298   .     A
C1166  C1263   1.353   1_455 S
C1166  O1296   1.388   1_455 S
C1167  C1214   1.353   .     S
C1167  O1234   1.388   .     S
C1168  O1187   1.387   .     S
C1169  O1188   1.387   .     S
C1169  C866    1.406   1_565 S
C1170  C880    1.406   1_565 S
Cu1171 O1195   1.954   .     S
Cu1171 Cu1172  2.702   .     S
Cu1171 O1199   1.972   .     S
Cu1171 N1181   2.031   .     S
Cu1171 O1196   1.973   .     S
Cu1171 O1185   1.961   .     S
Cu1172 O1194   1.954   .     S
Cu1172 O1193   1.961   .     S
Cu1172 N1182   2.031   .     S
Cu1172 O1198   1.972   .     S
Cu1172 O1197   1.973   .     S
H1173  O1296   0.990   1_455 S
H1174  O1234   0.990   .     S
H1175  O1187   0.988   .     S
H1176  O1188   0.988   .     S
H1177  O1189   0.989   .     S
H1178  O1190   0.989   .     S
H1179  O1191   0.978   .     S
H1180  O1192   0.978   .     S
O1186  H1270   0.990   1_455 S
O1186  C1263   1.388   1_455 S
O1200  H1221   0.990   .     S
O1200  C1214   1.388   .     S
C1201  O1242   1.294   .     A
C1201  C1204   1.448   .     S
C1201  O1233   1.297   .     A
C1202  C1204   1.408   .     A
C1202  C1210   1.451   .     S
C1203  C1217   1.405   .     A
C1203  C1211   1.448   .     S
C1203  C1218   1.408   .     A
C1204  C1216   1.405   .     A
C1205  O1237   1.381   .     S
C1205  N1230   1.361   .     A
C1206  O1238   1.381   .     S
C1206  N1229   1.361   .     A
C1206  C344    1.430   1_556 S
C1207  N1229   1.389   .     A
C1207  O1239   1.376   .     S
C1207  C341    1.430   1_556 S
C1208  N1230   1.389   .     A
C1208  O1240   1.376   .     S
C1209  N1231   1.158   .     T
C1209  C1218   1.451   .     S
C1210  N1232   1.158   .     T
C1211  O1243   1.294   .     A
C1211  O1241   1.297   .     A
C1212  O1244   1.292   .     A
C1212  O1246   1.298   .     A
C1212  C1214   1.448   .     S
C1213  O1245   1.292   .     A
C1213  C1215   1.448   .     S
C1213  O1247   1.298   .     A
C1215  C1262   1.353   .     S
C1215  O1282   1.388   .     S
C1216  O1235   1.387   .     S
C1217  O1236   1.387   .     S
C1217  C914    1.406   1_565 S
C1218  C928    1.406   1_565 S
Cu1219 O1243   1.954   .     S
Cu1219 Cu1220  2.702   .     S
Cu1219 O1247   1.972   .     S
Cu1219 N1229   2.031   .     S
Cu1219 O1244   1.973   .     S
Cu1219 O1233   1.961   .     S
Cu1220 O1242   1.954   .     S
Cu1220 O1241   1.961   .     S
Cu1220 N1230   2.031   .     S
Cu1220 O1246   1.972   .     S
Cu1220 O1245   1.973   .     S
H1222  O1282   0.990   .     S
H1223  O1235   0.988   .     S
H1224  O1236   0.988   .     S
H1225  O1237   0.989   .     S
H1226  O1238   0.989   .     S
H1227  O1239   0.978   .     S
H1228  O1240   0.978   .     S
O1248  H1269   0.990   .     S
O1248  C1262   1.388   .     S
C1249  O1290   1.294   .     A
C1249  C1252   1.448   .     S
C1249  O1281   1.297   .     A
C1250  C1252   1.408   .     A
C1250  C1258   1.451   .     S
C1251  C1265   1.405   .     A
C1251  C1259   1.448   .     S
C1251  C1266   1.408   .     A
C1252  C1264   1.405   .     A
C1253  O1285   1.381   .     S
C1253  N1278   1.361   .     A
C1254  O1286   1.381   .     S
C1254  N1277   1.361   .     A
C1254  C392    1.430   1_556 S
C1255  N1277   1.389   .     A
C1255  O1287   1.376   .     S
C1255  C389    1.430   1_556 S
C1256  N1278   1.389   .     A
C1256  O1288   1.376   .     S
C1257  N1279   1.158   .     T
C1257  C1266   1.451   .     S
C1258  N1280   1.158   .     T
C1259  O1291   1.294   .     A
C1259  O1289   1.297   .     A
C1260  O1292   1.292   .     A
C1260  O1294   1.298   .     A
C1260  C1262   1.448   .     S
C1261  O1293   1.292   .     A
C1261  C1263   1.448   .     S
C1261  O1295   1.298   .     A
C1263  C1166   1.353   1_655 S
C1263  O1186   1.388   1_655 S
C1264  O1283   1.387   .     S
C1265  O1284   1.387   .     S
C1265  C962    1.406   1_565 S
C1266  C976    1.406   1_565 S
Cu1267 O1291   1.954   .     S
Cu1267 Cu1268  2.702   .     S
Cu1267 O1295   1.972   .     S
Cu1267 N1277   2.031   .     S
Cu1267 O1292   1.973   .     S
Cu1267 O1281   1.961   .     S
Cu1268 O1290   1.954   .     S
Cu1268 O1289   1.961   .     S
Cu1268 N1278   2.031   .     S
Cu1268 O1294   1.972   .     S
Cu1268 O1293   1.973   .     S
H1270  O1186   0.990   1_655 S
H1271  O1283   0.988   .     S
H1272  O1284   0.988   .     S
H1273  O1285   0.989   .     S
H1274  O1286   0.989   .     S
H1275  O1287   0.978   .     S
H1276  O1288   0.978   .     S
O1296  H1173   0.990   1_655 S
O1296  C1166   1.388   1_655 S
