data_str_m2_o1_o17_pcu_sym.74
_audit_creation_date              2020-01-03
_audit_creation_method            'Materials Studio'
_symmetry_space_group_name_H-M    'P1'
_symmetry_Int_Tables_number       1
_symmetry_cell_setting            triclinic
loop_
_symmetry_equiv_pos_as_xyz
  x,y,z
_cell_length_a                    32.4751
_cell_length_b                    28.7632
_cell_length_c                    30.0823
_cell_angle_alpha                 90.2021
_cell_angle_beta                  91.8007
_cell_angle_gamma                 89.9710
loop_
_atom_site_label
_atom_site_type_symbol
_atom_site_fract_x
_atom_site_fract_y
_atom_site_fract_z
_atom_site_U_iso_or_equiv
_atom_site_adp_type
_atom_site_occupancy
C1     C     0.08742   0.16667   0.24993   0.00000  Uiso   1.00
C2     C     0.04277   0.16668   0.24994   0.00000  Uiso   1.00
C3     C     0.14028   0.02468   0.22228   0.00000  Uiso   1.00
C4     C     0.19300   0.30865   0.27781   0.00000  Uiso   1.00
C5     C     0.19295   0.02491   0.27786   0.00000  Uiso   1.00
C6     C     0.14039   0.30842   0.22215   0.00000  Uiso   1.00
C7     C     0.16698   0.16658   0.16460   0.00000  Uiso   1.00
C8     C     0.16608   0.16670   0.33537   0.00000  Uiso   1.00
C9     C     0.19828   0.18315   0.40757   0.00000  Uiso   1.00
C10    C     0.13477   0.14703   0.09303   0.00000  Uiso   1.00
C11    C     0.16437   0.16646   0.38359   0.00000  Uiso   1.00
C12    C     0.24591   0.16666   0.25003   0.00000  Uiso   1.00
C13    C     0.16819   0.16598   0.11636   0.00000  Uiso   1.00
C14    C     0.13072   0.14721   0.40510   0.00000  Uiso   1.00
C15    C     0.20227   0.18293   0.09415   0.00000  Uiso   1.00
C16    C     0.12974   0.14881   0.45240   0.00000  Uiso   1.00
C17    C     0.20422   0.17671   0.04740   0.00000  Uiso   1.00
C18    C     0.16641   0.16253   0.47655   0.00000  Uiso   1.00
C19    C     0.16800   0.16159   0.02341   0.00000  Uiso   1.00
C20    C     0.20138   0.17811   0.45371   0.00000  Uiso   1.00
C21    C     0.13325   0.14597   0.04650   0.00000  Uiso   1.00
C22    C     0.09417   0.13620   0.47630   0.00000  Uiso   1.00
C23    C     0.09691   0.13195   0.02300   0.00000  Uiso   1.00
C24    C     0.24080   0.18522   0.02388   0.00000  Uiso   1.00
C25    C     0.09943   0.12369   0.37772   0.00000  Uiso   1.00
C26    C     0.23276   0.20990   0.11949   0.00000  Uiso   1.00
C27    C     0.05299   0.13169   0.45352   0.00000  Uiso   1.00
C28    C     0.28212   0.18448   0.04680   0.00000  Uiso   1.00
C29    C     0.06044   0.11524   0.04706   0.00000  Uiso   1.00
C30    C     0.27755   0.19706   0.45304   0.00000  Uiso   1.00
C31    C     0.11156   0.04914   0.19324   0.00000  Uiso   1.00
C32    C     0.22142   0.28419   0.30725   0.00000  Uiso   1.00
C33    C     0.22077   0.04970   0.30791   0.00000  Uiso   1.00
C34    C     0.23897   0.18771   0.47710   0.00000  Uiso   1.00
C35    C     0.11255   0.28364   0.19211   0.00000  Uiso   1.00
C36    C     0.02134   0.12444   0.25087   0.00000  Uiso   1.00
C37    C     0.31198   0.20889   0.24901   0.00000  Uiso   1.00
C38    C     0.31208   0.12443   0.25086   0.00000  Uiso   1.00
C39    C     0.02124   0.20890   0.24903   0.00000  Uiso   1.00
C40    C     0.29056   0.16666   0.24996   0.00000  Uiso   1.00
Cu41   Cu    0.16667   0.21355   0.25000   0.00000  Uiso   1.00
Cu42   Cu    0.16667   0.11978   0.25000   0.00000  Uiso   1.00
H43    H     0.22313   0.19801   0.38924   0.00000  Uiso   1.00
H44    H     0.29752   0.22556   0.46343   0.00000  Uiso   1.00
H45    H     0.10885   0.13603   0.11204   0.00000  Uiso   1.00
H46    H     0.03738   0.09142   0.25168   0.00000  Uiso   1.00
H47    H     0.29594   0.24192   0.24820   0.00000  Uiso   1.00
H48    H     0.29613   0.09140   0.25157   0.00000  Uiso   1.00
H49    H     0.03720   0.24194   0.24833   0.00000  Uiso   1.00
H50    H     0.04238   0.15851   0.43060   0.00000  Uiso   1.00
H51    H     0.30554   0.20958   0.03850   0.00000  Uiso   1.00
H52    H     0.03070   0.13163   0.04131   0.00000  Uiso   1.00
N53    N     0.16667   0.28402   0.25000   0.00000  Uiso   1.00
N54    N     0.16667   0.04931   0.25000   0.00000  Uiso   1.00
N55    N     0.07473   0.10492   0.35564   0.00000  Uiso   1.00
N56    N     0.25685   0.23145   0.13989   0.00000  Uiso   1.00
N57    N     0.08820   0.06829   0.16994   0.00000  Uiso   1.00
N58    N     0.24448   0.26508   0.33094   0.00000  Uiso   1.00
N59    N     0.24317   0.06921   0.33217   0.00000  Uiso   1.00
N60    N     0.09013   0.26415   0.16786   0.00000  Uiso   1.00
O61    O     0.10655   0.20625   0.25000   0.00000  Uiso   1.00
O62    O     0.29076   0.15433   0.07403   0.00000  Uiso   1.00
O63    O     0.06314   0.08169   0.07173   0.00000  Uiso   1.00
O64    O     0.28809   0.17177   0.42275   0.00000  Uiso   1.00
O65    O     0.22679   0.12709   0.25001   0.00000  Uiso   1.00
O66    O     0.22679   0.20625   0.25001   0.00000  Uiso   1.00
O67    O     0.10655   0.12709   0.25000   0.00000  Uiso   1.00
O68    O     0.16666   0.20627   0.18513   0.00000  Uiso   1.00
O69    O     0.16668   0.12707   0.31487   0.00000  Uiso   1.00
O70    O     0.16668   0.20627   0.31487   0.00000  Uiso   1.00
O71    O     0.16666   0.12707   0.18513   0.00000  Uiso   1.00
O72    O     0.03128   0.09770   0.45922   0.00000  Uiso   1.00
C73    C     0.42076   0.16667   0.24993   0.00000  Uiso   1.00
C74    C     0.37610   0.16668   0.24994   0.00000  Uiso   1.00
C75    C     0.47361   0.02468   0.22228   0.00000  Uiso   1.00
C76    C     0.52633   0.30865   0.27781   0.00000  Uiso   1.00
C77    C     0.52628   0.02491   0.27786   0.00000  Uiso   1.00
C78    C     0.47372   0.30842   0.22215   0.00000  Uiso   1.00
C79    C     0.50031   0.16658   0.16460   0.00000  Uiso   1.00
C80    C     0.49941   0.16670   0.33537   0.00000  Uiso   1.00
C81    C     0.53162   0.18315   0.40757   0.00000  Uiso   1.00
C82    C     0.46810   0.14703   0.09303   0.00000  Uiso   1.00
C83    C     0.49770   0.16646   0.38359   0.00000  Uiso   1.00
C84    C     0.57924   0.16666   0.25003   0.00000  Uiso   1.00
C85    C     0.50152   0.16598   0.11636   0.00000  Uiso   1.00
C86    C     0.46405   0.14721   0.40510   0.00000  Uiso   1.00
C87    C     0.53561   0.18293   0.09415   0.00000  Uiso   1.00
C88    C     0.46307   0.14881   0.45240   0.00000  Uiso   1.00
C89    C     0.53755   0.17671   0.04740   0.00000  Uiso   1.00
C90    C     0.49974   0.16253   0.47655   0.00000  Uiso   1.00
C91    C     0.50133   0.16159   0.02341   0.00000  Uiso   1.00
C92    C     0.53472   0.17811   0.45371   0.00000  Uiso   1.00
C93    C     0.46658   0.14597   0.04650   0.00000  Uiso   1.00
C94    C     0.42750   0.13620   0.47630   0.00000  Uiso   1.00
C95    C     0.43024   0.13195   0.02300   0.00000  Uiso   1.00
C96    C     0.57413   0.18522   0.02388   0.00000  Uiso   1.00
C97    C     0.43276   0.12369   0.37772   0.00000  Uiso   1.00
C98    C     0.56609   0.20990   0.11949   0.00000  Uiso   1.00
C99    C     0.38633   0.13169   0.45352   0.00000  Uiso   1.00
C100   C     0.61545   0.18448   0.04680   0.00000  Uiso   1.00
C101   C     0.39378   0.11524   0.04706   0.00000  Uiso   1.00
C102   C     0.61088   0.19706   0.45304   0.00000  Uiso   1.00
C103   C     0.44489   0.04914   0.19324   0.00000  Uiso   1.00
C104   C     0.55476   0.28419   0.30725   0.00000  Uiso   1.00
C105   C     0.55411   0.04970   0.30791   0.00000  Uiso   1.00
C106   C     0.57230   0.18771   0.47710   0.00000  Uiso   1.00
C107   C     0.44588   0.28364   0.19211   0.00000  Uiso   1.00
C108   C     0.35467   0.12444   0.25087   0.00000  Uiso   1.00
C109   C     0.64532   0.20889   0.24901   0.00000  Uiso   1.00
C110   C     0.64542   0.12443   0.25086   0.00000  Uiso   1.00
C111   C     0.35457   0.20890   0.24903   0.00000  Uiso   1.00
C112   C     0.62389   0.16666   0.24996   0.00000  Uiso   1.00
Cu113  Cu    0.50000   0.21355   0.25000   0.00000  Uiso   1.00
Cu114  Cu    0.50000   0.11978   0.25000   0.00000  Uiso   1.00
H115   H     0.55647   0.19801   0.38924   0.00000  Uiso   1.00
H116   H     0.63085   0.22556   0.46343   0.00000  Uiso   1.00
H117   H     0.44218   0.13603   0.11204   0.00000  Uiso   1.00
H118   H     0.37071   0.09142   0.25168   0.00000  Uiso   1.00
H119   H     0.62928   0.24192   0.24820   0.00000  Uiso   1.00
H120   H     0.62946   0.09140   0.25157   0.00000  Uiso   1.00
H121   H     0.37053   0.24194   0.24833   0.00000  Uiso   1.00
H122   H     0.37571   0.15851   0.43060   0.00000  Uiso   1.00
H123   H     0.63888   0.20958   0.03850   0.00000  Uiso   1.00
H124   H     0.36403   0.13163   0.04131   0.00000  Uiso   1.00
N125   N     0.50000   0.28402   0.25000   0.00000  Uiso   1.00
N126   N     0.50000   0.04931   0.25000   0.00000  Uiso   1.00
N127   N     0.40806   0.10492   0.35564   0.00000  Uiso   1.00
N128   N     0.59018   0.23145   0.13989   0.00000  Uiso   1.00
N129   N     0.42153   0.06829   0.16994   0.00000  Uiso   1.00
N130   N     0.57781   0.26508   0.33094   0.00000  Uiso   1.00
N131   N     0.57650   0.06921   0.33217   0.00000  Uiso   1.00
N132   N     0.42347   0.26415   0.16786   0.00000  Uiso   1.00
O133   O     0.43988   0.20625   0.25000   0.00000  Uiso   1.00
O134   O     0.62410   0.15433   0.07403   0.00000  Uiso   1.00
O135   O     0.39647   0.08169   0.07173   0.00000  Uiso   1.00
O136   O     0.62143   0.17177   0.42275   0.00000  Uiso   1.00
O137   O     0.56012   0.12709   0.25001   0.00000  Uiso   1.00
O138   O     0.56012   0.20625   0.25001   0.00000  Uiso   1.00
O139   O     0.43988   0.12709   0.25000   0.00000  Uiso   1.00
O140   O     0.49999   0.20627   0.18513   0.00000  Uiso   1.00
O141   O     0.50001   0.12707   0.31487   0.00000  Uiso   1.00
O142   O     0.50001   0.20627   0.31487   0.00000  Uiso   1.00
O143   O     0.49999   0.12707   0.18513   0.00000  Uiso   1.00
O144   O     0.36461   0.09770   0.45922   0.00000  Uiso   1.00
C145   C     0.75409   0.16667   0.24993   0.00000  Uiso   1.00
C146   C     0.70944   0.16668   0.24994   0.00000  Uiso   1.00
C147   C     0.80695   0.02468   0.22228   0.00000  Uiso   1.00
C148   C     0.85966   0.30865   0.27781   0.00000  Uiso   1.00
C149   C     0.85961   0.02491   0.27786   0.00000  Uiso   1.00
C150   C     0.80705   0.30842   0.22215   0.00000  Uiso   1.00
C151   C     0.83365   0.16658   0.16460   0.00000  Uiso   1.00
C152   C     0.83275   0.16670   0.33537   0.00000  Uiso   1.00
C153   C     0.86495   0.18315   0.40757   0.00000  Uiso   1.00
C154   C     0.80143   0.14703   0.09303   0.00000  Uiso   1.00
C155   C     0.83103   0.16646   0.38359   0.00000  Uiso   1.00
C156   C     0.91257   0.16666   0.25003   0.00000  Uiso   1.00
C157   C     0.83485   0.16598   0.11636   0.00000  Uiso   1.00
C158   C     0.79739   0.14721   0.40510   0.00000  Uiso   1.00
C159   C     0.86894   0.18293   0.09415   0.00000  Uiso   1.00
C160   C     0.79640   0.14881   0.45240   0.00000  Uiso   1.00
C161   C     0.87088   0.17671   0.04740   0.00000  Uiso   1.00
C162   C     0.83307   0.16253   0.47655   0.00000  Uiso   1.00
C163   C     0.83466   0.16159   0.02341   0.00000  Uiso   1.00
C164   C     0.86805   0.17811   0.45371   0.00000  Uiso   1.00
C165   C     0.79992   0.14597   0.04650   0.00000  Uiso   1.00
C166   C     0.76084   0.13620   0.47630   0.00000  Uiso   1.00
C167   C     0.76357   0.13195   0.02300   0.00000  Uiso   1.00
C168   C     0.90746   0.18522   0.02388   0.00000  Uiso   1.00
C169   C     0.76609   0.12369   0.37772   0.00000  Uiso   1.00
C170   C     0.89942   0.20990   0.11949   0.00000  Uiso   1.00
C171   C     0.71966   0.13169   0.45352   0.00000  Uiso   1.00
C172   C     0.94879   0.18448   0.04680   0.00000  Uiso   1.00
C173   C     0.72711   0.11524   0.04706   0.00000  Uiso   1.00
C174   C     0.94421   0.19706   0.45304   0.00000  Uiso   1.00
C175   C     0.77822   0.04914   0.19324   0.00000  Uiso   1.00
C176   C     0.88809   0.28419   0.30725   0.00000  Uiso   1.00
C177   C     0.88744   0.04970   0.30791   0.00000  Uiso   1.00
C178   C     0.90564   0.18771   0.47710   0.00000  Uiso   1.00
C179   C     0.77921   0.28364   0.19211   0.00000  Uiso   1.00
C180   C     0.68801   0.12444   0.25087   0.00000  Uiso   1.00
C181   C     0.97865   0.20889   0.24901   0.00000  Uiso   1.00
C182   C     0.97875   0.12443   0.25086   0.00000  Uiso   1.00
C183   C     0.68791   0.20890   0.24903   0.00000  Uiso   1.00
C184   C     0.95722   0.16666   0.24996   0.00000  Uiso   1.00
Cu185  Cu    0.83333   0.21355   0.25000   0.00000  Uiso   1.00
Cu186  Cu    0.83333   0.11978   0.25000   0.00000  Uiso   1.00
H187   H     0.88980   0.19801   0.38924   0.00000  Uiso   1.00
H188   H     0.96418   0.22556   0.46343   0.00000  Uiso   1.00
H189   H     0.77552   0.13603   0.11204   0.00000  Uiso   1.00
H190   H     0.70404   0.09142   0.25168   0.00000  Uiso   1.00
H191   H     0.96261   0.24192   0.24820   0.00000  Uiso   1.00
H192   H     0.96280   0.09140   0.25157   0.00000  Uiso   1.00
H193   H     0.70386   0.24194   0.24833   0.00000  Uiso   1.00
H194   H     0.70904   0.15851   0.43060   0.00000  Uiso   1.00
H195   H     0.97221   0.20958   0.03850   0.00000  Uiso   1.00
H196   H     0.69737   0.13163   0.04131   0.00000  Uiso   1.00
N197   N     0.83333   0.28402   0.25000   0.00000  Uiso   1.00
N198   N     0.83333   0.04931   0.25000   0.00000  Uiso   1.00
N199   N     0.74140   0.10492   0.35564   0.00000  Uiso   1.00
N200   N     0.92352   0.23145   0.13989   0.00000  Uiso   1.00
N201   N     0.75487   0.06829   0.16994   0.00000  Uiso   1.00
N202   N     0.91115   0.26508   0.33094   0.00000  Uiso   1.00
N203   N     0.90983   0.06921   0.33217   0.00000  Uiso   1.00
N204   N     0.75680   0.26415   0.16786   0.00000  Uiso   1.00
O205   O     0.77321   0.20625   0.25000   0.00000  Uiso   1.00
O206   O     0.95743   0.15433   0.07403   0.00000  Uiso   1.00
O207   O     0.72981   0.08169   0.07173   0.00000  Uiso   1.00
O208   O     0.95476   0.17177   0.42275   0.00000  Uiso   1.00
O209   O     0.89345   0.12709   0.25001   0.00000  Uiso   1.00
O210   O     0.89345   0.20625   0.25001   0.00000  Uiso   1.00
O211   O     0.77321   0.12709   0.25000   0.00000  Uiso   1.00
O212   O     0.83332   0.20627   0.18513   0.00000  Uiso   1.00
O213   O     0.83334   0.12707   0.31487   0.00000  Uiso   1.00
O214   O     0.83334   0.20627   0.31487   0.00000  Uiso   1.00
O215   O     0.83332   0.12707   0.18513   0.00000  Uiso   1.00
O216   O     0.69794   0.09770   0.45922   0.00000  Uiso   1.00
C217   C     0.08742   0.50001   0.24993   0.00000  Uiso   1.00
C218   C     0.04277   0.50001   0.24994   0.00000  Uiso   1.00
C219   C     0.14028   0.35801   0.22228   0.00000  Uiso   1.00
C220   C     0.19300   0.64198   0.27781   0.00000  Uiso   1.00
C221   C     0.19295   0.35825   0.27786   0.00000  Uiso   1.00
C222   C     0.14039   0.64175   0.22215   0.00000  Uiso   1.00
C223   C     0.16698   0.49992   0.16460   0.00000  Uiso   1.00
C224   C     0.16608   0.50003   0.33537   0.00000  Uiso   1.00
C225   C     0.19828   0.51648   0.40757   0.00000  Uiso   1.00
C226   C     0.13477   0.48036   0.09303   0.00000  Uiso   1.00
C227   C     0.16437   0.49979   0.38359   0.00000  Uiso   1.00
C228   C     0.24591   0.49999   0.25003   0.00000  Uiso   1.00
C229   C     0.16819   0.49931   0.11636   0.00000  Uiso   1.00
C230   C     0.13072   0.48055   0.40510   0.00000  Uiso   1.00
C231   C     0.20227   0.51627   0.09415   0.00000  Uiso   1.00
C232   C     0.12974   0.48215   0.45240   0.00000  Uiso   1.00
C233   C     0.20422   0.51004   0.04740   0.00000  Uiso   1.00
C234   C     0.16641   0.49587   0.47655   0.00000  Uiso   1.00
C235   C     0.16800   0.49492   0.02341   0.00000  Uiso   1.00
C236   C     0.20138   0.51144   0.45371   0.00000  Uiso   1.00
C237   C     0.13325   0.47930   0.04650   0.00000  Uiso   1.00
C238   C     0.09417   0.46953   0.47630   0.00000  Uiso   1.00
C239   C     0.09691   0.46528   0.02300   0.00000  Uiso   1.00
C240   C     0.24080   0.51855   0.02388   0.00000  Uiso   1.00
C241   C     0.09943   0.45703   0.37772   0.00000  Uiso   1.00
C242   C     0.23276   0.54323   0.11949   0.00000  Uiso   1.00
C243   C     0.05299   0.46502   0.45352   0.00000  Uiso   1.00
C244   C     0.28212   0.51781   0.04680   0.00000  Uiso   1.00
C245   C     0.06044   0.44857   0.04706   0.00000  Uiso   1.00
C246   C     0.27755   0.53039   0.45304   0.00000  Uiso   1.00
C247   C     0.11156   0.38248   0.19324   0.00000  Uiso   1.00
C248   C     0.22142   0.61752   0.30725   0.00000  Uiso   1.00
C249   C     0.22077   0.38304   0.30791   0.00000  Uiso   1.00
C250   C     0.23897   0.52104   0.47710   0.00000  Uiso   1.00
C251   C     0.11255   0.61698   0.19211   0.00000  Uiso   1.00
C252   C     0.02134   0.45778   0.25087   0.00000  Uiso   1.00
C253   C     0.31198   0.54223   0.24901   0.00000  Uiso   1.00
C254   C     0.31208   0.45777   0.25086   0.00000  Uiso   1.00
C255   C     0.02124   0.54224   0.24903   0.00000  Uiso   1.00
C256   C     0.29056   0.49999   0.24996   0.00000  Uiso   1.00
Cu257  Cu    0.16667   0.54689   0.25000   0.00000  Uiso   1.00
Cu258  Cu    0.16667   0.45311   0.25000   0.00000  Uiso   1.00
H259   H     0.22313   0.53135   0.38924   0.00000  Uiso   1.00
H260   H     0.29752   0.55890   0.46343   0.00000  Uiso   1.00
H261   H     0.10885   0.46936   0.11204   0.00000  Uiso   1.00
H262   H     0.03738   0.42475   0.25168   0.00000  Uiso   1.00
H263   H     0.29594   0.57525   0.24820   0.00000  Uiso   1.00
H264   H     0.29613   0.42473   0.25157   0.00000  Uiso   1.00
H265   H     0.03720   0.57527   0.24833   0.00000  Uiso   1.00
H266   H     0.04238   0.49184   0.43060   0.00000  Uiso   1.00
H267   H     0.30554   0.54291   0.03850   0.00000  Uiso   1.00
H268   H     0.03070   0.46497   0.04131   0.00000  Uiso   1.00
N269   N     0.16667   0.61736   0.25000   0.00000  Uiso   1.00
N270   N     0.16667   0.38264   0.25000   0.00000  Uiso   1.00
N271   N     0.07473   0.43825   0.35564   0.00000  Uiso   1.00
N272   N     0.25685   0.56479   0.13989   0.00000  Uiso   1.00
N273   N     0.08820   0.40163   0.16994   0.00000  Uiso   1.00
N274   N     0.24448   0.59841   0.33094   0.00000  Uiso   1.00
N275   N     0.24317   0.40254   0.33217   0.00000  Uiso   1.00
N276   N     0.09013   0.59748   0.16786   0.00000  Uiso   1.00
O277   O     0.10655   0.53958   0.25000   0.00000  Uiso   1.00
O278   O     0.29076   0.48766   0.07403   0.00000  Uiso   1.00
O279   O     0.06314   0.41502   0.07173   0.00000  Uiso   1.00
O280   O     0.28809   0.50510   0.42275   0.00000  Uiso   1.00
O281   O     0.22679   0.46042   0.25001   0.00000  Uiso   1.00
O282   O     0.22679   0.53958   0.25001   0.00000  Uiso   1.00
O283   O     0.10655   0.46042   0.25000   0.00000  Uiso   1.00
O284   O     0.16666   0.53960   0.18513   0.00000  Uiso   1.00
O285   O     0.16668   0.46040   0.31487   0.00000  Uiso   1.00
O286   O     0.16668   0.53960   0.31487   0.00000  Uiso   1.00
O287   O     0.16666   0.46040   0.18513   0.00000  Uiso   1.00
O288   O     0.03128   0.43104   0.45922   0.00000  Uiso   1.00
C289   C     0.42076   0.50001   0.24993   0.00000  Uiso   1.00
C290   C     0.37610   0.50001   0.24994   0.00000  Uiso   1.00
C291   C     0.47361   0.35801   0.22228   0.00000  Uiso   1.00
C292   C     0.52633   0.64198   0.27781   0.00000  Uiso   1.00
C293   C     0.52628   0.35825   0.27786   0.00000  Uiso   1.00
C294   C     0.47372   0.64175   0.22215   0.00000  Uiso   1.00
C295   C     0.50031   0.49992   0.16460   0.00000  Uiso   1.00
C296   C     0.49941   0.50003   0.33537   0.00000  Uiso   1.00
C297   C     0.53162   0.51648   0.40757   0.00000  Uiso   1.00
C298   C     0.46810   0.48036   0.09303   0.00000  Uiso   1.00
C299   C     0.49770   0.49979   0.38359   0.00000  Uiso   1.00
C300   C     0.57924   0.49999   0.25003   0.00000  Uiso   1.00
C301   C     0.50152   0.49931   0.11636   0.00000  Uiso   1.00
C302   C     0.46405   0.48055   0.40510   0.00000  Uiso   1.00
C303   C     0.53561   0.51627   0.09415   0.00000  Uiso   1.00
C304   C     0.46307   0.48215   0.45240   0.00000  Uiso   1.00
C305   C     0.53755   0.51004   0.04740   0.00000  Uiso   1.00
C306   C     0.49974   0.49587   0.47655   0.00000  Uiso   1.00
C307   C     0.50133   0.49492   0.02341   0.00000  Uiso   1.00
C308   C     0.53472   0.51144   0.45371   0.00000  Uiso   1.00
C309   C     0.46658   0.47930   0.04650   0.00000  Uiso   1.00
C310   C     0.42750   0.46953   0.47630   0.00000  Uiso   1.00
C311   C     0.43024   0.46528   0.02300   0.00000  Uiso   1.00
C312   C     0.57413   0.51855   0.02388   0.00000  Uiso   1.00
C313   C     0.43276   0.45703   0.37772   0.00000  Uiso   1.00
C314   C     0.56609   0.54323   0.11949   0.00000  Uiso   1.00
C315   C     0.38633   0.46502   0.45352   0.00000  Uiso   1.00
C316   C     0.61545   0.51781   0.04680   0.00000  Uiso   1.00
C317   C     0.39378   0.44857   0.04706   0.00000  Uiso   1.00
C318   C     0.61088   0.53039   0.45304   0.00000  Uiso   1.00
C319   C     0.44489   0.38248   0.19324   0.00000  Uiso   1.00
C320   C     0.55476   0.61752   0.30725   0.00000  Uiso   1.00
C321   C     0.55411   0.38304   0.30791   0.00000  Uiso   1.00
C322   C     0.57230   0.52104   0.47710   0.00000  Uiso   1.00
C323   C     0.44588   0.61698   0.19211   0.00000  Uiso   1.00
C324   C     0.35467   0.45778   0.25087   0.00000  Uiso   1.00
C325   C     0.64532   0.54223   0.24901   0.00000  Uiso   1.00
C326   C     0.64542   0.45777   0.25086   0.00000  Uiso   1.00
C327   C     0.35457   0.54224   0.24903   0.00000  Uiso   1.00
C328   C     0.62389   0.49999   0.24996   0.00000  Uiso   1.00
Cu329  Cu    0.50000   0.54689   0.25000   0.00000  Uiso   1.00
Cu330  Cu    0.50000   0.45311   0.25000   0.00000  Uiso   1.00
H331   H     0.55647   0.53135   0.38924   0.00000  Uiso   1.00
H332   H     0.63085   0.55890   0.46343   0.00000  Uiso   1.00
H333   H     0.44218   0.46936   0.11204   0.00000  Uiso   1.00
H334   H     0.37071   0.42475   0.25168   0.00000  Uiso   1.00
H335   H     0.62928   0.57525   0.24820   0.00000  Uiso   1.00
H336   H     0.62946   0.42473   0.25157   0.00000  Uiso   1.00
H337   H     0.37053   0.57527   0.24833   0.00000  Uiso   1.00
H338   H     0.37571   0.49184   0.43060   0.00000  Uiso   1.00
H339   H     0.63888   0.54291   0.03850   0.00000  Uiso   1.00
H340   H     0.36403   0.46497   0.04131   0.00000  Uiso   1.00
N341   N     0.50000   0.61736   0.25000   0.00000  Uiso   1.00
N342   N     0.50000   0.38264   0.25000   0.00000  Uiso   1.00
N343   N     0.40806   0.43825   0.35564   0.00000  Uiso   1.00
N344   N     0.59018   0.56479   0.13989   0.00000  Uiso   1.00
N345   N     0.42153   0.40163   0.16994   0.00000  Uiso   1.00
N346   N     0.57781   0.59841   0.33094   0.00000  Uiso   1.00
N347   N     0.57650   0.40254   0.33217   0.00000  Uiso   1.00
N348   N     0.42347   0.59748   0.16786   0.00000  Uiso   1.00
O349   O     0.43988   0.53958   0.25000   0.00000  Uiso   1.00
O350   O     0.62410   0.48766   0.07403   0.00000  Uiso   1.00
O351   O     0.39647   0.41502   0.07173   0.00000  Uiso   1.00
O352   O     0.62143   0.50510   0.42275   0.00000  Uiso   1.00
O353   O     0.56012   0.46042   0.25001   0.00000  Uiso   1.00
O354   O     0.56012   0.53958   0.25001   0.00000  Uiso   1.00
O355   O     0.43988   0.46042   0.25000   0.00000  Uiso   1.00
O356   O     0.49999   0.53960   0.18513   0.00000  Uiso   1.00
O357   O     0.50001   0.46040   0.31487   0.00000  Uiso   1.00
O358   O     0.50001   0.53960   0.31487   0.00000  Uiso   1.00
O359   O     0.49999   0.46040   0.18513   0.00000  Uiso   1.00
O360   O     0.36461   0.43104   0.45922   0.00000  Uiso   1.00
C361   C     0.75409   0.50001   0.24993   0.00000  Uiso   1.00
C362   C     0.70944   0.50001   0.24994   0.00000  Uiso   1.00
C363   C     0.80695   0.35801   0.22228   0.00000  Uiso   1.00
C364   C     0.85966   0.64198   0.27781   0.00000  Uiso   1.00
C365   C     0.85961   0.35825   0.27786   0.00000  Uiso   1.00
C366   C     0.80705   0.64175   0.22215   0.00000  Uiso   1.00
C367   C     0.83365   0.49992   0.16460   0.00000  Uiso   1.00
C368   C     0.83275   0.50003   0.33537   0.00000  Uiso   1.00
C369   C     0.86495   0.51648   0.40757   0.00000  Uiso   1.00
C370   C     0.80143   0.48036   0.09303   0.00000  Uiso   1.00
C371   C     0.83103   0.49979   0.38359   0.00000  Uiso   1.00
C372   C     0.91257   0.49999   0.25003   0.00000  Uiso   1.00
C373   C     0.83485   0.49931   0.11636   0.00000  Uiso   1.00
C374   C     0.79739   0.48055   0.40510   0.00000  Uiso   1.00
C375   C     0.86894   0.51627   0.09415   0.00000  Uiso   1.00
C376   C     0.79640   0.48215   0.45240   0.00000  Uiso   1.00
C377   C     0.87088   0.51004   0.04740   0.00000  Uiso   1.00
C378   C     0.83307   0.49587   0.47655   0.00000  Uiso   1.00
C379   C     0.83466   0.49492   0.02341   0.00000  Uiso   1.00
C380   C     0.86805   0.51144   0.45371   0.00000  Uiso   1.00
C381   C     0.79992   0.47930   0.04650   0.00000  Uiso   1.00
C382   C     0.76084   0.46953   0.47630   0.00000  Uiso   1.00
C383   C     0.76357   0.46528   0.02300   0.00000  Uiso   1.00
C384   C     0.90746   0.51855   0.02388   0.00000  Uiso   1.00
C385   C     0.76609   0.45703   0.37772   0.00000  Uiso   1.00
C386   C     0.89942   0.54323   0.11949   0.00000  Uiso   1.00
C387   C     0.71966   0.46502   0.45352   0.00000  Uiso   1.00
C388   C     0.94879   0.51781   0.04680   0.00000  Uiso   1.00
C389   C     0.72711   0.44857   0.04706   0.00000  Uiso   1.00
C390   C     0.94421   0.53039   0.45304   0.00000  Uiso   1.00
C391   C     0.77822   0.38248   0.19324   0.00000  Uiso   1.00
C392   C     0.88809   0.61752   0.30725   0.00000  Uiso   1.00
C393   C     0.88744   0.38304   0.30791   0.00000  Uiso   1.00
C394   C     0.90564   0.52104   0.47710   0.00000  Uiso   1.00
C395   C     0.77921   0.61698   0.19211   0.00000  Uiso   1.00
C396   C     0.68801   0.45778   0.25087   0.00000  Uiso   1.00
C397   C     0.97865   0.54223   0.24901   0.00000  Uiso   1.00
C398   C     0.97875   0.45777   0.25086   0.00000  Uiso   1.00
C399   C     0.68791   0.54224   0.24903   0.00000  Uiso   1.00
C400   C     0.95722   0.49999   0.24996   0.00000  Uiso   1.00
Cu401  Cu    0.83333   0.54689   0.25000   0.00000  Uiso   1.00
Cu402  Cu    0.83333   0.45311   0.25000   0.00000  Uiso   1.00
H403   H     0.88980   0.53135   0.38924   0.00000  Uiso   1.00
H404   H     0.96418   0.55890   0.46343   0.00000  Uiso   1.00
H405   H     0.77552   0.46936   0.11204   0.00000  Uiso   1.00
H406   H     0.70404   0.42475   0.25168   0.00000  Uiso   1.00
H407   H     0.96261   0.57525   0.24820   0.00000  Uiso   1.00
H408   H     0.96280   0.42473   0.25157   0.00000  Uiso   1.00
H409   H     0.70386   0.57527   0.24833   0.00000  Uiso   1.00
H410   H     0.70904   0.49184   0.43060   0.00000  Uiso   1.00
H411   H     0.97221   0.54291   0.03850   0.00000  Uiso   1.00
H412   H     0.69737   0.46497   0.04131   0.00000  Uiso   1.00
N413   N     0.83333   0.61736   0.25000   0.00000  Uiso   1.00
N414   N     0.83333   0.38264   0.25000   0.00000  Uiso   1.00
N415   N     0.74140   0.43825   0.35564   0.00000  Uiso   1.00
N416   N     0.92352   0.56479   0.13989   0.00000  Uiso   1.00
N417   N     0.75487   0.40163   0.16994   0.00000  Uiso   1.00
N418   N     0.91115   0.59841   0.33094   0.00000  Uiso   1.00
N419   N     0.90983   0.40254   0.33217   0.00000  Uiso   1.00
N420   N     0.75680   0.59748   0.16786   0.00000  Uiso   1.00
O421   O     0.77321   0.53958   0.25000   0.00000  Uiso   1.00
O422   O     0.95743   0.48766   0.07403   0.00000  Uiso   1.00
O423   O     0.72981   0.41502   0.07173   0.00000  Uiso   1.00
O424   O     0.95476   0.50510   0.42275   0.00000  Uiso   1.00
O425   O     0.89345   0.46042   0.25001   0.00000  Uiso   1.00
O426   O     0.89345   0.53958   0.25001   0.00000  Uiso   1.00
O427   O     0.77321   0.46042   0.25000   0.00000  Uiso   1.00
O428   O     0.83332   0.53960   0.18513   0.00000  Uiso   1.00
O429   O     0.83334   0.46040   0.31487   0.00000  Uiso   1.00
O430   O     0.83334   0.53960   0.31487   0.00000  Uiso   1.00
O431   O     0.83332   0.46040   0.18513   0.00000  Uiso   1.00
O432   O     0.69794   0.43104   0.45922   0.00000  Uiso   1.00
C433   C     0.08742   0.83334   0.24993   0.00000  Uiso   1.00
C434   C     0.04277   0.83334   0.24994   0.00000  Uiso   1.00
C435   C     0.14028   0.69134   0.22228   0.00000  Uiso   1.00
C436   C     0.19300   0.97532   0.27781   0.00000  Uiso   1.00
C437   C     0.19295   0.69158   0.27786   0.00000  Uiso   1.00
C438   C     0.14039   0.97509   0.22215   0.00000  Uiso   1.00
C439   C     0.16698   0.83325   0.16460   0.00000  Uiso   1.00
C440   C     0.16608   0.83337   0.33537   0.00000  Uiso   1.00
C441   C     0.19828   0.84981   0.40757   0.00000  Uiso   1.00
C442   C     0.13477   0.81369   0.09303   0.00000  Uiso   1.00
C443   C     0.16437   0.83312   0.38359   0.00000  Uiso   1.00
C444   C     0.24591   0.83333   0.25003   0.00000  Uiso   1.00
C445   C     0.16819   0.83264   0.11636   0.00000  Uiso   1.00
C446   C     0.13072   0.81388   0.40510   0.00000  Uiso   1.00
C447   C     0.20227   0.84960   0.09415   0.00000  Uiso   1.00
C448   C     0.12974   0.81548   0.45240   0.00000  Uiso   1.00
C449   C     0.20422   0.84337   0.04740   0.00000  Uiso   1.00
C450   C     0.16641   0.82920   0.47655   0.00000  Uiso   1.00
C451   C     0.16800   0.82826   0.02341   0.00000  Uiso   1.00
C452   C     0.20138   0.84478   0.45371   0.00000  Uiso   1.00
C453   C     0.13325   0.81264   0.04650   0.00000  Uiso   1.00
C454   C     0.09417   0.80287   0.47630   0.00000  Uiso   1.00
C455   C     0.09691   0.79861   0.02300   0.00000  Uiso   1.00
C456   C     0.24080   0.85189   0.02388   0.00000  Uiso   1.00
C457   C     0.09943   0.79036   0.37772   0.00000  Uiso   1.00
C458   C     0.23276   0.87657   0.11949   0.00000  Uiso   1.00
C459   C     0.05299   0.79835   0.45352   0.00000  Uiso   1.00
C460   C     0.28212   0.85115   0.04680   0.00000  Uiso   1.00
C461   C     0.06044   0.78190   0.04706   0.00000  Uiso   1.00
C462   C     0.27755   0.86373   0.45304   0.00000  Uiso   1.00
C463   C     0.11156   0.71581   0.19324   0.00000  Uiso   1.00
C464   C     0.22142   0.95085   0.30725   0.00000  Uiso   1.00
C465   C     0.22077   0.71637   0.30791   0.00000  Uiso   1.00
C466   C     0.23897   0.85438   0.47710   0.00000  Uiso   1.00
C467   C     0.11255   0.95031   0.19211   0.00000  Uiso   1.00
C468   C     0.02134   0.79111   0.25087   0.00000  Uiso   1.00
C469   C     0.31198   0.87556   0.24901   0.00000  Uiso   1.00
C470   C     0.31208   0.79110   0.25086   0.00000  Uiso   1.00
C471   C     0.02124   0.87557   0.24903   0.00000  Uiso   1.00
C472   C     0.29056   0.83333   0.24996   0.00000  Uiso   1.00
Cu473  Cu    0.16667   0.88022   0.25000   0.00000  Uiso   1.00
Cu474  Cu    0.16667   0.78645   0.25000   0.00000  Uiso   1.00
H475   H     0.22313   0.86468   0.38924   0.00000  Uiso   1.00
H476   H     0.29752   0.89223   0.46343   0.00000  Uiso   1.00
H477   H     0.10885   0.80270   0.11204   0.00000  Uiso   1.00
H478   H     0.03738   0.75808   0.25168   0.00000  Uiso   1.00
H479   H     0.29594   0.90859   0.24820   0.00000  Uiso   1.00
H480   H     0.29613   0.75807   0.25157   0.00000  Uiso   1.00
H481   H     0.03720   0.90860   0.24833   0.00000  Uiso   1.00
H482   H     0.04238   0.82518   0.43060   0.00000  Uiso   1.00
H483   H     0.30554   0.87625   0.03850   0.00000  Uiso   1.00
H484   H     0.03070   0.79830   0.04131   0.00000  Uiso   1.00
N485   N     0.16667   0.95069   0.25000   0.00000  Uiso   1.00
N486   N     0.16667   0.71598   0.25000   0.00000  Uiso   1.00
N487   N     0.07473   0.77159   0.35564   0.00000  Uiso   1.00
N488   N     0.25685   0.89812   0.13989   0.00000  Uiso   1.00
N489   N     0.08820   0.73496   0.16994   0.00000  Uiso   1.00
N490   N     0.24448   0.93174   0.33094   0.00000  Uiso   1.00
N491   N     0.24317   0.73588   0.33217   0.00000  Uiso   1.00
N492   N     0.09013   0.93082   0.16786   0.00000  Uiso   1.00
O493   O     0.10655   0.87291   0.25000   0.00000  Uiso   1.00
O494   O     0.29076   0.82100   0.07403   0.00000  Uiso   1.00
O495   O     0.06314   0.74836   0.07173   0.00000  Uiso   1.00
O496   O     0.28809   0.83843   0.42275   0.00000  Uiso   1.00
O497   O     0.22679   0.79375   0.25001   0.00000  Uiso   1.00
O498   O     0.22679   0.87291   0.25001   0.00000  Uiso   1.00
O499   O     0.10655   0.79375   0.25000   0.00000  Uiso   1.00
O500   O     0.16666   0.87293   0.18513   0.00000  Uiso   1.00
O501   O     0.16668   0.79373   0.31487   0.00000  Uiso   1.00
O502   O     0.16668   0.87293   0.31487   0.00000  Uiso   1.00
O503   O     0.16666   0.79373   0.18513   0.00000  Uiso   1.00
O504   O     0.03128   0.76437   0.45922   0.00000  Uiso   1.00
C505   C     0.42076   0.83334   0.24993   0.00000  Uiso   1.00
C506   C     0.37610   0.83334   0.24994   0.00000  Uiso   1.00
C507   C     0.47361   0.69134   0.22228   0.00000  Uiso   1.00
C508   C     0.52633   0.97532   0.27781   0.00000  Uiso   1.00
C509   C     0.52628   0.69158   0.27786   0.00000  Uiso   1.00
C510   C     0.47372   0.97509   0.22215   0.00000  Uiso   1.00
C511   C     0.50031   0.83325   0.16460   0.00000  Uiso   1.00
C512   C     0.49941   0.83337   0.33537   0.00000  Uiso   1.00
C513   C     0.53162   0.84981   0.40757   0.00000  Uiso   1.00
C514   C     0.46810   0.81369   0.09303   0.00000  Uiso   1.00
C515   C     0.49770   0.83312   0.38359   0.00000  Uiso   1.00
C516   C     0.57924   0.83333   0.25003   0.00000  Uiso   1.00
C517   C     0.50152   0.83264   0.11636   0.00000  Uiso   1.00
C518   C     0.46405   0.81388   0.40510   0.00000  Uiso   1.00
C519   C     0.53561   0.84960   0.09415   0.00000  Uiso   1.00
C520   C     0.46307   0.81548   0.45240   0.00000  Uiso   1.00
C521   C     0.53755   0.84337   0.04740   0.00000  Uiso   1.00
C522   C     0.49974   0.82920   0.47655   0.00000  Uiso   1.00
C523   C     0.50133   0.82826   0.02341   0.00000  Uiso   1.00
C524   C     0.53472   0.84478   0.45371   0.00000  Uiso   1.00
C525   C     0.46658   0.81264   0.04650   0.00000  Uiso   1.00
C526   C     0.42750   0.80287   0.47630   0.00000  Uiso   1.00
C527   C     0.43024   0.79861   0.02300   0.00000  Uiso   1.00
C528   C     0.57413   0.85189   0.02388   0.00000  Uiso   1.00
C529   C     0.43276   0.79036   0.37772   0.00000  Uiso   1.00
C530   C     0.56609   0.87657   0.11949   0.00000  Uiso   1.00
C531   C     0.38633   0.79835   0.45352   0.00000  Uiso   1.00
C532   C     0.61545   0.85115   0.04680   0.00000  Uiso   1.00
C533   C     0.39378   0.78190   0.04706   0.00000  Uiso   1.00
C534   C     0.61088   0.86373   0.45304   0.00000  Uiso   1.00
C535   C     0.44489   0.71581   0.19324   0.00000  Uiso   1.00
C536   C     0.55476   0.95085   0.30725   0.00000  Uiso   1.00
C537   C     0.55411   0.71637   0.30791   0.00000  Uiso   1.00
C538   C     0.57230   0.85438   0.47710   0.00000  Uiso   1.00
C539   C     0.44588   0.95031   0.19211   0.00000  Uiso   1.00
C540   C     0.35467   0.79111   0.25087   0.00000  Uiso   1.00
C541   C     0.64532   0.87556   0.24901   0.00000  Uiso   1.00
C542   C     0.64542   0.79110   0.25086   0.00000  Uiso   1.00
C543   C     0.35457   0.87557   0.24903   0.00000  Uiso   1.00
C544   C     0.62389   0.83333   0.24996   0.00000  Uiso   1.00
Cu545  Cu    0.50000   0.88022   0.25000   0.00000  Uiso   1.00
Cu546  Cu    0.50000   0.78645   0.25000   0.00000  Uiso   1.00
H547   H     0.55647   0.86468   0.38924   0.00000  Uiso   1.00
H548   H     0.63085   0.89223   0.46343   0.00000  Uiso   1.00
H549   H     0.44218   0.80270   0.11204   0.00000  Uiso   1.00
H550   H     0.37071   0.75808   0.25168   0.00000  Uiso   1.00
H551   H     0.62928   0.90859   0.24820   0.00000  Uiso   1.00
H552   H     0.62946   0.75807   0.25157   0.00000  Uiso   1.00
H553   H     0.37053   0.90860   0.24833   0.00000  Uiso   1.00
H554   H     0.37571   0.82518   0.43060   0.00000  Uiso   1.00
H555   H     0.63888   0.87625   0.03850   0.00000  Uiso   1.00
H556   H     0.36403   0.79830   0.04131   0.00000  Uiso   1.00
N557   N     0.50000   0.95069   0.25000   0.00000  Uiso   1.00
N558   N     0.50000   0.71598   0.25000   0.00000  Uiso   1.00
N559   N     0.40806   0.77159   0.35564   0.00000  Uiso   1.00
N560   N     0.59018   0.89812   0.13989   0.00000  Uiso   1.00
N561   N     0.42153   0.73496   0.16994   0.00000  Uiso   1.00
N562   N     0.57781   0.93174   0.33094   0.00000  Uiso   1.00
N563   N     0.57650   0.73588   0.33217   0.00000  Uiso   1.00
N564   N     0.42347   0.93082   0.16786   0.00000  Uiso   1.00
O565   O     0.43988   0.87291   0.25000   0.00000  Uiso   1.00
O566   O     0.62410   0.82100   0.07403   0.00000  Uiso   1.00
O567   O     0.39647   0.74836   0.07173   0.00000  Uiso   1.00
O568   O     0.62143   0.83843   0.42275   0.00000  Uiso   1.00
O569   O     0.56012   0.79375   0.25001   0.00000  Uiso   1.00
O570   O     0.56012   0.87291   0.25001   0.00000  Uiso   1.00
O571   O     0.43988   0.79375   0.25000   0.00000  Uiso   1.00
O572   O     0.49999   0.87293   0.18513   0.00000  Uiso   1.00
O573   O     0.50001   0.79373   0.31487   0.00000  Uiso   1.00
O574   O     0.50001   0.87293   0.31487   0.00000  Uiso   1.00
O575   O     0.49999   0.79373   0.18513   0.00000  Uiso   1.00
O576   O     0.36461   0.76437   0.45922   0.00000  Uiso   1.00
C577   C     0.75409   0.83334   0.24993   0.00000  Uiso   1.00
C578   C     0.70944   0.83334   0.24994   0.00000  Uiso   1.00
C579   C     0.80695   0.69134   0.22228   0.00000  Uiso   1.00
C580   C     0.85966   0.97532   0.27781   0.00000  Uiso   1.00
C581   C     0.85961   0.69158   0.27786   0.00000  Uiso   1.00
C582   C     0.80705   0.97509   0.22215   0.00000  Uiso   1.00
C583   C     0.83365   0.83325   0.16460   0.00000  Uiso   1.00
C584   C     0.83275   0.83337   0.33537   0.00000  Uiso   1.00
C585   C     0.86495   0.84981   0.40757   0.00000  Uiso   1.00
C586   C     0.80143   0.81369   0.09303   0.00000  Uiso   1.00
C587   C     0.83103   0.83312   0.38359   0.00000  Uiso   1.00
C588   C     0.91257   0.83333   0.25003   0.00000  Uiso   1.00
C589   C     0.83485   0.83264   0.11636   0.00000  Uiso   1.00
C590   C     0.79739   0.81388   0.40510   0.00000  Uiso   1.00
C591   C     0.86894   0.84960   0.09415   0.00000  Uiso   1.00
C592   C     0.79640   0.81548   0.45240   0.00000  Uiso   1.00
C593   C     0.87088   0.84337   0.04740   0.00000  Uiso   1.00
C594   C     0.83307   0.82920   0.47655   0.00000  Uiso   1.00
C595   C     0.83466   0.82826   0.02341   0.00000  Uiso   1.00
C596   C     0.86805   0.84478   0.45371   0.00000  Uiso   1.00
C597   C     0.79992   0.81264   0.04650   0.00000  Uiso   1.00
C598   C     0.76084   0.80287   0.47630   0.00000  Uiso   1.00
C599   C     0.76357   0.79861   0.02300   0.00000  Uiso   1.00
C600   C     0.90746   0.85189   0.02388   0.00000  Uiso   1.00
C601   C     0.76609   0.79036   0.37772   0.00000  Uiso   1.00
C602   C     0.89942   0.87657   0.11949   0.00000  Uiso   1.00
C603   C     0.71966   0.79835   0.45352   0.00000  Uiso   1.00
C604   C     0.94879   0.85115   0.04680   0.00000  Uiso   1.00
C605   C     0.72711   0.78190   0.04706   0.00000  Uiso   1.00
C606   C     0.94421   0.86373   0.45304   0.00000  Uiso   1.00
C607   C     0.77822   0.71581   0.19324   0.00000  Uiso   1.00
C608   C     0.88809   0.95085   0.30725   0.00000  Uiso   1.00
C609   C     0.88744   0.71637   0.30791   0.00000  Uiso   1.00
C610   C     0.90564   0.85438   0.47710   0.00000  Uiso   1.00
C611   C     0.77921   0.95031   0.19211   0.00000  Uiso   1.00
C612   C     0.68801   0.79111   0.25087   0.00000  Uiso   1.00
C613   C     0.97865   0.87556   0.24901   0.00000  Uiso   1.00
C614   C     0.97875   0.79110   0.25086   0.00000  Uiso   1.00
C615   C     0.68791   0.87557   0.24903   0.00000  Uiso   1.00
C616   C     0.95722   0.83333   0.24996   0.00000  Uiso   1.00
Cu617  Cu    0.83333   0.88022   0.25000   0.00000  Uiso   1.00
Cu618  Cu    0.83333   0.78645   0.25000   0.00000  Uiso   1.00
H619   H     0.88980   0.86468   0.38924   0.00000  Uiso   1.00
H620   H     0.96418   0.89223   0.46343   0.00000  Uiso   1.00
H621   H     0.77552   0.80270   0.11204   0.00000  Uiso   1.00
H622   H     0.70404   0.75808   0.25168   0.00000  Uiso   1.00
H623   H     0.96261   0.90859   0.24820   0.00000  Uiso   1.00
H624   H     0.96280   0.75807   0.25157   0.00000  Uiso   1.00
H625   H     0.70386   0.90860   0.24833   0.00000  Uiso   1.00
H626   H     0.70904   0.82518   0.43060   0.00000  Uiso   1.00
H627   H     0.97221   0.87625   0.03850   0.00000  Uiso   1.00
H628   H     0.69737   0.79830   0.04131   0.00000  Uiso   1.00
N629   N     0.83333   0.95069   0.25000   0.00000  Uiso   1.00
N630   N     0.83333   0.71598   0.25000   0.00000  Uiso   1.00
N631   N     0.74140   0.77159   0.35564   0.00000  Uiso   1.00
N632   N     0.92352   0.89812   0.13989   0.00000  Uiso   1.00
N633   N     0.75487   0.73496   0.16994   0.00000  Uiso   1.00
N634   N     0.91115   0.93174   0.33094   0.00000  Uiso   1.00
N635   N     0.90983   0.73588   0.33217   0.00000  Uiso   1.00
N636   N     0.75680   0.93082   0.16786   0.00000  Uiso   1.00
O637   O     0.77321   0.87291   0.25000   0.00000  Uiso   1.00
O638   O     0.95743   0.82100   0.07403   0.00000  Uiso   1.00
O639   O     0.72981   0.74836   0.07173   0.00000  Uiso   1.00
O640   O     0.95476   0.83843   0.42275   0.00000  Uiso   1.00
O641   O     0.89345   0.79375   0.25001   0.00000  Uiso   1.00
O642   O     0.89345   0.87291   0.25001   0.00000  Uiso   1.00
O643   O     0.77321   0.79375   0.25000   0.00000  Uiso   1.00
O644   O     0.83332   0.87293   0.18513   0.00000  Uiso   1.00
O645   O     0.83334   0.79373   0.31487   0.00000  Uiso   1.00
O646   O     0.83334   0.87293   0.31487   0.00000  Uiso   1.00
O647   O     0.83332   0.79373   0.18513   0.00000  Uiso   1.00
O648   O     0.69794   0.76437   0.45922   0.00000  Uiso   1.00
C649   C     0.08742   0.16667   0.74993   0.00000  Uiso   1.00
C650   C     0.04277   0.16668   0.74994   0.00000  Uiso   1.00
C651   C     0.14028   0.02468   0.72228   0.00000  Uiso   1.00
C652   C     0.19300   0.30865   0.77781   0.00000  Uiso   1.00
C653   C     0.19295   0.02491   0.77786   0.00000  Uiso   1.00
C654   C     0.14039   0.30842   0.72215   0.00000  Uiso   1.00
C655   C     0.16698   0.16658   0.66460   0.00000  Uiso   1.00
C656   C     0.16608   0.16670   0.83537   0.00000  Uiso   1.00
C657   C     0.19828   0.18315   0.90757   0.00000  Uiso   1.00
C658   C     0.13477   0.14703   0.59303   0.00000  Uiso   1.00
C659   C     0.16437   0.16646   0.88359   0.00000  Uiso   1.00
C660   C     0.24591   0.16666   0.75003   0.00000  Uiso   1.00
C661   C     0.16819   0.16598   0.61636   0.00000  Uiso   1.00
C662   C     0.13072   0.14721   0.90510   0.00000  Uiso   1.00
C663   C     0.20227   0.18293   0.59415   0.00000  Uiso   1.00
C664   C     0.12974   0.14881   0.95240   0.00000  Uiso   1.00
C665   C     0.20422   0.17671   0.54740   0.00000  Uiso   1.00
C666   C     0.16641   0.16253   0.97655   0.00000  Uiso   1.00
C667   C     0.16800   0.16159   0.52341   0.00000  Uiso   1.00
C668   C     0.20138   0.17811   0.95371   0.00000  Uiso   1.00
C669   C     0.13325   0.14597   0.54650   0.00000  Uiso   1.00
C670   C     0.09417   0.13620   0.97630   0.00000  Uiso   1.00
C671   C     0.09691   0.13195   0.52300   0.00000  Uiso   1.00
C672   C     0.24080   0.18522   0.52388   0.00000  Uiso   1.00
C673   C     0.09943   0.12369   0.87772   0.00000  Uiso   1.00
C674   C     0.23276   0.20990   0.61949   0.00000  Uiso   1.00
C675   C     0.05299   0.13169   0.95352   0.00000  Uiso   1.00
C676   C     0.28212   0.18448   0.54680   0.00000  Uiso   1.00
C677   C     0.06044   0.11524   0.54706   0.00000  Uiso   1.00
C678   C     0.27755   0.19706   0.95304   0.00000  Uiso   1.00
C679   C     0.11156   0.04914   0.69324   0.00000  Uiso   1.00
C680   C     0.22142   0.28419   0.80725   0.00000  Uiso   1.00
C681   C     0.22077   0.04970   0.80791   0.00000  Uiso   1.00
C682   C     0.23897   0.18771   0.97710   0.00000  Uiso   1.00
C683   C     0.11255   0.28364   0.69211   0.00000  Uiso   1.00
C684   C     0.02134   0.12444   0.75087   0.00000  Uiso   1.00
C685   C     0.31198   0.20889   0.74901   0.00000  Uiso   1.00
C686   C     0.31208   0.12443   0.75086   0.00000  Uiso   1.00
C687   C     0.02124   0.20890   0.74903   0.00000  Uiso   1.00
C688   C     0.29056   0.16666   0.74996   0.00000  Uiso   1.00
Cu689  Cu    0.16667   0.21355   0.75000   0.00000  Uiso   1.00
Cu690  Cu    0.16667   0.11978   0.75000   0.00000  Uiso   1.00
H691   H     0.22313   0.19801   0.88924   0.00000  Uiso   1.00
H692   H     0.29752   0.22556   0.96343   0.00000  Uiso   1.00
H693   H     0.10885   0.13603   0.61204   0.00000  Uiso   1.00
H694   H     0.03738   0.09142   0.75168   0.00000  Uiso   1.00
H695   H     0.29594   0.24192   0.74820   0.00000  Uiso   1.00
H696   H     0.29613   0.09140   0.75157   0.00000  Uiso   1.00
H697   H     0.03720   0.24194   0.74833   0.00000  Uiso   1.00
H698   H     0.04238   0.15851   0.93060   0.00000  Uiso   1.00
H699   H     0.30554   0.20958   0.53850   0.00000  Uiso   1.00
H700   H     0.03070   0.13163   0.54131   0.00000  Uiso   1.00
N701   N     0.16667   0.28402   0.75000   0.00000  Uiso   1.00
N702   N     0.16667   0.04931   0.75000   0.00000  Uiso   1.00
N703   N     0.07473   0.10492   0.85564   0.00000  Uiso   1.00
N704   N     0.25685   0.23145   0.63989   0.00000  Uiso   1.00
N705   N     0.08820   0.06829   0.66994   0.00000  Uiso   1.00
N706   N     0.24448   0.26508   0.83094   0.00000  Uiso   1.00
N707   N     0.24317   0.06921   0.83217   0.00000  Uiso   1.00
N708   N     0.09013   0.26415   0.66786   0.00000  Uiso   1.00
O709   O     0.10655   0.20625   0.75000   0.00000  Uiso   1.00
O710   O     0.29076   0.15433   0.57403   0.00000  Uiso   1.00
O711   O     0.06314   0.08169   0.57173   0.00000  Uiso   1.00
O712   O     0.28809   0.17177   0.92275   0.00000  Uiso   1.00
O713   O     0.22679   0.12709   0.75001   0.00000  Uiso   1.00
O714   O     0.22679   0.20625   0.75001   0.00000  Uiso   1.00
O715   O     0.10655   0.12709   0.75000   0.00000  Uiso   1.00
O716   O     0.16666   0.20627   0.68513   0.00000  Uiso   1.00
O717   O     0.16668   0.12707   0.81487   0.00000  Uiso   1.00
O718   O     0.16668   0.20627   0.81487   0.00000  Uiso   1.00
O719   O     0.16666   0.12707   0.68513   0.00000  Uiso   1.00
O720   O     0.03128   0.09770   0.95922   0.00000  Uiso   1.00
C721   C     0.42076   0.16667   0.74993   0.00000  Uiso   1.00
C722   C     0.37610   0.16668   0.74994   0.00000  Uiso   1.00
C723   C     0.47361   0.02468   0.72228   0.00000  Uiso   1.00
C724   C     0.52633   0.30865   0.77781   0.00000  Uiso   1.00
C725   C     0.52628   0.02491   0.77786   0.00000  Uiso   1.00
C726   C     0.47372   0.30842   0.72215   0.00000  Uiso   1.00
C727   C     0.50031   0.16658   0.66460   0.00000  Uiso   1.00
C728   C     0.49941   0.16670   0.83537   0.00000  Uiso   1.00
C729   C     0.53162   0.18315   0.90757   0.00000  Uiso   1.00
C730   C     0.46810   0.14703   0.59303   0.00000  Uiso   1.00
C731   C     0.49770   0.16646   0.88359   0.00000  Uiso   1.00
C732   C     0.57924   0.16666   0.75003   0.00000  Uiso   1.00
C733   C     0.50152   0.16598   0.61636   0.00000  Uiso   1.00
C734   C     0.46405   0.14721   0.90510   0.00000  Uiso   1.00
C735   C     0.53561   0.18293   0.59415   0.00000  Uiso   1.00
C736   C     0.46307   0.14881   0.95240   0.00000  Uiso   1.00
C737   C     0.53755   0.17671   0.54740   0.00000  Uiso   1.00
C738   C     0.49974   0.16253   0.97655   0.00000  Uiso   1.00
C739   C     0.50133   0.16159   0.52341   0.00000  Uiso   1.00
C740   C     0.53472   0.17811   0.95371   0.00000  Uiso   1.00
C741   C     0.46658   0.14597   0.54650   0.00000  Uiso   1.00
C742   C     0.42750   0.13620   0.97630   0.00000  Uiso   1.00
C743   C     0.43024   0.13195   0.52300   0.00000  Uiso   1.00
C744   C     0.57413   0.18522   0.52388   0.00000  Uiso   1.00
C745   C     0.43276   0.12369   0.87772   0.00000  Uiso   1.00
C746   C     0.56609   0.20990   0.61949   0.00000  Uiso   1.00
C747   C     0.38633   0.13169   0.95352   0.00000  Uiso   1.00
C748   C     0.61545   0.18448   0.54680   0.00000  Uiso   1.00
C749   C     0.39378   0.11524   0.54706   0.00000  Uiso   1.00
C750   C     0.61088   0.19706   0.95304   0.00000  Uiso   1.00
C751   C     0.44489   0.04914   0.69324   0.00000  Uiso   1.00
C752   C     0.55476   0.28419   0.80725   0.00000  Uiso   1.00
C753   C     0.55411   0.04970   0.80791   0.00000  Uiso   1.00
C754   C     0.57230   0.18771   0.97710   0.00000  Uiso   1.00
C755   C     0.44588   0.28364   0.69211   0.00000  Uiso   1.00
C756   C     0.35467   0.12444   0.75087   0.00000  Uiso   1.00
C757   C     0.64532   0.20889   0.74901   0.00000  Uiso   1.00
C758   C     0.64542   0.12443   0.75086   0.00000  Uiso   1.00
C759   C     0.35457   0.20890   0.74903   0.00000  Uiso   1.00
C760   C     0.62389   0.16666   0.74996   0.00000  Uiso   1.00
Cu761  Cu    0.50000   0.21355   0.75000   0.00000  Uiso   1.00
Cu762  Cu    0.50000   0.11978   0.75000   0.00000  Uiso   1.00
H763   H     0.55647   0.19801   0.88924   0.00000  Uiso   1.00
H764   H     0.63085   0.22556   0.96343   0.00000  Uiso   1.00
H765   H     0.44218   0.13603   0.61204   0.00000  Uiso   1.00
H766   H     0.37071   0.09142   0.75168   0.00000  Uiso   1.00
H767   H     0.62928   0.24192   0.74820   0.00000  Uiso   1.00
H768   H     0.62946   0.09140   0.75157   0.00000  Uiso   1.00
H769   H     0.37053   0.24194   0.74833   0.00000  Uiso   1.00
H770   H     0.37571   0.15851   0.93060   0.00000  Uiso   1.00
H771   H     0.63888   0.20958   0.53850   0.00000  Uiso   1.00
H772   H     0.36403   0.13163   0.54131   0.00000  Uiso   1.00
N773   N     0.50000   0.28402   0.75000   0.00000  Uiso   1.00
N774   N     0.50000   0.04931   0.75000   0.00000  Uiso   1.00
N775   N     0.40806   0.10492   0.85564   0.00000  Uiso   1.00
N776   N     0.59018   0.23145   0.63989   0.00000  Uiso   1.00
N777   N     0.42153   0.06829   0.66994   0.00000  Uiso   1.00
N778   N     0.57781   0.26508   0.83094   0.00000  Uiso   1.00
N779   N     0.57650   0.06921   0.83217   0.00000  Uiso   1.00
N780   N     0.42347   0.26415   0.66786   0.00000  Uiso   1.00
O781   O     0.43988   0.20625   0.75000   0.00000  Uiso   1.00
O782   O     0.62410   0.15433   0.57403   0.00000  Uiso   1.00
O783   O     0.39647   0.08169   0.57173   0.00000  Uiso   1.00
O784   O     0.62143   0.17177   0.92275   0.00000  Uiso   1.00
O785   O     0.56012   0.12709   0.75001   0.00000  Uiso   1.00
O786   O     0.56012   0.20625   0.75001   0.00000  Uiso   1.00
O787   O     0.43988   0.12709   0.75000   0.00000  Uiso   1.00
O788   O     0.49999   0.20627   0.68513   0.00000  Uiso   1.00
O789   O     0.50001   0.12707   0.81487   0.00000  Uiso   1.00
O790   O     0.50001   0.20627   0.81487   0.00000  Uiso   1.00
O791   O     0.49999   0.12707   0.68513   0.00000  Uiso   1.00
O792   O     0.36461   0.09770   0.95922   0.00000  Uiso   1.00
C793   C     0.75409   0.16667   0.74993   0.00000  Uiso   1.00
C794   C     0.70944   0.16668   0.74994   0.00000  Uiso   1.00
C795   C     0.80695   0.02468   0.72228   0.00000  Uiso   1.00
C796   C     0.85966   0.30865   0.77781   0.00000  Uiso   1.00
C797   C     0.85961   0.02491   0.77786   0.00000  Uiso   1.00
C798   C     0.80705   0.30842   0.72215   0.00000  Uiso   1.00
C799   C     0.83365   0.16658   0.66460   0.00000  Uiso   1.00
C800   C     0.83275   0.16670   0.83537   0.00000  Uiso   1.00
C801   C     0.86495   0.18315   0.90757   0.00000  Uiso   1.00
C802   C     0.80143   0.14703   0.59303   0.00000  Uiso   1.00
C803   C     0.83103   0.16646   0.88359   0.00000  Uiso   1.00
C804   C     0.91257   0.16666   0.75003   0.00000  Uiso   1.00
C805   C     0.83485   0.16598   0.61636   0.00000  Uiso   1.00
C806   C     0.79739   0.14721   0.90510   0.00000  Uiso   1.00
C807   C     0.86894   0.18293   0.59415   0.00000  Uiso   1.00
C808   C     0.79640   0.14881   0.95240   0.00000  Uiso   1.00
C809   C     0.87088   0.17671   0.54740   0.00000  Uiso   1.00
C810   C     0.83307   0.16253   0.97655   0.00000  Uiso   1.00
C811   C     0.83466   0.16159   0.52341   0.00000  Uiso   1.00
C812   C     0.86805   0.17811   0.95371   0.00000  Uiso   1.00
C813   C     0.79992   0.14597   0.54650   0.00000  Uiso   1.00
C814   C     0.76084   0.13620   0.97630   0.00000  Uiso   1.00
C815   C     0.76357   0.13195   0.52300   0.00000  Uiso   1.00
C816   C     0.90746   0.18522   0.52388   0.00000  Uiso   1.00
C817   C     0.76609   0.12369   0.87772   0.00000  Uiso   1.00
C818   C     0.89942   0.20990   0.61949   0.00000  Uiso   1.00
C819   C     0.71966   0.13169   0.95352   0.00000  Uiso   1.00
C820   C     0.94879   0.18448   0.54680   0.00000  Uiso   1.00
C821   C     0.72711   0.11524   0.54706   0.00000  Uiso   1.00
C822   C     0.94421   0.19706   0.95304   0.00000  Uiso   1.00
C823   C     0.77822   0.04914   0.69324   0.00000  Uiso   1.00
C824   C     0.88809   0.28419   0.80725   0.00000  Uiso   1.00
C825   C     0.88744   0.04970   0.80791   0.00000  Uiso   1.00
C826   C     0.90564   0.18771   0.97710   0.00000  Uiso   1.00
C827   C     0.77921   0.28364   0.69211   0.00000  Uiso   1.00
C828   C     0.68801   0.12444   0.75087   0.00000  Uiso   1.00
C829   C     0.97865   0.20889   0.74901   0.00000  Uiso   1.00
C830   C     0.97875   0.12443   0.75086   0.00000  Uiso   1.00
C831   C     0.68791   0.20890   0.74903   0.00000  Uiso   1.00
C832   C     0.95722   0.16666   0.74996   0.00000  Uiso   1.00
Cu833  Cu    0.83333   0.21355   0.75000   0.00000  Uiso   1.00
Cu834  Cu    0.83333   0.11978   0.75000   0.00000  Uiso   1.00
H835   H     0.88980   0.19801   0.88924   0.00000  Uiso   1.00
H836   H     0.96418   0.22556   0.96343   0.00000  Uiso   1.00
H837   H     0.77552   0.13603   0.61204   0.00000  Uiso   1.00
H838   H     0.70404   0.09142   0.75168   0.00000  Uiso   1.00
H839   H     0.96261   0.24192   0.74820   0.00000  Uiso   1.00
H840   H     0.96280   0.09140   0.75157   0.00000  Uiso   1.00
H841   H     0.70386   0.24194   0.74833   0.00000  Uiso   1.00
H842   H     0.70904   0.15851   0.93060   0.00000  Uiso   1.00
H843   H     0.97221   0.20958   0.53850   0.00000  Uiso   1.00
H844   H     0.69737   0.13163   0.54131   0.00000  Uiso   1.00
N845   N     0.83333   0.28402   0.75000   0.00000  Uiso   1.00
N846   N     0.83333   0.04931   0.75000   0.00000  Uiso   1.00
N847   N     0.74140   0.10492   0.85564   0.00000  Uiso   1.00
N848   N     0.92352   0.23145   0.63989   0.00000  Uiso   1.00
N849   N     0.75487   0.06829   0.66994   0.00000  Uiso   1.00
N850   N     0.91115   0.26508   0.83094   0.00000  Uiso   1.00
N851   N     0.90983   0.06921   0.83217   0.00000  Uiso   1.00
N852   N     0.75680   0.26415   0.66786   0.00000  Uiso   1.00
O853   O     0.77321   0.20625   0.75000   0.00000  Uiso   1.00
O854   O     0.95743   0.15433   0.57403   0.00000  Uiso   1.00
O855   O     0.72981   0.08169   0.57173   0.00000  Uiso   1.00
O856   O     0.95476   0.17177   0.92275   0.00000  Uiso   1.00
O857   O     0.89345   0.12709   0.75001   0.00000  Uiso   1.00
O858   O     0.89345   0.20625   0.75001   0.00000  Uiso   1.00
O859   O     0.77321   0.12709   0.75000   0.00000  Uiso   1.00
O860   O     0.83332   0.20627   0.68513   0.00000  Uiso   1.00
O861   O     0.83334   0.12707   0.81487   0.00000  Uiso   1.00
O862   O     0.83334   0.20627   0.81487   0.00000  Uiso   1.00
O863   O     0.83332   0.12707   0.68513   0.00000  Uiso   1.00
O864   O     0.69794   0.09770   0.95922   0.00000  Uiso   1.00
C865   C     0.08742   0.50001   0.74993   0.00000  Uiso   1.00
C866   C     0.04277   0.50001   0.74994   0.00000  Uiso   1.00
C867   C     0.14028   0.35801   0.72228   0.00000  Uiso   1.00
C868   C     0.19300   0.64198   0.77781   0.00000  Uiso   1.00
C869   C     0.19295   0.35825   0.77786   0.00000  Uiso   1.00
C870   C     0.14039   0.64175   0.72215   0.00000  Uiso   1.00
C871   C     0.16698   0.49992   0.66460   0.00000  Uiso   1.00
C872   C     0.16608   0.50003   0.83537   0.00000  Uiso   1.00
C873   C     0.19828   0.51648   0.90757   0.00000  Uiso   1.00
C874   C     0.13477   0.48036   0.59303   0.00000  Uiso   1.00
C875   C     0.16437   0.49979   0.88359   0.00000  Uiso   1.00
C876   C     0.24591   0.49999   0.75003   0.00000  Uiso   1.00
C877   C     0.16819   0.49931   0.61636   0.00000  Uiso   1.00
C878   C     0.13072   0.48055   0.90510   0.00000  Uiso   1.00
C879   C     0.20227   0.51627   0.59415   0.00000  Uiso   1.00
C880   C     0.12974   0.48215   0.95240   0.00000  Uiso   1.00
C881   C     0.20422   0.51004   0.54740   0.00000  Uiso   1.00
C882   C     0.16641   0.49587   0.97655   0.00000  Uiso   1.00
C883   C     0.16800   0.49492   0.52341   0.00000  Uiso   1.00
C884   C     0.20138   0.51144   0.95371   0.00000  Uiso   1.00
C885   C     0.13325   0.47930   0.54650   0.00000  Uiso   1.00
C886   C     0.09417   0.46953   0.97630   0.00000  Uiso   1.00
C887   C     0.09691   0.46528   0.52300   0.00000  Uiso   1.00
C888   C     0.24080   0.51855   0.52388   0.00000  Uiso   1.00
C889   C     0.09943   0.45703   0.87772   0.00000  Uiso   1.00
C890   C     0.23276   0.54323   0.61949   0.00000  Uiso   1.00
C891   C     0.05299   0.46502   0.95352   0.00000  Uiso   1.00
C892   C     0.28212   0.51781   0.54680   0.00000  Uiso   1.00
C893   C     0.06044   0.44857   0.54706   0.00000  Uiso   1.00
C894   C     0.27755   0.53039   0.95304   0.00000  Uiso   1.00
C895   C     0.11156   0.38248   0.69324   0.00000  Uiso   1.00
C896   C     0.22142   0.61752   0.80725   0.00000  Uiso   1.00
C897   C     0.22077   0.38304   0.80791   0.00000  Uiso   1.00
C898   C     0.23897   0.52104   0.97710   0.00000  Uiso   1.00
C899   C     0.11255   0.61698   0.69211   0.00000  Uiso   1.00
C900   C     0.02134   0.45778   0.75087   0.00000  Uiso   1.00
C901   C     0.31198   0.54223   0.74901   0.00000  Uiso   1.00
C902   C     0.31208   0.45777   0.75086   0.00000  Uiso   1.00
C903   C     0.02124   0.54224   0.74903   0.00000  Uiso   1.00
C904   C     0.29056   0.49999   0.74996   0.00000  Uiso   1.00
Cu905  Cu    0.16667   0.54689   0.75000   0.00000  Uiso   1.00
Cu906  Cu    0.16667   0.45311   0.75000   0.00000  Uiso   1.00
H907   H     0.22313   0.53135   0.88924   0.00000  Uiso   1.00
H908   H     0.29752   0.55890   0.96343   0.00000  Uiso   1.00
H909   H     0.10885   0.46936   0.61204   0.00000  Uiso   1.00
H910   H     0.03738   0.42475   0.75168   0.00000  Uiso   1.00
H911   H     0.29594   0.57525   0.74820   0.00000  Uiso   1.00
H912   H     0.29613   0.42473   0.75157   0.00000  Uiso   1.00
H913   H     0.03720   0.57527   0.74833   0.00000  Uiso   1.00
H914   H     0.04238   0.49184   0.93060   0.00000  Uiso   1.00
H915   H     0.30554   0.54291   0.53850   0.00000  Uiso   1.00
H916   H     0.03070   0.46497   0.54131   0.00000  Uiso   1.00
N917   N     0.16667   0.61736   0.75000   0.00000  Uiso   1.00
N918   N     0.16667   0.38264   0.75000   0.00000  Uiso   1.00
N919   N     0.07473   0.43825   0.85564   0.00000  Uiso   1.00
N920   N     0.25685   0.56479   0.63989   0.00000  Uiso   1.00
N921   N     0.08820   0.40163   0.66994   0.00000  Uiso   1.00
N922   N     0.24448   0.59841   0.83094   0.00000  Uiso   1.00
N923   N     0.24317   0.40254   0.83217   0.00000  Uiso   1.00
N924   N     0.09013   0.59748   0.66786   0.00000  Uiso   1.00
O925   O     0.10655   0.53958   0.75000   0.00000  Uiso   1.00
O926   O     0.29076   0.48766   0.57403   0.00000  Uiso   1.00
O927   O     0.06314   0.41502   0.57173   0.00000  Uiso   1.00
O928   O     0.28809   0.50510   0.92275   0.00000  Uiso   1.00
O929   O     0.22679   0.46042   0.75001   0.00000  Uiso   1.00
O930   O     0.22679   0.53958   0.75001   0.00000  Uiso   1.00
O931   O     0.10655   0.46042   0.75000   0.00000  Uiso   1.00
O932   O     0.16666   0.53960   0.68513   0.00000  Uiso   1.00
O933   O     0.16668   0.46040   0.81487   0.00000  Uiso   1.00
O934   O     0.16668   0.53960   0.81487   0.00000  Uiso   1.00
O935   O     0.16666   0.46040   0.68513   0.00000  Uiso   1.00
O936   O     0.03128   0.43104   0.95922   0.00000  Uiso   1.00
C937   C     0.42076   0.50001   0.74993   0.00000  Uiso   1.00
C938   C     0.37610   0.50001   0.74994   0.00000  Uiso   1.00
C939   C     0.47361   0.35801   0.72228   0.00000  Uiso   1.00
C940   C     0.52633   0.64198   0.77781   0.00000  Uiso   1.00
C941   C     0.52628   0.35825   0.77786   0.00000  Uiso   1.00
C942   C     0.47372   0.64175   0.72215   0.00000  Uiso   1.00
C943   C     0.50031   0.49992   0.66460   0.00000  Uiso   1.00
C944   C     0.49941   0.50003   0.83537   0.00000  Uiso   1.00
C945   C     0.53162   0.51648   0.90757   0.00000  Uiso   1.00
C946   C     0.46810   0.48036   0.59303   0.00000  Uiso   1.00
C947   C     0.49770   0.49979   0.88359   0.00000  Uiso   1.00
C948   C     0.57924   0.49999   0.75003   0.00000  Uiso   1.00
C949   C     0.50152   0.49931   0.61636   0.00000  Uiso   1.00
C950   C     0.46405   0.48055   0.90510   0.00000  Uiso   1.00
C951   C     0.53561   0.51627   0.59415   0.00000  Uiso   1.00
C952   C     0.46307   0.48215   0.95240   0.00000  Uiso   1.00
C953   C     0.53755   0.51004   0.54740   0.00000  Uiso   1.00
C954   C     0.49974   0.49587   0.97655   0.00000  Uiso   1.00
C955   C     0.50133   0.49492   0.52341   0.00000  Uiso   1.00
C956   C     0.53472   0.51144   0.95371   0.00000  Uiso   1.00
C957   C     0.46658   0.47930   0.54650   0.00000  Uiso   1.00
C958   C     0.42750   0.46953   0.97630   0.00000  Uiso   1.00
C959   C     0.43024   0.46528   0.52300   0.00000  Uiso   1.00
C960   C     0.57413   0.51855   0.52388   0.00000  Uiso   1.00
C961   C     0.43276   0.45703   0.87772   0.00000  Uiso   1.00
C962   C     0.56609   0.54323   0.61949   0.00000  Uiso   1.00
C963   C     0.38633   0.46502   0.95352   0.00000  Uiso   1.00
C964   C     0.61545   0.51781   0.54680   0.00000  Uiso   1.00
C965   C     0.39378   0.44857   0.54706   0.00000  Uiso   1.00
C966   C     0.61088   0.53039   0.95304   0.00000  Uiso   1.00
C967   C     0.44489   0.38248   0.69324   0.00000  Uiso   1.00
C968   C     0.55476   0.61752   0.80725   0.00000  Uiso   1.00
C969   C     0.55411   0.38304   0.80791   0.00000  Uiso   1.00
C970   C     0.57230   0.52104   0.97710   0.00000  Uiso   1.00
C971   C     0.44588   0.61698   0.69211   0.00000  Uiso   1.00
C972   C     0.35467   0.45778   0.75087   0.00000  Uiso   1.00
C973   C     0.64532   0.54223   0.74901   0.00000  Uiso   1.00
C974   C     0.64542   0.45777   0.75086   0.00000  Uiso   1.00
C975   C     0.35457   0.54224   0.74903   0.00000  Uiso   1.00
C976   C     0.62389   0.49999   0.74996   0.00000  Uiso   1.00
Cu977  Cu    0.50000   0.54689   0.75000   0.00000  Uiso   1.00
Cu978  Cu    0.50000   0.45311   0.75000   0.00000  Uiso   1.00
H979   H     0.55647   0.53135   0.88924   0.00000  Uiso   1.00
H980   H     0.63085   0.55890   0.96343   0.00000  Uiso   1.00
H981   H     0.44218   0.46936   0.61204   0.00000  Uiso   1.00
H982   H     0.37071   0.42475   0.75168   0.00000  Uiso   1.00
H983   H     0.62928   0.57525   0.74820   0.00000  Uiso   1.00
H984   H     0.62946   0.42473   0.75157   0.00000  Uiso   1.00
H985   H     0.37053   0.57527   0.74833   0.00000  Uiso   1.00
H986   H     0.37571   0.49184   0.93060   0.00000  Uiso   1.00
H987   H     0.63888   0.54291   0.53850   0.00000  Uiso   1.00
H988   H     0.36403   0.46497   0.54131   0.00000  Uiso   1.00
N989   N     0.50000   0.61736   0.75000   0.00000  Uiso   1.00
N990   N     0.50000   0.38264   0.75000   0.00000  Uiso   1.00
N991   N     0.40806   0.43825   0.85564   0.00000  Uiso   1.00
N992   N     0.59018   0.56479   0.63989   0.00000  Uiso   1.00
N993   N     0.42153   0.40163   0.66994   0.00000  Uiso   1.00
N994   N     0.57781   0.59841   0.83094   0.00000  Uiso   1.00
N995   N     0.57650   0.40254   0.83217   0.00000  Uiso   1.00
N996   N     0.42347   0.59748   0.66786   0.00000  Uiso   1.00
O997   O     0.43988   0.53958   0.75000   0.00000  Uiso   1.00
O998   O     0.62410   0.48766   0.57403   0.00000  Uiso   1.00
O999   O     0.39647   0.41502   0.57173   0.00000  Uiso   1.00
O1000  O     0.62143   0.50510   0.92275   0.00000  Uiso   1.00
O1001  O     0.56012   0.46042   0.75001   0.00000  Uiso   1.00
O1002  O     0.56012   0.53958   0.75001   0.00000  Uiso   1.00
O1003  O     0.43988   0.46042   0.75000   0.00000  Uiso   1.00
O1004  O     0.49999   0.53960   0.68513   0.00000  Uiso   1.00
O1005  O     0.50001   0.46040   0.81487   0.00000  Uiso   1.00
O1006  O     0.50001   0.53960   0.81487   0.00000  Uiso   1.00
O1007  O     0.49999   0.46040   0.68513   0.00000  Uiso   1.00
O1008  O     0.36461   0.43104   0.95922   0.00000  Uiso   1.00
C1009  C     0.75409   0.50001   0.74993   0.00000  Uiso   1.00
C1010  C     0.70944   0.50001   0.74994   0.00000  Uiso   1.00
C1011  C     0.80695   0.35801   0.72228   0.00000  Uiso   1.00
C1012  C     0.85966   0.64198   0.77781   0.00000  Uiso   1.00
C1013  C     0.85961   0.35825   0.77786   0.00000  Uiso   1.00
C1014  C     0.80705   0.64175   0.72215   0.00000  Uiso   1.00
C1015  C     0.83365   0.49992   0.66460   0.00000  Uiso   1.00
C1016  C     0.83275   0.50003   0.83537   0.00000  Uiso   1.00
C1017  C     0.86495   0.51648   0.90757   0.00000  Uiso   1.00
C1018  C     0.80143   0.48036   0.59303   0.00000  Uiso   1.00
C1019  C     0.83103   0.49979   0.88359   0.00000  Uiso   1.00
C1020  C     0.91257   0.49999   0.75003   0.00000  Uiso   1.00
C1021  C     0.83485   0.49931   0.61636   0.00000  Uiso   1.00
C1022  C     0.79739   0.48055   0.90510   0.00000  Uiso   1.00
C1023  C     0.86894   0.51627   0.59415   0.00000  Uiso   1.00
C1024  C     0.79640   0.48215   0.95240   0.00000  Uiso   1.00
C1025  C     0.87088   0.51004   0.54740   0.00000  Uiso   1.00
C1026  C     0.83307   0.49587   0.97655   0.00000  Uiso   1.00
C1027  C     0.83466   0.49492   0.52341   0.00000  Uiso   1.00
C1028  C     0.86805   0.51144   0.95371   0.00000  Uiso   1.00
C1029  C     0.79992   0.47930   0.54650   0.00000  Uiso   1.00
C1030  C     0.76084   0.46953   0.97630   0.00000  Uiso   1.00
C1031  C     0.76357   0.46528   0.52300   0.00000  Uiso   1.00
C1032  C     0.90746   0.51855   0.52388   0.00000  Uiso   1.00
C1033  C     0.76609   0.45703   0.87772   0.00000  Uiso   1.00
C1034  C     0.89942   0.54323   0.61949   0.00000  Uiso   1.00
C1035  C     0.71966   0.46502   0.95352   0.00000  Uiso   1.00
C1036  C     0.94879   0.51781   0.54680   0.00000  Uiso   1.00
C1037  C     0.72711   0.44857   0.54706   0.00000  Uiso   1.00
C1038  C     0.94421   0.53039   0.95304   0.00000  Uiso   1.00
C1039  C     0.77822   0.38248   0.69324   0.00000  Uiso   1.00
C1040  C     0.88809   0.61752   0.80725   0.00000  Uiso   1.00
C1041  C     0.88744   0.38304   0.80791   0.00000  Uiso   1.00
C1042  C     0.90564   0.52104   0.97710   0.00000  Uiso   1.00
C1043  C     0.77921   0.61698   0.69211   0.00000  Uiso   1.00
C1044  C     0.68801   0.45778   0.75087   0.00000  Uiso   1.00
C1045  C     0.97865   0.54223   0.74901   0.00000  Uiso   1.00
C1046  C     0.97875   0.45777   0.75086   0.00000  Uiso   1.00
C1047  C     0.68791   0.54224   0.74903   0.00000  Uiso   1.00
C1048  C     0.95722   0.49999   0.74996   0.00000  Uiso   1.00
Cu1049 Cu    0.83333   0.54689   0.75000   0.00000  Uiso   1.00
Cu1050 Cu    0.83333   0.45311   0.75000   0.00000  Uiso   1.00
H1051  H     0.88980   0.53135   0.88924   0.00000  Uiso   1.00
H1052  H     0.96418   0.55890   0.96343   0.00000  Uiso   1.00
H1053  H     0.77552   0.46936   0.61204   0.00000  Uiso   1.00
H1054  H     0.70404   0.42475   0.75168   0.00000  Uiso   1.00
H1055  H     0.96261   0.57525   0.74820   0.00000  Uiso   1.00
H1056  H     0.96280   0.42473   0.75157   0.00000  Uiso   1.00
H1057  H     0.70386   0.57527   0.74833   0.00000  Uiso   1.00
H1058  H     0.70904   0.49184   0.93060   0.00000  Uiso   1.00
H1059  H     0.97221   0.54291   0.53850   0.00000  Uiso   1.00
H1060  H     0.69737   0.46497   0.54131   0.00000  Uiso   1.00
N1061  N     0.83333   0.61736   0.75000   0.00000  Uiso   1.00
N1062  N     0.83333   0.38264   0.75000   0.00000  Uiso   1.00
N1063  N     0.74140   0.43825   0.85564   0.00000  Uiso   1.00
N1064  N     0.92352   0.56479   0.63989   0.00000  Uiso   1.00
N1065  N     0.75487   0.40163   0.66994   0.00000  Uiso   1.00
N1066  N     0.91115   0.59841   0.83094   0.00000  Uiso   1.00
N1067  N     0.90983   0.40254   0.83217   0.00000  Uiso   1.00
N1068  N     0.75680   0.59748   0.66786   0.00000  Uiso   1.00
O1069  O     0.77321   0.53958   0.75000   0.00000  Uiso   1.00
O1070  O     0.95743   0.48766   0.57403   0.00000  Uiso   1.00
O1071  O     0.72981   0.41502   0.57173   0.00000  Uiso   1.00
O1072  O     0.95476   0.50510   0.92275   0.00000  Uiso   1.00
O1073  O     0.89345   0.46042   0.75001   0.00000  Uiso   1.00
O1074  O     0.89345   0.53958   0.75001   0.00000  Uiso   1.00
O1075  O     0.77321   0.46042   0.75000   0.00000  Uiso   1.00
O1076  O     0.83332   0.53960   0.68513   0.00000  Uiso   1.00
O1077  O     0.83334   0.46040   0.81487   0.00000  Uiso   1.00
O1078  O     0.83334   0.53960   0.81487   0.00000  Uiso   1.00
O1079  O     0.83332   0.46040   0.68513   0.00000  Uiso   1.00
O1080  O     0.69794   0.43104   0.95922   0.00000  Uiso   1.00
C1081  C     0.08742   0.83334   0.74993   0.00000  Uiso   1.00
C1082  C     0.04277   0.83334   0.74994   0.00000  Uiso   1.00
C1083  C     0.14028   0.69134   0.72228   0.00000  Uiso   1.00
C1084  C     0.19300   0.97532   0.77781   0.00000  Uiso   1.00
C1085  C     0.19295   0.69158   0.77786   0.00000  Uiso   1.00
C1086  C     0.14039   0.97509   0.72215   0.00000  Uiso   1.00
C1087  C     0.16698   0.83325   0.66460   0.00000  Uiso   1.00
C1088  C     0.16608   0.83337   0.83537   0.00000  Uiso   1.00
C1089  C     0.19828   0.84981   0.90757   0.00000  Uiso   1.00
C1090  C     0.13477   0.81369   0.59303   0.00000  Uiso   1.00
C1091  C     0.16437   0.83312   0.88359   0.00000  Uiso   1.00
C1092  C     0.24591   0.83333   0.75003   0.00000  Uiso   1.00
C1093  C     0.16819   0.83264   0.61636   0.00000  Uiso   1.00
C1094  C     0.13072   0.81388   0.90510   0.00000  Uiso   1.00
C1095  C     0.20227   0.84960   0.59415   0.00000  Uiso   1.00
C1096  C     0.12974   0.81548   0.95240   0.00000  Uiso   1.00
C1097  C     0.20422   0.84337   0.54740   0.00000  Uiso   1.00
C1098  C     0.16641   0.82920   0.97655   0.00000  Uiso   1.00
C1099  C     0.16800   0.82826   0.52341   0.00000  Uiso   1.00
C1100  C     0.20138   0.84478   0.95371   0.00000  Uiso   1.00
C1101  C     0.13325   0.81264   0.54650   0.00000  Uiso   1.00
C1102  C     0.09417   0.80287   0.97630   0.00000  Uiso   1.00
C1103  C     0.09691   0.79861   0.52300   0.00000  Uiso   1.00
C1104  C     0.24080   0.85189   0.52388   0.00000  Uiso   1.00
C1105  C     0.09943   0.79036   0.87772   0.00000  Uiso   1.00
C1106  C     0.23276   0.87657   0.61949   0.00000  Uiso   1.00
C1107  C     0.05299   0.79835   0.95352   0.00000  Uiso   1.00
C1108  C     0.28212   0.85115   0.54680   0.00000  Uiso   1.00
C1109  C     0.06044   0.78190   0.54706   0.00000  Uiso   1.00
C1110  C     0.27755   0.86373   0.95304   0.00000  Uiso   1.00
C1111  C     0.11156   0.71581   0.69324   0.00000  Uiso   1.00
C1112  C     0.22142   0.95085   0.80725   0.00000  Uiso   1.00
C1113  C     0.22077   0.71637   0.80791   0.00000  Uiso   1.00
C1114  C     0.23897   0.85438   0.97710   0.00000  Uiso   1.00
C1115  C     0.11255   0.95031   0.69211   0.00000  Uiso   1.00
C1116  C     0.02134   0.79111   0.75087   0.00000  Uiso   1.00
C1117  C     0.31198   0.87556   0.74901   0.00000  Uiso   1.00
C1118  C     0.31208   0.79110   0.75086   0.00000  Uiso   1.00
C1119  C     0.02124   0.87557   0.74903   0.00000  Uiso   1.00
C1120  C     0.29056   0.83333   0.74996   0.00000  Uiso   1.00
Cu1121 Cu    0.16667   0.88022   0.75000   0.00000  Uiso   1.00
Cu1122 Cu    0.16667   0.78645   0.75000   0.00000  Uiso   1.00
H1123  H     0.22313   0.86468   0.88924   0.00000  Uiso   1.00
H1124  H     0.29752   0.89223   0.96343   0.00000  Uiso   1.00
H1125  H     0.10885   0.80270   0.61204   0.00000  Uiso   1.00
H1126  H     0.03738   0.75808   0.75168   0.00000  Uiso   1.00
H1127  H     0.29594   0.90859   0.74820   0.00000  Uiso   1.00
H1128  H     0.29613   0.75807   0.75157   0.00000  Uiso   1.00
H1129  H     0.03720   0.90860   0.74833   0.00000  Uiso   1.00
H1130  H     0.04238   0.82518   0.93060   0.00000  Uiso   1.00
H1131  H     0.30554   0.87625   0.53850   0.00000  Uiso   1.00
H1132  H     0.03070   0.79830   0.54131   0.00000  Uiso   1.00
N1133  N     0.16667   0.95069   0.75000   0.00000  Uiso   1.00
N1134  N     0.16667   0.71598   0.75000   0.00000  Uiso   1.00
N1135  N     0.07473   0.77159   0.85564   0.00000  Uiso   1.00
N1136  N     0.25685   0.89812   0.63989   0.00000  Uiso   1.00
N1137  N     0.08820   0.73496   0.66994   0.00000  Uiso   1.00
N1138  N     0.24448   0.93174   0.83094   0.00000  Uiso   1.00
N1139  N     0.24317   0.73588   0.83217   0.00000  Uiso   1.00
N1140  N     0.09013   0.93082   0.66786   0.00000  Uiso   1.00
O1141  O     0.10655   0.87291   0.75000   0.00000  Uiso   1.00
O1142  O     0.29076   0.82100   0.57403   0.00000  Uiso   1.00
O1143  O     0.06314   0.74836   0.57173   0.00000  Uiso   1.00
O1144  O     0.28809   0.83843   0.92275   0.00000  Uiso   1.00
O1145  O     0.22679   0.79375   0.75001   0.00000  Uiso   1.00
O1146  O     0.22679   0.87291   0.75001   0.00000  Uiso   1.00
O1147  O     0.10655   0.79375   0.75000   0.00000  Uiso   1.00
O1148  O     0.16666   0.87293   0.68513   0.00000  Uiso   1.00
O1149  O     0.16668   0.79373   0.81487   0.00000  Uiso   1.00
O1150  O     0.16668   0.87293   0.81487   0.00000  Uiso   1.00
O1151  O     0.16666   0.79373   0.68513   0.00000  Uiso   1.00
O1152  O     0.03128   0.76437   0.95922   0.00000  Uiso   1.00
C1153  C     0.42076   0.83334   0.74993   0.00000  Uiso   1.00
C1154  C     0.37610   0.83334   0.74994   0.00000  Uiso   1.00
C1155  C     0.47361   0.69134   0.72228   0.00000  Uiso   1.00
C1156  C     0.52633   0.97532   0.77781   0.00000  Uiso   1.00
C1157  C     0.52628   0.69158   0.77786   0.00000  Uiso   1.00
C1158  C     0.47372   0.97509   0.72215   0.00000  Uiso   1.00
C1159  C     0.50031   0.83325   0.66460   0.00000  Uiso   1.00
C1160  C     0.49941   0.83337   0.83537   0.00000  Uiso   1.00
C1161  C     0.53162   0.84981   0.90757   0.00000  Uiso   1.00
C1162  C     0.46810   0.81369   0.59303   0.00000  Uiso   1.00
C1163  C     0.49770   0.83312   0.88359   0.00000  Uiso   1.00
C1164  C     0.57924   0.83333   0.75003   0.00000  Uiso   1.00
C1165  C     0.50152   0.83264   0.61636   0.00000  Uiso   1.00
C1166  C     0.46405   0.81388   0.90510   0.00000  Uiso   1.00
C1167  C     0.53561   0.84960   0.59415   0.00000  Uiso   1.00
C1168  C     0.46307   0.81548   0.95240   0.00000  Uiso   1.00
C1169  C     0.53755   0.84337   0.54740   0.00000  Uiso   1.00
C1170  C     0.49974   0.82920   0.97655   0.00000  Uiso   1.00
C1171  C     0.50133   0.82826   0.52341   0.00000  Uiso   1.00
C1172  C     0.53472   0.84478   0.95371   0.00000  Uiso   1.00
C1173  C     0.46658   0.81264   0.54650   0.00000  Uiso   1.00
C1174  C     0.42750   0.80287   0.97630   0.00000  Uiso   1.00
C1175  C     0.43024   0.79861   0.52300   0.00000  Uiso   1.00
C1176  C     0.57413   0.85189   0.52388   0.00000  Uiso   1.00
C1177  C     0.43276   0.79036   0.87772   0.00000  Uiso   1.00
C1178  C     0.56609   0.87657   0.61949   0.00000  Uiso   1.00
C1179  C     0.38633   0.79835   0.95352   0.00000  Uiso   1.00
C1180  C     0.61545   0.85115   0.54680   0.00000  Uiso   1.00
C1181  C     0.39378   0.78190   0.54706   0.00000  Uiso   1.00
C1182  C     0.61088   0.86373   0.95304   0.00000  Uiso   1.00
C1183  C     0.44489   0.71581   0.69324   0.00000  Uiso   1.00
C1184  C     0.55476   0.95085   0.80725   0.00000  Uiso   1.00
C1185  C     0.55411   0.71637   0.80791   0.00000  Uiso   1.00
C1186  C     0.57230   0.85438   0.97710   0.00000  Uiso   1.00
C1187  C     0.44588   0.95031   0.69211   0.00000  Uiso   1.00
C1188  C     0.35467   0.79111   0.75087   0.00000  Uiso   1.00
C1189  C     0.64532   0.87556   0.74901   0.00000  Uiso   1.00
C1190  C     0.64542   0.79110   0.75086   0.00000  Uiso   1.00
C1191  C     0.35457   0.87557   0.74903   0.00000  Uiso   1.00
C1192  C     0.62389   0.83333   0.74996   0.00000  Uiso   1.00
Cu1193 Cu    0.50000   0.88022   0.75000   0.00000  Uiso   1.00
Cu1194 Cu    0.50000   0.78645   0.75000   0.00000  Uiso   1.00
H1195  H     0.55647   0.86468   0.88924   0.00000  Uiso   1.00
H1196  H     0.63085   0.89223   0.96343   0.00000  Uiso   1.00
H1197  H     0.44218   0.80270   0.61204   0.00000  Uiso   1.00
H1198  H     0.37071   0.75808   0.75168   0.00000  Uiso   1.00
H1199  H     0.62928   0.90859   0.74820   0.00000  Uiso   1.00
H1200  H     0.62946   0.75807   0.75157   0.00000  Uiso   1.00
H1201  H     0.37053   0.90860   0.74833   0.00000  Uiso   1.00
H1202  H     0.37571   0.82518   0.93060   0.00000  Uiso   1.00
H1203  H     0.63888   0.87625   0.53850   0.00000  Uiso   1.00
H1204  H     0.36403   0.79830   0.54131   0.00000  Uiso   1.00
N1205  N     0.50000   0.95069   0.75000   0.00000  Uiso   1.00
N1206  N     0.50000   0.71598   0.75000   0.00000  Uiso   1.00
N1207  N     0.40806   0.77159   0.85564   0.00000  Uiso   1.00
N1208  N     0.59018   0.89812   0.63989   0.00000  Uiso   1.00
N1209  N     0.42153   0.73496   0.66994   0.00000  Uiso   1.00
N1210  N     0.57781   0.93174   0.83094   0.00000  Uiso   1.00
N1211  N     0.57650   0.73588   0.83217   0.00000  Uiso   1.00
N1212  N     0.42347   0.93082   0.66786   0.00000  Uiso   1.00
O1213  O     0.43988   0.87291   0.75000   0.00000  Uiso   1.00
O1214  O     0.62410   0.82100   0.57403   0.00000  Uiso   1.00
O1215  O     0.39647   0.74836   0.57173   0.00000  Uiso   1.00
O1216  O     0.62143   0.83843   0.92275   0.00000  Uiso   1.00
O1217  O     0.56012   0.79375   0.75001   0.00000  Uiso   1.00
O1218  O     0.56012   0.87291   0.75001   0.00000  Uiso   1.00
O1219  O     0.43988   0.79375   0.75000   0.00000  Uiso   1.00
O1220  O     0.49999   0.87293   0.68513   0.00000  Uiso   1.00
O1221  O     0.50001   0.79373   0.81487   0.00000  Uiso   1.00
O1222  O     0.50001   0.87293   0.81487   0.00000  Uiso   1.00
O1223  O     0.49999   0.79373   0.68513   0.00000  Uiso   1.00
O1224  O     0.36461   0.76437   0.95922   0.00000  Uiso   1.00
C1225  C     0.75409   0.83334   0.74993   0.00000  Uiso   1.00
C1226  C     0.70944   0.83334   0.74994   0.00000  Uiso   1.00
C1227  C     0.80695   0.69134   0.72228   0.00000  Uiso   1.00
C1228  C     0.85966   0.97532   0.77781   0.00000  Uiso   1.00
C1229  C     0.85961   0.69158   0.77786   0.00000  Uiso   1.00
C1230  C     0.80705   0.97509   0.72215   0.00000  Uiso   1.00
C1231  C     0.83365   0.83325   0.66460   0.00000  Uiso   1.00
C1232  C     0.83275   0.83337   0.83537   0.00000  Uiso   1.00
C1233  C     0.86495   0.84981   0.90757   0.00000  Uiso   1.00
C1234  C     0.80143   0.81369   0.59303   0.00000  Uiso   1.00
C1235  C     0.83103   0.83312   0.88359   0.00000  Uiso   1.00
C1236  C     0.91257   0.83333   0.75003   0.00000  Uiso   1.00
C1237  C     0.83485   0.83264   0.61636   0.00000  Uiso   1.00
C1238  C     0.79739   0.81388   0.90510   0.00000  Uiso   1.00
C1239  C     0.86894   0.84960   0.59415   0.00000  Uiso   1.00
C1240  C     0.79640   0.81548   0.95240   0.00000  Uiso   1.00
C1241  C     0.87088   0.84337   0.54740   0.00000  Uiso   1.00
C1242  C     0.83307   0.82920   0.97655   0.00000  Uiso   1.00
C1243  C     0.83466   0.82826   0.52341   0.00000  Uiso   1.00
C1244  C     0.86805   0.84478   0.95371   0.00000  Uiso   1.00
C1245  C     0.79992   0.81264   0.54650   0.00000  Uiso   1.00
C1246  C     0.76084   0.80287   0.97630   0.00000  Uiso   1.00
C1247  C     0.76357   0.79861   0.52300   0.00000  Uiso   1.00
C1248  C     0.90746   0.85189   0.52388   0.00000  Uiso   1.00
C1249  C     0.76609   0.79036   0.87772   0.00000  Uiso   1.00
C1250  C     0.89942   0.87657   0.61949   0.00000  Uiso   1.00
C1251  C     0.71966   0.79835   0.95352   0.00000  Uiso   1.00
C1252  C     0.94879   0.85115   0.54680   0.00000  Uiso   1.00
C1253  C     0.72711   0.78190   0.54706   0.00000  Uiso   1.00
C1254  C     0.94421   0.86373   0.95304   0.00000  Uiso   1.00
C1255  C     0.77822   0.71581   0.69324   0.00000  Uiso   1.00
C1256  C     0.88809   0.95085   0.80725   0.00000  Uiso   1.00
C1257  C     0.88744   0.71637   0.80791   0.00000  Uiso   1.00
C1258  C     0.90564   0.85438   0.97710   0.00000  Uiso   1.00
C1259  C     0.77921   0.95031   0.69211   0.00000  Uiso   1.00
C1260  C     0.68801   0.79111   0.75087   0.00000  Uiso   1.00
C1261  C     0.97865   0.87556   0.74901   0.00000  Uiso   1.00
C1262  C     0.97875   0.79110   0.75086   0.00000  Uiso   1.00
C1263  C     0.68791   0.87557   0.74903   0.00000  Uiso   1.00
C1264  C     0.95722   0.83333   0.74996   0.00000  Uiso   1.00
Cu1265 Cu    0.83333   0.88022   0.75000   0.00000  Uiso   1.00
Cu1266 Cu    0.83333   0.78645   0.75000   0.00000  Uiso   1.00
H1267  H     0.88980   0.86468   0.88924   0.00000  Uiso   1.00
H1268  H     0.96418   0.89223   0.96343   0.00000  Uiso   1.00
H1269  H     0.77552   0.80270   0.61204   0.00000  Uiso   1.00
H1270  H     0.70404   0.75808   0.75168   0.00000  Uiso   1.00
H1271  H     0.96261   0.90859   0.74820   0.00000  Uiso   1.00
H1272  H     0.96280   0.75807   0.75157   0.00000  Uiso   1.00
H1273  H     0.70386   0.90860   0.74833   0.00000  Uiso   1.00
H1274  H     0.70904   0.82518   0.93060   0.00000  Uiso   1.00
H1275  H     0.97221   0.87625   0.53850   0.00000  Uiso   1.00
H1276  H     0.69737   0.79830   0.54131   0.00000  Uiso   1.00
N1277  N     0.83333   0.95069   0.75000   0.00000  Uiso   1.00
N1278  N     0.83333   0.71598   0.75000   0.00000  Uiso   1.00
N1279  N     0.74140   0.77159   0.85564   0.00000  Uiso   1.00
N1280  N     0.92352   0.89812   0.63989   0.00000  Uiso   1.00
N1281  N     0.75487   0.73496   0.66994   0.00000  Uiso   1.00
N1282  N     0.91115   0.93174   0.83094   0.00000  Uiso   1.00
N1283  N     0.90983   0.73588   0.83217   0.00000  Uiso   1.00
N1284  N     0.75680   0.93082   0.66786   0.00000  Uiso   1.00
O1285  O     0.77321   0.87291   0.75000   0.00000  Uiso   1.00
O1286  O     0.95743   0.82100   0.57403   0.00000  Uiso   1.00
O1287  O     0.72981   0.74836   0.57173   0.00000  Uiso   1.00
O1288  O     0.95476   0.83843   0.92275   0.00000  Uiso   1.00
O1289  O     0.89345   0.79375   0.75001   0.00000  Uiso   1.00
O1290  O     0.89345   0.87291   0.75001   0.00000  Uiso   1.00
O1291  O     0.77321   0.79375   0.75000   0.00000  Uiso   1.00
O1292  O     0.83332   0.87293   0.68513   0.00000  Uiso   1.00
O1293  O     0.83334   0.79373   0.81487   0.00000  Uiso   1.00
O1294  O     0.83334   0.87293   0.81487   0.00000  Uiso   1.00
O1295  O     0.83332   0.79373   0.68513   0.00000  Uiso   1.00
O1296  O     0.69794   0.76437   0.95922   0.00000  Uiso   1.00
loop_
_geom_bond_atom_site_label_1
_geom_bond_atom_site_label_2
_geom_bond_distance
_geom_bond_site_symmetry_2
_ccdc_geom_bond_type
C1     O67     1.297   .     A
C1     C2      1.450   .     S
C1     O61     1.297   .     A
C2     C36     1.401   .     A
C2     C39     1.401   .     A
C3     C31     1.443   .     S
C3     N54     1.372   .     A
C3     C438    1.426   1_545 S
C4     N53     1.373   .     A
C4     C32     1.444   .     S
C4     C221    1.427   .     S
C5     C33     1.445   .     S
C5     N54     1.372   .     A
C5     C436    1.427   1_545 S
C6     N53     1.372   .     A
C6     C35     1.445   .     S
C6     C219    1.426   .     S
C7     O71     1.296   .     A
C7     C13     1.453   .     S
C7     O68     1.296   .     A
C8     O70     1.297   .     A
C8     O69     1.295   .     A
C8     C11     1.453   .     S
C9     C20     1.396   .     A
C9     C11     1.383   .     A
C9     H43     1.081   .     S
C10    H45     1.080   .     S
C10    C21     1.399   .     A
C10    C13     1.385   .     A
C11    C14     1.402   .     A
C12    C40     1.450   .     S
C12    O65     1.297   .     A
C12    O66     1.297   .     A
C13    C15     1.400   .     A
C14    C25     1.454   .     S
C14    C16     1.425   .     A
C15    C17     1.421   .     A
C15    C26     1.453   .     S
C16    C18     1.430   .     A
C16    C22     1.427   .     A
C17    C24     1.423   .     A
C17    C19     1.428   .     A
C18    C20     1.419   .     A
C18    C667    1.409   .     S
C19    C21     1.418   .     A
C19    C666    1.409   1_554 S
C20    C34     1.416   .     A
C21    C23     1.415   .     A
C22    C27     1.489   .     S
C22    C671    1.411   .     S
C23    C29     1.488   .     S
C23    C670    1.411   1_554 S
C24    C28     1.490   .     S
C24    C682    1.409   1_554 S
C25    N55     1.158   .     T
C26    N56     1.158   .     T
C27    H50     1.085   .     S
C27    O72     1.221   .     D
C28    H51     1.084   .     S
C28    O62     1.222   .     D
C29    O63     1.221   .     D
C29    H52     1.084   .     S
C30    H44     1.085   .     S
C30    O64     1.221   .     D
C30    C34     1.491   .     S
C31    N57     1.157   .     T
C32    N58     1.157   .     T
C33    N59     1.158   .     T
C34    C672    1.409   .     S
C35    N60     1.158   .     T
C36    H46     1.083   .     S
C36    C182    1.383   1_455 S
C37    H47     1.083   .     S
C37    C40     1.401   .     A
C37    C111    1.383   .     S
C38    C40     1.401   .     A
C38    H48     1.083   .     S
C38    C108    1.383   .     S
C39    H49     1.083   .     S
C39    C181    1.383   1_455 S
Cu41   O66     1.964   .     S
Cu41   O61     1.964   .     S
Cu41   Cu42    2.697   .     S
Cu41   N53     2.027   .     S
Cu41   O68     1.962   .     S
Cu41   O70     1.963   .     S
Cu42   O65     1.964   .     S
Cu42   N54     2.027   .     S
Cu42   O71     1.963   .     S
Cu42   O67     1.964   .     S
Cu42   O69     1.962   .     S
C73    O139    1.297   .     A
C73    C74     1.450   .     S
C73    O133    1.297   .     A
C74    C108    1.401   .     A
C74    C111    1.401   .     A
C75    C103    1.443   .     S
C75    N126    1.372   .     A
C75    C510    1.426   1_545 S
C76    N125    1.373   .     A
C76    C104    1.444   .     S
C76    C293    1.427   .     S
C77    C105    1.445   .     S
C77    N126    1.372   .     A
C77    C508    1.427   1_545 S
C78    N125    1.372   .     A
C78    C107    1.445   .     S
C78    C291    1.426   .     S
C79    O143    1.296   .     A
C79    C85     1.453   .     S
C79    O140    1.296   .     A
C80    O142    1.297   .     A
C80    O141    1.295   .     A
C80    C83     1.453   .     S
C81    C92     1.396   .     A
C81    C83     1.383   .     A
C81    H115    1.081   .     S
C82    H117    1.080   .     S
C82    C93     1.399   .     A
C82    C85     1.385   .     A
C83    C86     1.402   .     A
C84    C112    1.450   .     S
C84    O137    1.297   .     A
C84    O138    1.297   .     A
C85    C87     1.400   .     A
C86    C97     1.454   .     S
C86    C88     1.425   .     A
C87    C89     1.421   .     A
C87    C98     1.453   .     S
C88    C90     1.430   .     A
C88    C94     1.427   .     A
C89    C96     1.423   .     A
C89    C91     1.428   .     A
C90    C92     1.419   .     A
C90    C739    1.409   .     S
C91    C93     1.418   .     A
C91    C738    1.409   1_554 S
C92    C106    1.416   .     A
C93    C95     1.415   .     A
C94    C99     1.489   .     S
C94    C743    1.411   .     S
C95    C101    1.488   .     S
C95    C742    1.411   1_554 S
C96    C100    1.490   .     S
C96    C754    1.409   1_554 S
C97    N127    1.158   .     T
C98    N128    1.158   .     T
C99    H122    1.085   .     S
C99    O144    1.221   .     D
C100   H123    1.084   .     S
C100   O134    1.222   .     D
C101   O135    1.221   .     D
C101   H124    1.084   .     S
C102   H116    1.085   .     S
C102   O136    1.221   .     D
C102   C106    1.491   .     S
C103   N129    1.157   .     T
C104   N130    1.157   .     T
C105   N131    1.158   .     T
C106   C744    1.409   .     S
C107   N132    1.158   .     T
C108   H118    1.083   .     S
C109   H119    1.083   .     S
C109   C112    1.401   .     A
C109   C183    1.383   .     S
C110   C112    1.401   .     A
C110   H120    1.083   .     S
C110   C180    1.383   .     S
C111   H121    1.083   .     S
Cu113  O138    1.964   .     S
Cu113  O133    1.964   .     S
Cu113  Cu114   2.697   .     S
Cu113  N125    2.027   .     S
Cu113  O140    1.962   .     S
Cu113  O142    1.963   .     S
Cu114  O137    1.964   .     S
Cu114  N126    2.027   .     S
Cu114  O143    1.963   .     S
Cu114  O139    1.964   .     S
Cu114  O141    1.962   .     S
C145   O211    1.297   .     A
C145   C146    1.450   .     S
C145   O205    1.297   .     A
C146   C180    1.401   .     A
C146   C183    1.401   .     A
C147   C175    1.443   .     S
C147   N198    1.372   .     A
C147   C582    1.426   1_545 S
C148   N197    1.373   .     A
C148   C176    1.444   .     S
C148   C365    1.427   .     S
C149   C177    1.445   .     S
C149   N198    1.372   .     A
C149   C580    1.427   1_545 S
C150   N197    1.372   .     A
C150   C179    1.445   .     S
C150   C363    1.426   .     S
C151   O215    1.296   .     A
C151   C157    1.453   .     S
C151   O212    1.296   .     A
C152   O214    1.297   .     A
C152   O213    1.295   .     A
C152   C155    1.453   .     S
C153   C164    1.396   .     A
C153   C155    1.383   .     A
C153   H187    1.081   .     S
C154   H189    1.080   .     S
C154   C165    1.399   .     A
C154   C157    1.385   .     A
C155   C158    1.402   .     A
C156   C184    1.450   .     S
C156   O209    1.297   .     A
C156   O210    1.297   .     A
C157   C159    1.400   .     A
C158   C169    1.454   .     S
C158   C160    1.425   .     A
C159   C161    1.421   .     A
C159   C170    1.453   .     S
C160   C162    1.430   .     A
C160   C166    1.427   .     A
C161   C168    1.423   .     A
C161   C163    1.428   .     A
C162   C164    1.419   .     A
C162   C811    1.409   .     S
C163   C165    1.418   .     A
C163   C810    1.409   1_554 S
C164   C178    1.416   .     A
C165   C167    1.415   .     A
C166   C171    1.489   .     S
C166   C815    1.411   .     S
C167   C173    1.488   .     S
C167   C814    1.411   1_554 S
C168   C172    1.490   .     S
C168   C826    1.409   1_554 S
C169   N199    1.158   .     T
C170   N200    1.158   .     T
C171   H194    1.085   .     S
C171   O216    1.221   .     D
C172   H195    1.084   .     S
C172   O206    1.222   .     D
C173   O207    1.221   .     D
C173   H196    1.084   .     S
C174   H188    1.085   .     S
C174   O208    1.221   .     D
C174   C178    1.491   .     S
C175   N201    1.157   .     T
C176   N202    1.157   .     T
C177   N203    1.158   .     T
C178   C816    1.409   .     S
C179   N204    1.158   .     T
C180   H190    1.083   .     S
C181   H191    1.083   .     S
C181   C184    1.401   .     A
C181   C39     1.383   1_655 S
C182   C184    1.401   .     A
C182   H192    1.083   .     S
C182   C36     1.383   1_655 S
C183   H193    1.083   .     S
Cu185  O210    1.964   .     S
Cu185  O205    1.964   .     S
Cu185  Cu186   2.697   .     S
Cu185  N197    2.027   .     S
Cu185  O212    1.962   .     S
Cu185  O214    1.963   .     S
Cu186  O209    1.964   .     S
Cu186  N198    2.027   .     S
Cu186  O215    1.963   .     S
Cu186  O211    1.964   .     S
Cu186  O213    1.962   .     S
C217   O283    1.297   .     A
C217   C218    1.450   .     S
C217   O277    1.297   .     A
C218   C252    1.401   .     A
C218   C255    1.401   .     A
C219   C247    1.443   .     S
C219   N270    1.372   .     A
C220   N269    1.373   .     A
C220   C248    1.444   .     S
C220   C437    1.427   .     S
C221   C249    1.445   .     S
C221   N270    1.372   .     A
C222   N269    1.372   .     A
C222   C251    1.445   .     S
C222   C435    1.426   .     S
C223   O287    1.296   .     A
C223   C229    1.453   .     S
C223   O284    1.296   .     A
C224   O286    1.297   .     A
C224   O285    1.295   .     A
C224   C227    1.453   .     S
C225   C236    1.396   .     A
C225   C227    1.383   .     A
C225   H259    1.081   .     S
C226   H261    1.080   .     S
C226   C237    1.399   .     A
C226   C229    1.385   .     A
C227   C230    1.402   .     A
C228   C256    1.450   .     S
C228   O281    1.297   .     A
C228   O282    1.297   .     A
C229   C231    1.400   .     A
C230   C241    1.454   .     S
C230   C232    1.425   .     A
C231   C233    1.421   .     A
C231   C242    1.453   .     S
C232   C234    1.430   .     A
C232   C238    1.427   .     A
C233   C240    1.423   .     A
C233   C235    1.428   .     A
C234   C236    1.419   .     A
C234   C883    1.409   .     S
C235   C237    1.418   .     A
C235   C882    1.409   1_554 S
C236   C250    1.416   .     A
C237   C239    1.415   .     A
C238   C243    1.489   .     S
C238   C887    1.411   .     S
C239   C245    1.488   .     S
C239   C886    1.411   1_554 S
C240   C244    1.490   .     S
C240   C898    1.409   1_554 S
C241   N271    1.158   .     T
C242   N272    1.158   .     T
C243   H266    1.085   .     S
C243   O288    1.221   .     D
C244   H267    1.084   .     S
C244   O278    1.222   .     D
C245   O279    1.221   .     D
C245   H268    1.084   .     S
C246   H260    1.085   .     S
C246   O280    1.221   .     D
C246   C250    1.491   .     S
C247   N273    1.157   .     T
C248   N274    1.157   .     T
C249   N275    1.158   .     T
C250   C888    1.409   .     S
C251   N276    1.158   .     T
C252   H262    1.083   .     S
C252   C398    1.383   1_455 S
C253   H263    1.083   .     S
C253   C256    1.401   .     A
C253   C327    1.383   .     S
C254   C256    1.401   .     A
C254   H264    1.083   .     S
C254   C324    1.383   .     S
C255   H265    1.083   .     S
C255   C397    1.383   1_455 S
Cu257  O282    1.964   .     S
Cu257  O277    1.964   .     S
Cu257  Cu258   2.697   .     S
Cu257  N269    2.027   .     S
Cu257  O284    1.962   .     S
Cu257  O286    1.963   .     S
Cu258  O281    1.964   .     S
Cu258  N270    2.027   .     S
Cu258  O287    1.963   .     S
Cu258  O283    1.964   .     S
Cu258  O285    1.962   .     S
C289   O355    1.297   .     A
C289   C290    1.450   .     S
C289   O349    1.297   .     A
C290   C324    1.401   .     A
C290   C327    1.401   .     A
C291   C319    1.443   .     S
C291   N342    1.372   .     A
C292   N341    1.373   .     A
C292   C320    1.444   .     S
C292   C509    1.427   .     S
C293   C321    1.445   .     S
C293   N342    1.372   .     A
C294   N341    1.372   .     A
C294   C323    1.445   .     S
C294   C507    1.426   .     S
C295   O359    1.296   .     A
C295   C301    1.453   .     S
C295   O356    1.296   .     A
C296   O358    1.297   .     A
C296   O357    1.295   .     A
C296   C299    1.453   .     S
C297   C308    1.396   .     A
C297   C299    1.383   .     A
C297   H331    1.081   .     S
C298   H333    1.080   .     S
C298   C309    1.399   .     A
C298   C301    1.385   .     A
C299   C302    1.402   .     A
C300   C328    1.450   .     S
C300   O353    1.297   .     A
C300   O354    1.297   .     A
C301   C303    1.400   .     A
C302   C313    1.454   .     S
C302   C304    1.425   .     A
C303   C305    1.421   .     A
C303   C314    1.453   .     S
C304   C306    1.430   .     A
C304   C310    1.427   .     A
C305   C312    1.423   .     A
C305   C307    1.428   .     A
C306   C308    1.419   .     A
C306   C955    1.409   .     S
C307   C309    1.418   .     A
C307   C954    1.409   1_554 S
C308   C322    1.416   .     A
C309   C311    1.415   .     A
C310   C315    1.489   .     S
C310   C959    1.411   .     S
C311   C317    1.488   .     S
C311   C958    1.411   1_554 S
C312   C316    1.490   .     S
C312   C970    1.409   1_554 S
C313   N343    1.158   .     T
C314   N344    1.158   .     T
C315   H338    1.085   .     S
C315   O360    1.221   .     D
C316   H339    1.084   .     S
C316   O350    1.222   .     D
C317   O351    1.221   .     D
C317   H340    1.084   .     S
C318   H332    1.085   .     S
C318   O352    1.221   .     D
C318   C322    1.491   .     S
C319   N345    1.157   .     T
C320   N346    1.157   .     T
C321   N347    1.158   .     T
C322   C960    1.409   .     S
C323   N348    1.158   .     T
C324   H334    1.083   .     S
C325   H335    1.083   .     S
C325   C328    1.401   .     A
C325   C399    1.383   .     S
C326   C328    1.401   .     A
C326   H336    1.083   .     S
C326   C396    1.383   .     S
C327   H337    1.083   .     S
Cu329  O354    1.964   .     S
Cu329  O349    1.964   .     S
Cu329  Cu330   2.697   .     S
Cu329  N341    2.027   .     S
Cu329  O356    1.962   .     S
Cu329  O358    1.963   .     S
Cu330  O353    1.964   .     S
Cu330  N342    2.027   .     S
Cu330  O359    1.963   .     S
Cu330  O355    1.964   .     S
Cu330  O357    1.962   .     S
C361   O427    1.297   .     A
C361   C362    1.450   .     S
C361   O421    1.297   .     A
C362   C396    1.401   .     A
C362   C399    1.401   .     A
C363   C391    1.443   .     S
C363   N414    1.372   .     A
C364   N413    1.373   .     A
C364   C392    1.444   .     S
C364   C581    1.427   .     S
C365   C393    1.445   .     S
C365   N414    1.372   .     A
C366   N413    1.372   .     A
C366   C395    1.445   .     S
C366   C579    1.426   .     S
C367   O431    1.296   .     A
C367   C373    1.453   .     S
C367   O428    1.296   .     A
C368   O430    1.297   .     A
C368   O429    1.295   .     A
C368   C371    1.453   .     S
C369   C380    1.396   .     A
C369   C371    1.383   .     A
C369   H403    1.081   .     S
C370   H405    1.080   .     S
C370   C381    1.399   .     A
C370   C373    1.385   .     A
C371   C374    1.402   .     A
C372   C400    1.450   .     S
C372   O425    1.297   .     A
C372   O426    1.297   .     A
C373   C375    1.400   .     A
C374   C385    1.454   .     S
C374   C376    1.425   .     A
C375   C377    1.421   .     A
C375   C386    1.453   .     S
C376   C378    1.430   .     A
C376   C382    1.427   .     A
C377   C384    1.423   .     A
C377   C379    1.428   .     A
C378   C380    1.419   .     A
C378   C1027   1.409   .     S
C379   C381    1.418   .     A
C379   C1026   1.409   1_554 S
C380   C394    1.416   .     A
C381   C383    1.415   .     A
C382   C387    1.489   .     S
C382   C1031   1.411   .     S
C383   C389    1.488   .     S
C383   C1030   1.411   1_554 S
C384   C388    1.490   .     S
C384   C1042   1.409   1_554 S
C385   N415    1.158   .     T
C386   N416    1.158   .     T
C387   H410    1.085   .     S
C387   O432    1.221   .     D
C388   H411    1.084   .     S
C388   O422    1.222   .     D
C389   O423    1.221   .     D
C389   H412    1.084   .     S
C390   H404    1.085   .     S
C390   O424    1.221   .     D
C390   C394    1.491   .     S
C391   N417    1.157   .     T
C392   N418    1.157   .     T
C393   N419    1.158   .     T
C394   C1032   1.409   .     S
C395   N420    1.158   .     T
C396   H406    1.083   .     S
C397   H407    1.083   .     S
C397   C400    1.401   .     A
C397   C255    1.383   1_655 S
C398   C400    1.401   .     A
C398   H408    1.083   .     S
C398   C252    1.383   1_655 S
C399   H409    1.083   .     S
Cu401  O426    1.964   .     S
Cu401  O421    1.964   .     S
Cu401  Cu402   2.697   .     S
Cu401  N413    2.027   .     S
Cu401  O428    1.962   .     S
Cu401  O430    1.963   .     S
Cu402  O425    1.964   .     S
Cu402  N414    2.027   .     S
Cu402  O431    1.963   .     S
Cu402  O427    1.964   .     S
Cu402  O429    1.962   .     S
C433   O499    1.297   .     A
C433   C434    1.450   .     S
C433   O493    1.297   .     A
C434   C468    1.401   .     A
C434   C471    1.401   .     A
C435   C463    1.443   .     S
C435   N486    1.372   .     A
C436   N485    1.373   .     A
C436   C464    1.444   .     S
C436   C5      1.427   1_565 S
C437   C465    1.445   .     S
C437   N486    1.372   .     A
C438   N485    1.372   .     A
C438   C467    1.445   .     S
C438   C3      1.426   1_565 S
C439   O503    1.296   .     A
C439   C445    1.453   .     S
C439   O500    1.296   .     A
C440   O502    1.297   .     A
C440   O501    1.295   .     A
C440   C443    1.453   .     S
C441   C452    1.396   .     A
C441   C443    1.383   .     A
C441   H475    1.081   .     S
C442   H477    1.080   .     S
C442   C453    1.399   .     A
C442   C445    1.385   .     A
C443   C446    1.402   .     A
C444   C472    1.450   .     S
C444   O497    1.297   .     A
C444   O498    1.297   .     A
C445   C447    1.400   .     A
C446   C457    1.454   .     S
C446   C448    1.425   .     A
C447   C449    1.421   .     A
C447   C458    1.453   .     S
C448   C450    1.430   .     A
C448   C454    1.427   .     A
C449   C456    1.423   .     A
C449   C451    1.428   .     A
C450   C452    1.419   .     A
C450   C1099   1.409   .     S
C451   C453    1.418   .     A
C451   C1098   1.409   1_554 S
C452   C466    1.416   .     A
C453   C455    1.415   .     A
C454   C459    1.489   .     S
C454   C1103   1.411   .     S
C455   C461    1.488   .     S
C455   C1102   1.411   1_554 S
C456   C460    1.490   .     S
C456   C1114   1.409   1_554 S
C457   N487    1.158   .     T
C458   N488    1.158   .     T
C459   H482    1.085   .     S
C459   O504    1.221   .     D
C460   H483    1.084   .     S
C460   O494    1.222   .     D
C461   O495    1.221   .     D
C461   H484    1.084   .     S
C462   H476    1.085   .     S
C462   O496    1.221   .     D
C462   C466    1.491   .     S
C463   N489    1.157   .     T
C464   N490    1.157   .     T
C465   N491    1.158   .     T
C466   C1104   1.409   .     S
C467   N492    1.158   .     T
C468   H478    1.083   .     S
C468   C614    1.383   1_455 S
C469   H479    1.083   .     S
C469   C472    1.401   .     A
C469   C543    1.383   .     S
C470   C472    1.401   .     A
C470   H480    1.083   .     S
C470   C540    1.383   .     S
C471   H481    1.083   .     S
C471   C613    1.383   1_455 S
Cu473  O498    1.964   .     S
Cu473  O493    1.964   .     S
Cu473  Cu474   2.697   .     S
Cu473  N485    2.027   .     S
Cu473  O500    1.962   .     S
Cu473  O502    1.963   .     S
Cu474  O497    1.964   .     S
Cu474  N486    2.027   .     S
Cu474  O503    1.963   .     S
Cu474  O499    1.964   .     S
Cu474  O501    1.962   .     S
C505   O571    1.297   .     A
C505   C506    1.450   .     S
C505   O565    1.297   .     A
C506   C540    1.401   .     A
C506   C543    1.401   .     A
C507   C535    1.443   .     S
C507   N558    1.372   .     A
C508   N557    1.373   .     A
C508   C536    1.444   .     S
C508   C77     1.427   1_565 S
C509   C537    1.445   .     S
C509   N558    1.372   .     A
C510   N557    1.372   .     A
C510   C539    1.445   .     S
C510   C75     1.426   1_565 S
C511   O575    1.296   .     A
C511   C517    1.453   .     S
C511   O572    1.296   .     A
C512   O574    1.297   .     A
C512   O573    1.295   .     A
C512   C515    1.453   .     S
C513   C524    1.396   .     A
C513   C515    1.383   .     A
C513   H547    1.081   .     S
C514   H549    1.080   .     S
C514   C525    1.399   .     A
C514   C517    1.385   .     A
C515   C518    1.402   .     A
C516   C544    1.450   .     S
C516   O569    1.297   .     A
C516   O570    1.297   .     A
C517   C519    1.400   .     A
C518   C529    1.454   .     S
C518   C520    1.425   .     A
C519   C521    1.421   .     A
C519   C530    1.453   .     S
C520   C522    1.430   .     A
C520   C526    1.427   .     A
C521   C528    1.423   .     A
C521   C523    1.428   .     A
C522   C524    1.419   .     A
C522   C1171   1.409   .     S
C523   C525    1.418   .     A
C523   C1170   1.409   1_554 S
C524   C538    1.416   .     A
C525   C527    1.415   .     A
C526   C531    1.489   .     S
C526   C1175   1.411   .     S
C527   C533    1.488   .     S
C527   C1174   1.411   1_554 S
C528   C532    1.490   .     S
C528   C1186   1.409   1_554 S
C529   N559    1.158   .     T
C530   N560    1.158   .     T
C531   H554    1.085   .     S
C531   O576    1.221   .     D
C532   H555    1.084   .     S
C532   O566    1.222   .     D
C533   O567    1.221   .     D
C533   H556    1.084   .     S
C534   H548    1.085   .     S
C534   O568    1.221   .     D
C534   C538    1.491   .     S
C535   N561    1.157   .     T
C536   N562    1.157   .     T
C537   N563    1.158   .     T
C538   C1176   1.409   .     S
C539   N564    1.158   .     T
C540   H550    1.083   .     S
C541   H551    1.083   .     S
C541   C544    1.401   .     A
C541   C615    1.383   .     S
C542   C544    1.401   .     A
C542   H552    1.083   .     S
C542   C612    1.383   .     S
C543   H553    1.083   .     S
Cu545  O570    1.964   .     S
Cu545  O565    1.964   .     S
Cu545  Cu546   2.697   .     S
Cu545  N557    2.027   .     S
Cu545  O572    1.962   .     S
Cu545  O574    1.963   .     S
Cu546  O569    1.964   .     S
Cu546  N558    2.027   .     S
Cu546  O575    1.963   .     S
Cu546  O571    1.964   .     S
Cu546  O573    1.962   .     S
C577   O643    1.297   .     A
C577   C578    1.450   .     S
C577   O637    1.297   .     A
C578   C612    1.401   .     A
C578   C615    1.401   .     A
C579   C607    1.443   .     S
C579   N630    1.372   .     A
C580   N629    1.373   .     A
C580   C608    1.444   .     S
C580   C149    1.427   1_565 S
C581   C609    1.445   .     S
C581   N630    1.372   .     A
C582   N629    1.372   .     A
C582   C611    1.445   .     S
C582   C147    1.426   1_565 S
C583   O647    1.296   .     A
C583   C589    1.453   .     S
C583   O644    1.296   .     A
C584   O646    1.297   .     A
C584   O645    1.295   .     A
C584   C587    1.453   .     S
C585   C596    1.396   .     A
C585   C587    1.383   .     A
C585   H619    1.081   .     S
C586   H621    1.080   .     S
C586   C597    1.399   .     A
C586   C589    1.385   .     A
C587   C590    1.402   .     A
C588   C616    1.450   .     S
C588   O641    1.297   .     A
C588   O642    1.297   .     A
C589   C591    1.400   .     A
C590   C601    1.454   .     S
C590   C592    1.425   .     A
C591   C593    1.421   .     A
C591   C602    1.453   .     S
C592   C594    1.430   .     A
C592   C598    1.427   .     A
C593   C600    1.423   .     A
C593   C595    1.428   .     A
C594   C596    1.419   .     A
C594   C1243   1.409   .     S
C595   C597    1.418   .     A
C595   C1242   1.409   1_554 S
C596   C610    1.416   .     A
C597   C599    1.415   .     A
C598   C603    1.489   .     S
C598   C1247   1.411   .     S
C599   C605    1.488   .     S
C599   C1246   1.411   1_554 S
C600   C604    1.490   .     S
C600   C1258   1.409   1_554 S
C601   N631    1.158   .     T
C602   N632    1.158   .     T
C603   H626    1.085   .     S
C603   O648    1.221   .     D
C604   H627    1.084   .     S
C604   O638    1.222   .     D
C605   O639    1.221   .     D
C605   H628    1.084   .     S
C606   H620    1.085   .     S
C606   O640    1.221   .     D
C606   C610    1.491   .     S
C607   N633    1.157   .     T
C608   N634    1.157   .     T
C609   N635    1.158   .     T
C610   C1248   1.409   .     S
C611   N636    1.158   .     T
C612   H622    1.083   .     S
C613   H623    1.083   .     S
C613   C616    1.401   .     A
C613   C471    1.383   1_655 S
C614   C616    1.401   .     A
C614   H624    1.083   .     S
C614   C468    1.383   1_655 S
C615   H625    1.083   .     S
Cu617  O642    1.964   .     S
Cu617  O637    1.964   .     S
Cu617  Cu618   2.697   .     S
Cu617  N629    2.027   .     S
Cu617  O644    1.962   .     S
Cu617  O646    1.963   .     S
Cu618  O641    1.964   .     S
Cu618  N630    2.027   .     S
Cu618  O647    1.963   .     S
Cu618  O643    1.964   .     S
Cu618  O645    1.962   .     S
C649   O715    1.297   .     A
C649   C650    1.450   .     S
C649   O709    1.297   .     A
C650   C684    1.401   .     A
C650   C687    1.401   .     A
C651   C679    1.443   .     S
C651   N702    1.372   .     A
C651   C1086   1.426   1_545 S
C652   N701    1.373   .     A
C652   C680    1.444   .     S
C652   C869    1.427   .     S
C653   C681    1.445   .     S
C653   N702    1.372   .     A
C653   C1084   1.427   1_545 S
C654   N701    1.372   .     A
C654   C683    1.445   .     S
C654   C867    1.426   .     S
C655   O719    1.296   .     A
C655   C661    1.453   .     S
C655   O716    1.296   .     A
C656   O718    1.297   .     A
C656   O717    1.295   .     A
C656   C659    1.453   .     S
C657   C668    1.396   .     A
C657   C659    1.383   .     A
C657   H691    1.081   .     S
C658   H693    1.080   .     S
C658   C669    1.399   .     A
C658   C661    1.385   .     A
C659   C662    1.402   .     A
C660   C688    1.450   .     S
C660   O713    1.297   .     A
C660   O714    1.297   .     A
C661   C663    1.400   .     A
C662   C673    1.454   .     S
C662   C664    1.425   .     A
C663   C665    1.421   .     A
C663   C674    1.453   .     S
C664   C666    1.430   .     A
C664   C670    1.427   .     A
C665   C672    1.423   .     A
C665   C667    1.428   .     A
C666   C668    1.419   .     A
C666   C19     1.409   1_556 S
C667   C669    1.418   .     A
C668   C682    1.416   .     A
C669   C671    1.415   .     A
C670   C675    1.489   .     S
C670   C23     1.411   1_556 S
C671   C677    1.488   .     S
C672   C676    1.490   .     S
C673   N703    1.158   .     T
C674   N704    1.158   .     T
C675   H698    1.085   .     S
C675   O720    1.221   .     D
C676   H699    1.084   .     S
C676   O710    1.222   .     D
C677   O711    1.221   .     D
C677   H700    1.084   .     S
C678   H692    1.085   .     S
C678   O712    1.221   .     D
C678   C682    1.491   .     S
C679   N705    1.157   .     T
C680   N706    1.157   .     T
C681   N707    1.158   .     T
C682   C24     1.409   1_556 S
C683   N708    1.158   .     T
C684   H694    1.083   .     S
C684   C830    1.383   1_455 S
C685   H695    1.083   .     S
C685   C688    1.401   .     A
C685   C759    1.383   .     S
C686   C688    1.401   .     A
C686   H696    1.083   .     S
C686   C756    1.383   .     S
C687   H697    1.083   .     S
C687   C829    1.383   1_455 S
Cu689  O714    1.964   .     S
Cu689  O709    1.964   .     S
Cu689  Cu690   2.697   .     S
Cu689  N701    2.027   .     S
Cu689  O716    1.962   .     S
Cu689  O718    1.963   .     S
Cu690  O713    1.964   .     S
Cu690  N702    2.027   .     S
Cu690  O719    1.963   .     S
Cu690  O715    1.964   .     S
Cu690  O717    1.962   .     S
C721   O787    1.297   .     A
C721   C722    1.450   .     S
C721   O781    1.297   .     A
C722   C756    1.401   .     A
C722   C759    1.401   .     A
C723   C751    1.443   .     S
C723   N774    1.372   .     A
C723   C1158   1.426   1_545 S
C724   N773    1.373   .     A
C724   C752    1.444   .     S
C724   C941    1.427   .     S
C725   C753    1.445   .     S
C725   N774    1.372   .     A
C725   C1156   1.427   1_545 S
C726   N773    1.372   .     A
C726   C755    1.445   .     S
C726   C939    1.426   .     S
C727   O791    1.296   .     A
C727   C733    1.453   .     S
C727   O788    1.296   .     A
C728   O790    1.297   .     A
C728   O789    1.295   .     A
C728   C731    1.453   .     S
C729   C740    1.396   .     A
C729   C731    1.383   .     A
C729   H763    1.081   .     S
C730   H765    1.080   .     S
C730   C741    1.399   .     A
C730   C733    1.385   .     A
C731   C734    1.402   .     A
C732   C760    1.450   .     S
C732   O785    1.297   .     A
C732   O786    1.297   .     A
C733   C735    1.400   .     A
C734   C745    1.454   .     S
C734   C736    1.425   .     A
C735   C737    1.421   .     A
C735   C746    1.453   .     S
C736   C738    1.430   .     A
C736   C742    1.427   .     A
C737   C744    1.423   .     A
C737   C739    1.428   .     A
C738   C740    1.419   .     A
C738   C91     1.409   1_556 S
C739   C741    1.418   .     A
C740   C754    1.416   .     A
C741   C743    1.415   .     A
C742   C747    1.489   .     S
C742   C95     1.411   1_556 S
C743   C749    1.488   .     S
C744   C748    1.490   .     S
C745   N775    1.158   .     T
C746   N776    1.158   .     T
C747   H770    1.085   .     S
C747   O792    1.221   .     D
C748   H771    1.084   .     S
C748   O782    1.222   .     D
C749   O783    1.221   .     D
C749   H772    1.084   .     S
C750   H764    1.085   .     S
C750   O784    1.221   .     D
C750   C754    1.491   .     S
C751   N777    1.157   .     T
C752   N778    1.157   .     T
C753   N779    1.158   .     T
C754   C96     1.409   1_556 S
C755   N780    1.158   .     T
C756   H766    1.083   .     S
C757   H767    1.083   .     S
C757   C760    1.401   .     A
C757   C831    1.383   .     S
C758   C760    1.401   .     A
C758   H768    1.083   .     S
C758   C828    1.383   .     S
C759   H769    1.083   .     S
Cu761  O786    1.964   .     S
Cu761  O781    1.964   .     S
Cu761  Cu762   2.697   .     S
Cu761  N773    2.027   .     S
Cu761  O788    1.962   .     S
Cu761  O790    1.963   .     S
Cu762  O785    1.964   .     S
Cu762  N774    2.027   .     S
Cu762  O791    1.963   .     S
Cu762  O787    1.964   .     S
Cu762  O789    1.962   .     S
C793   O859    1.297   .     A
C793   C794    1.450   .     S
C793   O853    1.297   .     A
C794   C828    1.401   .     A
C794   C831    1.401   .     A
C795   C823    1.443   .     S
C795   N846    1.372   .     A
C795   C1230   1.426   1_545 S
C796   N845    1.373   .     A
C796   C824    1.444   .     S
C796   C1013   1.427   .     S
C797   C825    1.445   .     S
C797   N846    1.372   .     A
C797   C1228   1.427   1_545 S
C798   N845    1.372   .     A
C798   C827    1.445   .     S
C798   C1011   1.426   .     S
C799   O863    1.296   .     A
C799   C805    1.453   .     S
C799   O860    1.296   .     A
C800   O862    1.297   .     A
C800   O861    1.295   .     A
C800   C803    1.453   .     S
C801   C812    1.396   .     A
C801   C803    1.383   .     A
C801   H835    1.081   .     S
C802   H837    1.080   .     S
C802   C813    1.399   .     A
C802   C805    1.385   .     A
C803   C806    1.402   .     A
C804   C832    1.450   .     S
C804   O857    1.297   .     A
C804   O858    1.297   .     A
C805   C807    1.400   .     A
C806   C817    1.454   .     S
C806   C808    1.425   .     A
C807   C809    1.421   .     A
C807   C818    1.453   .     S
C808   C810    1.430   .     A
C808   C814    1.427   .     A
C809   C816    1.423   .     A
C809   C811    1.428   .     A
C810   C812    1.419   .     A
C810   C163    1.409   1_556 S
C811   C813    1.418   .     A
C812   C826    1.416   .     A
C813   C815    1.415   .     A
C814   C819    1.489   .     S
C814   C167    1.411   1_556 S
C815   C821    1.488   .     S
C816   C820    1.490   .     S
C817   N847    1.158   .     T
C818   N848    1.158   .     T
C819   H842    1.085   .     S
C819   O864    1.221   .     D
C820   H843    1.084   .     S
C820   O854    1.222   .     D
C821   O855    1.221   .     D
C821   H844    1.084   .     S
C822   H836    1.085   .     S
C822   O856    1.221   .     D
C822   C826    1.491   .     S
C823   N849    1.157   .     T
C824   N850    1.157   .     T
C825   N851    1.158   .     T
C826   C168    1.409   1_556 S
C827   N852    1.158   .     T
C828   H838    1.083   .     S
C829   H839    1.083   .     S
C829   C832    1.401   .     A
C829   C687    1.383   1_655 S
C830   C832    1.401   .     A
C830   H840    1.083   .     S
C830   C684    1.383   1_655 S
C831   H841    1.083   .     S
Cu833  O858    1.964   .     S
Cu833  O853    1.964   .     S
Cu833  Cu834   2.697   .     S
Cu833  N845    2.027   .     S
Cu833  O860    1.962   .     S
Cu833  O862    1.963   .     S
Cu834  O857    1.964   .     S
Cu834  N846    2.027   .     S
Cu834  O863    1.963   .     S
Cu834  O859    1.964   .     S
Cu834  O861    1.962   .     S
C865   O931    1.297   .     A
C865   C866    1.450   .     S
C865   O925    1.297   .     A
C866   C900    1.401   .     A
C866   C903    1.401   .     A
C867   C895    1.443   .     S
C867   N918    1.372   .     A
C868   N917    1.373   .     A
C868   C896    1.444   .     S
C868   C1085   1.427   .     S
C869   C897    1.445   .     S
C869   N918    1.372   .     A
C870   N917    1.372   .     A
C870   C899    1.445   .     S
C870   C1083   1.426   .     S
C871   O935    1.296   .     A
C871   C877    1.453   .     S
C871   O932    1.296   .     A
C872   O934    1.297   .     A
C872   O933    1.295   .     A
C872   C875    1.453   .     S
C873   C884    1.396   .     A
C873   C875    1.383   .     A
C873   H907    1.081   .     S
C874   H909    1.080   .     S
C874   C885    1.399   .     A
C874   C877    1.385   .     A
C875   C878    1.402   .     A
C876   C904    1.450   .     S
C876   O929    1.297   .     A
C876   O930    1.297   .     A
C877   C879    1.400   .     A
C878   C889    1.454   .     S
C878   C880    1.425   .     A
C879   C881    1.421   .     A
C879   C890    1.453   .     S
C880   C882    1.430   .     A
C880   C886    1.427   .     A
C881   C888    1.423   .     A
C881   C883    1.428   .     A
C882   C884    1.419   .     A
C882   C235    1.409   1_556 S
C883   C885    1.418   .     A
C884   C898    1.416   .     A
C885   C887    1.415   .     A
C886   C891    1.489   .     S
C886   C239    1.411   1_556 S
C887   C893    1.488   .     S
C888   C892    1.490   .     S
C889   N919    1.158   .     T
C890   N920    1.158   .     T
C891   H914    1.085   .     S
C891   O936    1.221   .     D
C892   H915    1.084   .     S
C892   O926    1.222   .     D
C893   O927    1.221   .     D
C893   H916    1.084   .     S
C894   H908    1.085   .     S
C894   O928    1.221   .     D
C894   C898    1.491   .     S
C895   N921    1.157   .     T
C896   N922    1.157   .     T
C897   N923    1.158   .     T
C898   C240    1.409   1_556 S
C899   N924    1.158   .     T
C900   H910    1.083   .     S
C900   C1046   1.383   1_455 S
C901   H911    1.083   .     S
C901   C904    1.401   .     A
C901   C975    1.383   .     S
C902   C904    1.401   .     A
C902   H912    1.083   .     S
C902   C972    1.383   .     S
C903   H913    1.083   .     S
C903   C1045   1.383   1_455 S
Cu905  O930    1.964   .     S
Cu905  O925    1.964   .     S
Cu905  Cu906   2.697   .     S
Cu905  N917    2.027   .     S
Cu905  O932    1.962   .     S
Cu905  O934    1.963   .     S
Cu906  O929    1.964   .     S
Cu906  N918    2.027   .     S
Cu906  O935    1.963   .     S
Cu906  O931    1.964   .     S
Cu906  O933    1.962   .     S
C937   O1003   1.297   .     A
C937   C938    1.450   .     S
C937   O997    1.297   .     A
C938   C972    1.401   .     A
C938   C975    1.401   .     A
C939   C967    1.443   .     S
C939   N990    1.372   .     A
C940   N989    1.373   .     A
C940   C968    1.444   .     S
C940   C1157   1.427   .     S
C941   C969    1.445   .     S
C941   N990    1.372   .     A
C942   N989    1.372   .     A
C942   C971    1.445   .     S
C942   C1155   1.426   .     S
C943   O1007   1.296   .     A
C943   C949    1.453   .     S
C943   O1004   1.296   .     A
C944   O1006   1.297   .     A
C944   O1005   1.295   .     A
C944   C947    1.453   .     S
C945   C956    1.396   .     A
C945   C947    1.383   .     A
C945   H979    1.081   .     S
C946   H981    1.080   .     S
C946   C957    1.399   .     A
C946   C949    1.385   .     A
C947   C950    1.402   .     A
C948   C976    1.450   .     S
C948   O1001   1.297   .     A
C948   O1002   1.297   .     A
C949   C951    1.400   .     A
C950   C961    1.454   .     S
C950   C952    1.425   .     A
C951   C953    1.421   .     A
C951   C962    1.453   .     S
C952   C954    1.430   .     A
C952   C958    1.427   .     A
C953   C960    1.423   .     A
C953   C955    1.428   .     A
C954   C956    1.419   .     A
C954   C307    1.409   1_556 S
C955   C957    1.418   .     A
C956   C970    1.416   .     A
C957   C959    1.415   .     A
C958   C963    1.489   .     S
C958   C311    1.411   1_556 S
C959   C965    1.488   .     S
C960   C964    1.490   .     S
C961   N991    1.158   .     T
C962   N992    1.158   .     T
C963   H986    1.085   .     S
C963   O1008   1.221   .     D
C964   H987    1.084   .     S
C964   O998    1.222   .     D
C965   O999    1.221   .     D
C965   H988    1.084   .     S
C966   H980    1.085   .     S
C966   O1000   1.221   .     D
C966   C970    1.491   .     S
C967   N993    1.157   .     T
C968   N994    1.157   .     T
C969   N995    1.158   .     T
C970   C312    1.409   1_556 S
C971   N996    1.158   .     T
C972   H982    1.083   .     S
C973   H983    1.083   .     S
C973   C976    1.401   .     A
C973   C1047   1.383   .     S
C974   C976    1.401   .     A
C974   H984    1.083   .     S
C974   C1044   1.383   .     S
C975   H985    1.083   .     S
Cu977  O1002   1.964   .     S
Cu977  O997    1.964   .     S
Cu977  Cu978   2.697   .     S
Cu977  N989    2.027   .     S
Cu977  O1004   1.962   .     S
Cu977  O1006   1.963   .     S
Cu978  O1001   1.964   .     S
Cu978  N990    2.027   .     S
Cu978  O1007   1.963   .     S
Cu978  O1003   1.964   .     S
Cu978  O1005   1.962   .     S
C1009  O1075   1.297   .     A
C1009  C1010   1.450   .     S
C1009  O1069   1.297   .     A
C1010  C1044   1.401   .     A
C1010  C1047   1.401   .     A
C1011  C1039   1.443   .     S
C1011  N1062   1.372   .     A
C1012  N1061   1.373   .     A
C1012  C1040   1.444   .     S
C1012  C1229   1.427   .     S
C1013  C1041   1.445   .     S
C1013  N1062   1.372   .     A
C1014  N1061   1.372   .     A
C1014  C1043   1.445   .     S
C1014  C1227   1.426   .     S
C1015  O1079   1.296   .     A
C1015  C1021   1.453   .     S
C1015  O1076   1.296   .     A
C1016  O1078   1.297   .     A
C1016  O1077   1.295   .     A
C1016  C1019   1.453   .     S
C1017  C1028   1.396   .     A
C1017  C1019   1.383   .     A
C1017  H1051   1.081   .     S
C1018  H1053   1.080   .     S
C1018  C1029   1.399   .     A
C1018  C1021   1.385   .     A
C1019  C1022   1.402   .     A
C1020  C1048   1.450   .     S
C1020  O1073   1.297   .     A
C1020  O1074   1.297   .     A
C1021  C1023   1.400   .     A
C1022  C1033   1.454   .     S
C1022  C1024   1.425   .     A
C1023  C1025   1.421   .     A
C1023  C1034   1.453   .     S
C1024  C1026   1.430   .     A
C1024  C1030   1.427   .     A
C1025  C1032   1.423   .     A
C1025  C1027   1.428   .     A
C1026  C1028   1.419   .     A
C1026  C379    1.409   1_556 S
C1027  C1029   1.418   .     A
C1028  C1042   1.416   .     A
C1029  C1031   1.415   .     A
C1030  C1035   1.489   .     S
C1030  C383    1.411   1_556 S
C1031  C1037   1.488   .     S
C1032  C1036   1.490   .     S
C1033  N1063   1.158   .     T
C1034  N1064   1.158   .     T
C1035  H1058   1.085   .     S
C1035  O1080   1.221   .     D
C1036  H1059   1.084   .     S
C1036  O1070   1.222   .     D
C1037  O1071   1.221   .     D
C1037  H1060   1.084   .     S
C1038  H1052   1.085   .     S
C1038  O1072   1.221   .     D
C1038  C1042   1.491   .     S
C1039  N1065   1.157   .     T
C1040  N1066   1.157   .     T
C1041  N1067   1.158   .     T
C1042  C384    1.409   1_556 S
C1043  N1068   1.158   .     T
C1044  H1054   1.083   .     S
C1045  H1055   1.083   .     S
C1045  C1048   1.401   .     A
C1045  C903    1.383   1_655 S
C1046  C1048   1.401   .     A
C1046  H1056   1.083   .     S
C1046  C900    1.383   1_655 S
C1047  H1057   1.083   .     S
Cu1049 O1074   1.964   .     S
Cu1049 O1069   1.964   .     S
Cu1049 Cu1050  2.697   .     S
Cu1049 N1061   2.027   .     S
Cu1049 O1076   1.962   .     S
Cu1049 O1078   1.963   .     S
Cu1050 O1073   1.964   .     S
Cu1050 N1062   2.027   .     S
Cu1050 O1079   1.963   .     S
Cu1050 O1075   1.964   .     S
Cu1050 O1077   1.962   .     S
C1081  O1147   1.297   .     A
C1081  C1082   1.450   .     S
C1081  O1141   1.297   .     A
C1082  C1116   1.401   .     A
C1082  C1119   1.401   .     A
C1083  C1111   1.443   .     S
C1083  N1134   1.372   .     A
C1084  N1133   1.373   .     A
C1084  C1112   1.444   .     S
C1084  C653    1.427   1_565 S
C1085  C1113   1.445   .     S
C1085  N1134   1.372   .     A
C1086  N1133   1.372   .     A
C1086  C1115   1.445   .     S
C1086  C651    1.426   1_565 S
C1087  O1151   1.296   .     A
C1087  C1093   1.453   .     S
C1087  O1148   1.296   .     A
C1088  O1150   1.297   .     A
C1088  O1149   1.295   .     A
C1088  C1091   1.453   .     S
C1089  C1100   1.396   .     A
C1089  C1091   1.383   .     A
C1089  H1123   1.081   .     S
C1090  H1125   1.080   .     S
C1090  C1101   1.399   .     A
C1090  C1093   1.385   .     A
C1091  C1094   1.402   .     A
C1092  C1120   1.450   .     S
C1092  O1145   1.297   .     A
C1092  O1146   1.297   .     A
C1093  C1095   1.400   .     A
C1094  C1105   1.454   .     S
C1094  C1096   1.425   .     A
C1095  C1097   1.421   .     A
C1095  C1106   1.453   .     S
C1096  C1098   1.430   .     A
C1096  C1102   1.427   .     A
C1097  C1104   1.423   .     A
C1097  C1099   1.428   .     A
C1098  C1100   1.419   .     A
C1098  C451    1.409   1_556 S
C1099  C1101   1.418   .     A
C1100  C1114   1.416   .     A
C1101  C1103   1.415   .     A
C1102  C1107   1.489   .     S
C1102  C455    1.411   1_556 S
C1103  C1109   1.488   .     S
C1104  C1108   1.490   .     S
C1105  N1135   1.158   .     T
C1106  N1136   1.158   .     T
C1107  H1130   1.085   .     S
C1107  O1152   1.221   .     D
C1108  H1131   1.084   .     S
C1108  O1142   1.222   .     D
C1109  O1143   1.221   .     D
C1109  H1132   1.084   .     S
C1110  H1124   1.085   .     S
C1110  O1144   1.221   .     D
C1110  C1114   1.491   .     S
C1111  N1137   1.157   .     T
C1112  N1138   1.157   .     T
C1113  N1139   1.158   .     T
C1114  C456    1.409   1_556 S
C1115  N1140   1.158   .     T
C1116  H1126   1.083   .     S
C1116  C1262   1.383   1_455 S
C1117  H1127   1.083   .     S
C1117  C1120   1.401   .     A
C1117  C1191   1.383   .     S
C1118  C1120   1.401   .     A
C1118  H1128   1.083   .     S
C1118  C1188   1.383   .     S
C1119  H1129   1.083   .     S
C1119  C1261   1.383   1_455 S
Cu1121 O1146   1.964   .     S
Cu1121 O1141   1.964   .     S
Cu1121 Cu1122  2.697   .     S
Cu1121 N1133   2.027   .     S
Cu1121 O1148   1.962   .     S
Cu1121 O1150   1.963   .     S
Cu1122 O1145   1.964   .     S
Cu1122 N1134   2.027   .     S
Cu1122 O1151   1.963   .     S
Cu1122 O1147   1.964   .     S
Cu1122 O1149   1.962   .     S
C1153  O1219   1.297   .     A
C1153  C1154   1.450   .     S
C1153  O1213   1.297   .     A
C1154  C1188   1.401   .     A
C1154  C1191   1.401   .     A
C1155  C1183   1.443   .     S
C1155  N1206   1.372   .     A
C1156  N1205   1.373   .     A
C1156  C1184   1.444   .     S
C1156  C725    1.427   1_565 S
C1157  C1185   1.445   .     S
C1157  N1206   1.372   .     A
C1158  N1205   1.372   .     A
C1158  C1187   1.445   .     S
C1158  C723    1.426   1_565 S
C1159  O1223   1.296   .     A
C1159  C1165   1.453   .     S
C1159  O1220   1.296   .     A
C1160  O1222   1.297   .     A
C1160  O1221   1.295   .     A
C1160  C1163   1.453   .     S
C1161  C1172   1.396   .     A
C1161  C1163   1.383   .     A
C1161  H1195   1.081   .     S
C1162  H1197   1.080   .     S
C1162  C1173   1.399   .     A
C1162  C1165   1.385   .     A
C1163  C1166   1.402   .     A
C1164  C1192   1.450   .     S
C1164  O1217   1.297   .     A
C1164  O1218   1.297   .     A
C1165  C1167   1.400   .     A
C1166  C1177   1.454   .     S
C1166  C1168   1.425   .     A
C1167  C1169   1.421   .     A
C1167  C1178   1.453   .     S
C1168  C1170   1.430   .     A
C1168  C1174   1.427   .     A
C1169  C1176   1.423   .     A
C1169  C1171   1.428   .     A
C1170  C1172   1.419   .     A
C1170  C523    1.409   1_556 S
C1171  C1173   1.418   .     A
C1172  C1186   1.416   .     A
C1173  C1175   1.415   .     A
C1174  C1179   1.489   .     S
C1174  C527    1.411   1_556 S
C1175  C1181   1.488   .     S
C1176  C1180   1.490   .     S
C1177  N1207   1.158   .     T
C1178  N1208   1.158   .     T
C1179  H1202   1.085   .     S
C1179  O1224   1.221   .     D
C1180  H1203   1.084   .     S
C1180  O1214   1.222   .     D
C1181  O1215   1.221   .     D
C1181  H1204   1.084   .     S
C1182  H1196   1.085   .     S
C1182  O1216   1.221   .     D
C1182  C1186   1.491   .     S
C1183  N1209   1.157   .     T
C1184  N1210   1.157   .     T
C1185  N1211   1.158   .     T
C1186  C528    1.409   1_556 S
C1187  N1212   1.158   .     T
C1188  H1198   1.083   .     S
C1189  H1199   1.083   .     S
C1189  C1192   1.401   .     A
C1189  C1263   1.383   .     S
C1190  C1192   1.401   .     A
C1190  H1200   1.083   .     S
C1190  C1260   1.383   .     S
C1191  H1201   1.083   .     S
Cu1193 O1218   1.964   .     S
Cu1193 O1213   1.964   .     S
Cu1193 Cu1194  2.697   .     S
Cu1193 N1205   2.027   .     S
Cu1193 O1220   1.962   .     S
Cu1193 O1222   1.963   .     S
Cu1194 O1217   1.964   .     S
Cu1194 N1206   2.027   .     S
Cu1194 O1223   1.963   .     S
Cu1194 O1219   1.964   .     S
Cu1194 O1221   1.962   .     S
C1225  O1291   1.297   .     A
C1225  C1226   1.450   .     S
C1225  O1285   1.297   .     A
C1226  C1260   1.401   .     A
C1226  C1263   1.401   .     A
C1227  C1255   1.443   .     S
C1227  N1278   1.372   .     A
C1228  N1277   1.373   .     A
C1228  C1256   1.444   .     S
C1228  C797    1.427   1_565 S
C1229  C1257   1.445   .     S
C1229  N1278   1.372   .     A
C1230  N1277   1.372   .     A
C1230  C1259   1.445   .     S
C1230  C795    1.426   1_565 S
C1231  O1295   1.296   .     A
C1231  C1237   1.453   .     S
C1231  O1292   1.296   .     A
C1232  O1294   1.297   .     A
C1232  O1293   1.295   .     A
C1232  C1235   1.453   .     S
C1233  C1244   1.396   .     A
C1233  C1235   1.383   .     A
C1233  H1267   1.081   .     S
C1234  H1269   1.080   .     S
C1234  C1245   1.399   .     A
C1234  C1237   1.385   .     A
C1235  C1238   1.402   .     A
C1236  C1264   1.450   .     S
C1236  O1289   1.297   .     A
C1236  O1290   1.297   .     A
C1237  C1239   1.400   .     A
C1238  C1249   1.454   .     S
C1238  C1240   1.425   .     A
C1239  C1241   1.421   .     A
C1239  C1250   1.453   .     S
C1240  C1242   1.430   .     A
C1240  C1246   1.427   .     A
C1241  C1248   1.423   .     A
C1241  C1243   1.428   .     A
C1242  C1244   1.419   .     A
C1242  C595    1.409   1_556 S
C1243  C1245   1.418   .     A
C1244  C1258   1.416   .     A
C1245  C1247   1.415   .     A
C1246  C1251   1.489   .     S
C1246  C599    1.411   1_556 S
C1247  C1253   1.488   .     S
C1248  C1252   1.490   .     S
C1249  N1279   1.158   .     T
C1250  N1280   1.158   .     T
C1251  H1274   1.085   .     S
C1251  O1296   1.221   .     D
C1252  H1275   1.084   .     S
C1252  O1286   1.222   .     D
C1253  O1287   1.221   .     D
C1253  H1276   1.084   .     S
C1254  H1268   1.085   .     S
C1254  O1288   1.221   .     D
C1254  C1258   1.491   .     S
C1255  N1281   1.157   .     T
C1256  N1282   1.157   .     T
C1257  N1283   1.158   .     T
C1258  C600    1.409   1_556 S
C1259  N1284   1.158   .     T
C1260  H1270   1.083   .     S
C1261  H1271   1.083   .     S
C1261  C1264   1.401   .     A
C1261  C1119   1.383   1_655 S
C1262  C1264   1.401   .     A
C1262  H1272   1.083   .     S
C1262  C1116   1.383   1_655 S
C1263  H1273   1.083   .     S
Cu1265 O1290   1.964   .     S
Cu1265 O1285   1.964   .     S
Cu1265 Cu1266  2.697   .     S
Cu1265 N1277   2.027   .     S
Cu1265 O1292   1.962   .     S
Cu1265 O1294   1.963   .     S
Cu1266 O1289   1.964   .     S
Cu1266 N1278   2.027   .     S
Cu1266 O1295   1.963   .     S
Cu1266 O1291   1.964   .     S
Cu1266 O1293   1.962   .     S
