data_str_m2_o10_o16_pcu_sym.124
_audit_creation_date              2020-01-03
_audit_creation_method            'Materials Studio'
_symmetry_space_group_name_H-M    'P1'
_symmetry_Int_Tables_number       1
_symmetry_cell_setting            triclinic
loop_
_symmetry_equiv_pos_as_xyz
  x,y,z
_cell_length_a                    22.2690
_cell_length_b                    26.1301
_cell_length_c                    26.8220
_cell_angle_alpha                 94.0935
_cell_angle_beta                  77.3548
_cell_angle_gamma                 103.0164
loop_
_atom_site_label
_atom_site_type_symbol
_atom_site_fract_x
_atom_site_fract_y
_atom_site_fract_z
_atom_site_U_iso_or_equiv
_atom_site_adp_type
_atom_site_occupancy
C1     C     0.18079   0.26650   0.25385   0.00000  Uiso   1.00
C2     C     0.13960   0.16807   0.48763   0.00000  Uiso   1.00
C3     C     0.15576   0.18375   0.43596   0.00000  Uiso   1.00
C4     C     0.18670   0.18040   0.01767   0.00000  Uiso   1.00
C5     C     0.24686   0.21181   0.49721   0.00000  Uiso   1.00
C6     C     0.25932   0.23140   0.44827   0.00000  Uiso   1.00
C7     C     0.21426   0.21834   0.41845   0.00000  Uiso   1.00
C8     C     0.17591   0.16258   0.06760   0.00000  Uiso   1.00
C9     C     0.28050   0.20820   0.07679   0.00000  Uiso   1.00
C10    C     0.11265   0.16477   0.40332   0.00000  Uiso   1.00
C11    C     0.18675   0.32211   0.26150   0.00000  Uiso   1.00
C12    C     0.13321   0.16604   0.34724   0.00000  Uiso   1.00
C13    C     0.14424   0.01085   0.24797   0.00000  Uiso   1.00
C14    C     0.15154   0.06665   0.24915   0.00000  Uiso   1.00
C15    C     0.20057   0.17024   0.15294   0.00000  Uiso   1.00
C16    C     0.29352   0.22457   0.02652   0.00000  Uiso   1.00
C17    C     0.22092   0.17843   0.09786   0.00000  Uiso   1.00
C18    C     0.05109   0.13836   0.42423   0.00000  Uiso   1.00
C19    C     0.03317   0.12763   0.47592   0.00000  Uiso   1.00
C20    C     0.07683   0.14122   0.00721   0.00000  Uiso   1.00
Cu21   Cu    0.10710   0.16105   0.24435   0.00000  Uiso   1.00
Cu22   Cu    0.22623   0.17228   0.25564   0.00000  Uiso   1.00
H23    H     0.31583   0.22078   0.09975   0.00000  Uiso   1.00
H24    H     0.10361   0.32076   0.23460   0.00000  Uiso   1.00
H25    H     0.00363   0.20584   0.28967   0.00000  Uiso   1.00
H26    H     0.32963   0.12741   0.21044   0.00000  Uiso   1.00
H27    H     0.30412   0.25719   0.43294   0.00000  Uiso   1.00
H28    H     0.00619   0.24845   0.01097   0.00000  Uiso   1.00
H29    H     0.13211   0.13712   0.08461   0.00000  Uiso   1.00
H30    H     0.01717   0.12451   0.40025   0.00000  Uiso   1.00
H31    H     0.05932   0.13121   0.04678   0.00000  Uiso   1.00
H32    H     0.31872   0.10739   0.49170   0.00000  Uiso   1.00
H33    H     0.22573   0.23689   0.38191   0.00000  Uiso   1.00
N34    N     0.31574   0.18074   0.26416   0.00000  Uiso   1.00
N35    N     0.01759   0.15259   0.23584   0.00000  Uiso   1.00
O36    O     0.12797   0.23807   0.24633   0.00000  Uiso   1.00
O37    O     0.22858   0.24755   0.25586   0.00000  Uiso   1.00
O38    O     0.09181   0.15960   0.31839   0.00000  Uiso   1.00
O39    O     0.19242   0.16908   0.32793   0.00000  Uiso   1.00
O40    O     0.10476   0.08578   0.24413   0.00000  Uiso   1.00
O41    O     0.20536   0.09526   0.25367   0.00000  Uiso   1.00
O42    O     0.14092   0.16425   0.17207   0.00000  Uiso   1.00
O43    O     0.24152   0.17373   0.18160   0.00000  Uiso   1.00
O44    O     0.23796   0.01819   0.27997   0.00000  Uiso   1.00
C45    C     0.23199   0.00753   0.33216   0.00000  Uiso   1.00
H46    H     0.27626   0.33033   0.33634   0.00000  Uiso   1.00
H47    H     0.19237   0.30754   0.34731   0.00000  Uiso   1.00
C48    C     0.22333   0.05679   0.36484   0.00000  Uiso   1.00
H49    H     0.26294   0.09016   0.35078   0.00000  Uiso   1.00
H50    H     0.17860   0.06698   0.36142   0.00000  Uiso   1.00
C51    C     0.22091   0.04827   0.42102   0.00000  Uiso   1.00
H52    H     0.17981   0.01663   0.43641   0.00000  Uiso   1.00
H53    H     0.21620   0.08509   0.44340   0.00000  Uiso   1.00
H54    H     0.26479   0.03731   0.42549   0.00000  Uiso   1.00
C55    C     0.51412   0.26650   0.25385   0.00000  Uiso   1.00
C56    C     0.47293   0.16807   0.48763   0.00000  Uiso   1.00
C57    C     0.48909   0.18375   0.43596   0.00000  Uiso   1.00
C58    C     0.52003   0.18040   0.01767   0.00000  Uiso   1.00
C59    C     0.58020   0.21181   0.49721   0.00000  Uiso   1.00
C60    C     0.59265   0.23140   0.44827   0.00000  Uiso   1.00
C61    C     0.54760   0.21834   0.41845   0.00000  Uiso   1.00
C62    C     0.50925   0.16258   0.06760   0.00000  Uiso   1.00
C63    C     0.61383   0.20820   0.07679   0.00000  Uiso   1.00
C64    C     0.44598   0.16477   0.40332   0.00000  Uiso   1.00
C65    C     0.52008   0.32211   0.26150   0.00000  Uiso   1.00
C66    C     0.46655   0.16604   0.34724   0.00000  Uiso   1.00
C67    C     0.47757   0.01085   0.24797   0.00000  Uiso   1.00
C68    C     0.48488   0.06665   0.24915   0.00000  Uiso   1.00
C69    C     0.53390   0.17024   0.15294   0.00000  Uiso   1.00
C70    C     0.62685   0.22457   0.02652   0.00000  Uiso   1.00
C71    C     0.55426   0.17843   0.09786   0.00000  Uiso   1.00
C72    C     0.38442   0.13836   0.42423   0.00000  Uiso   1.00
C73    C     0.36650   0.12763   0.47592   0.00000  Uiso   1.00
C74    C     0.41017   0.14122   0.00721   0.00000  Uiso   1.00
Cu75   Cu    0.44043   0.16105   0.24435   0.00000  Uiso   1.00
Cu76   Cu    0.55957   0.17228   0.25564   0.00000  Uiso   1.00
H77    H     0.64916   0.22078   0.09975   0.00000  Uiso   1.00
H78    H     0.43694   0.32076   0.23460   0.00000  Uiso   1.00
H79    H     0.33696   0.20584   0.28967   0.00000  Uiso   1.00
H80    H     0.66296   0.12741   0.21044   0.00000  Uiso   1.00
H81    H     0.63746   0.25719   0.43294   0.00000  Uiso   1.00
H82    H     0.33953   0.24845   0.01097   0.00000  Uiso   1.00
H83    H     0.46544   0.13712   0.08461   0.00000  Uiso   1.00
H84    H     0.35051   0.12451   0.40025   0.00000  Uiso   1.00
H85    H     0.39266   0.13121   0.04678   0.00000  Uiso   1.00
H86    H     0.65205   0.10739   0.49170   0.00000  Uiso   1.00
H87    H     0.55906   0.23689   0.38191   0.00000  Uiso   1.00
N88    N     0.64908   0.18074   0.26416   0.00000  Uiso   1.00
N89    N     0.35092   0.15259   0.23584   0.00000  Uiso   1.00
O90    O     0.46131   0.23807   0.24633   0.00000  Uiso   1.00
O91    O     0.56191   0.24755   0.25586   0.00000  Uiso   1.00
O92    O     0.42515   0.15960   0.31839   0.00000  Uiso   1.00
O93    O     0.52575   0.16908   0.32793   0.00000  Uiso   1.00
O94    O     0.43809   0.08578   0.24413   0.00000  Uiso   1.00
O95    O     0.53869   0.09526   0.25367   0.00000  Uiso   1.00
O96    O     0.47425   0.16425   0.17207   0.00000  Uiso   1.00
O97    O     0.57485   0.17373   0.18160   0.00000  Uiso   1.00
O98    O     0.57129   0.01819   0.27997   0.00000  Uiso   1.00
C99    C     0.56533   0.00753   0.33216   0.00000  Uiso   1.00
H100   H     0.60959   0.33033   0.33634   0.00000  Uiso   1.00
H101   H     0.52571   0.30754   0.34731   0.00000  Uiso   1.00
C102   C     0.55666   0.05679   0.36484   0.00000  Uiso   1.00
H103   H     0.59628   0.09016   0.35078   0.00000  Uiso   1.00
H104   H     0.51194   0.06698   0.36142   0.00000  Uiso   1.00
C105   C     0.55424   0.04827   0.42102   0.00000  Uiso   1.00
H106   H     0.51314   0.01663   0.43641   0.00000  Uiso   1.00
H107   H     0.54954   0.08509   0.44340   0.00000  Uiso   1.00
H108   H     0.59812   0.03731   0.42549   0.00000  Uiso   1.00
C109   C     0.84745   0.26650   0.25385   0.00000  Uiso   1.00
C110   C     0.80626   0.16807   0.48763   0.00000  Uiso   1.00
C111   C     0.82243   0.18375   0.43596   0.00000  Uiso   1.00
C112   C     0.85336   0.18040   0.01767   0.00000  Uiso   1.00
C113   C     0.91353   0.21181   0.49721   0.00000  Uiso   1.00
C114   C     0.92598   0.23140   0.44827   0.00000  Uiso   1.00
C115   C     0.88093   0.21834   0.41845   0.00000  Uiso   1.00
C116   C     0.84258   0.16258   0.06760   0.00000  Uiso   1.00
C117   C     0.94717   0.20820   0.07679   0.00000  Uiso   1.00
C118   C     0.77931   0.16477   0.40332   0.00000  Uiso   1.00
C119   C     0.85341   0.32211   0.26150   0.00000  Uiso   1.00
C120   C     0.79988   0.16604   0.34724   0.00000  Uiso   1.00
C121   C     0.81090   0.01085   0.24797   0.00000  Uiso   1.00
C122   C     0.81821   0.06665   0.24915   0.00000  Uiso   1.00
C123   C     0.86723   0.17024   0.15294   0.00000  Uiso   1.00
C124   C     0.96019   0.22457   0.02652   0.00000  Uiso   1.00
C125   C     0.88759   0.17843   0.09786   0.00000  Uiso   1.00
C126   C     0.71776   0.13836   0.42423   0.00000  Uiso   1.00
C127   C     0.69983   0.12763   0.47592   0.00000  Uiso   1.00
C128   C     0.74350   0.14122   0.00721   0.00000  Uiso   1.00
Cu129  Cu    0.77377   0.16105   0.24435   0.00000  Uiso   1.00
Cu130  Cu    0.89290   0.17228   0.25564   0.00000  Uiso   1.00
H131   H     0.98250   0.22078   0.09975   0.00000  Uiso   1.00
H132   H     0.77027   0.32076   0.23460   0.00000  Uiso   1.00
H133   H     0.67029   0.20584   0.28967   0.00000  Uiso   1.00
H134   H     0.99630   0.12741   0.21044   0.00000  Uiso   1.00
H135   H     0.97079   0.25719   0.43294   0.00000  Uiso   1.00
H136   H     0.67286   0.24845   0.01097   0.00000  Uiso   1.00
H137   H     0.79877   0.13712   0.08461   0.00000  Uiso   1.00
H138   H     0.68384   0.12451   0.40025   0.00000  Uiso   1.00
H139   H     0.72599   0.13121   0.04678   0.00000  Uiso   1.00
H140   H     0.98538   0.10739   0.49170   0.00000  Uiso   1.00
H141   H     0.89240   0.23689   0.38191   0.00000  Uiso   1.00
N142   N     0.98241   0.18074   0.26416   0.00000  Uiso   1.00
N143   N     0.68426   0.15259   0.23584   0.00000  Uiso   1.00
O144   O     0.79464   0.23807   0.24633   0.00000  Uiso   1.00
O145   O     0.89524   0.24755   0.25586   0.00000  Uiso   1.00
O146   O     0.75848   0.15960   0.31839   0.00000  Uiso   1.00
O147   O     0.85908   0.16908   0.32793   0.00000  Uiso   1.00
O148   O     0.77142   0.08578   0.24413   0.00000  Uiso   1.00
O149   O     0.87203   0.09526   0.25367   0.00000  Uiso   1.00
O150   O     0.80758   0.16425   0.17207   0.00000  Uiso   1.00
O151   O     0.90819   0.17373   0.18160   0.00000  Uiso   1.00
O152   O     0.90463   0.01819   0.27997   0.00000  Uiso   1.00
C153   C     0.89866   0.00753   0.33216   0.00000  Uiso   1.00
H154   H     0.94293   0.33033   0.33634   0.00000  Uiso   1.00
H155   H     0.85904   0.30754   0.34731   0.00000  Uiso   1.00
C156   C     0.88999   0.05679   0.36484   0.00000  Uiso   1.00
H157   H     0.92961   0.09016   0.35078   0.00000  Uiso   1.00
H158   H     0.84527   0.06698   0.36142   0.00000  Uiso   1.00
C159   C     0.88757   0.04827   0.42102   0.00000  Uiso   1.00
H160   H     0.84648   0.01663   0.43641   0.00000  Uiso   1.00
H161   H     0.88287   0.08509   0.44340   0.00000  Uiso   1.00
H162   H     0.93146   0.03731   0.42549   0.00000  Uiso   1.00
C163   C     0.18079   0.59984   0.25385   0.00000  Uiso   1.00
C164   C     0.13960   0.50140   0.48763   0.00000  Uiso   1.00
C165   C     0.15576   0.51708   0.43596   0.00000  Uiso   1.00
C166   C     0.18670   0.51374   0.01767   0.00000  Uiso   1.00
C167   C     0.24686   0.54514   0.49721   0.00000  Uiso   1.00
C168   C     0.25932   0.56474   0.44827   0.00000  Uiso   1.00
C169   C     0.21426   0.55167   0.41845   0.00000  Uiso   1.00
C170   C     0.17591   0.49591   0.06760   0.00000  Uiso   1.00
C171   C     0.28050   0.54153   0.07679   0.00000  Uiso   1.00
C172   C     0.11265   0.49810   0.40332   0.00000  Uiso   1.00
C173   C     0.18675   0.65544   0.26150   0.00000  Uiso   1.00
C174   C     0.13321   0.49937   0.34724   0.00000  Uiso   1.00
C175   C     0.14424   0.34418   0.24797   0.00000  Uiso   1.00
C176   C     0.15154   0.39999   0.24915   0.00000  Uiso   1.00
C177   C     0.20057   0.50357   0.15294   0.00000  Uiso   1.00
C178   C     0.29352   0.55790   0.02652   0.00000  Uiso   1.00
C179   C     0.22092   0.51176   0.09786   0.00000  Uiso   1.00
C180   C     0.05109   0.47169   0.42423   0.00000  Uiso   1.00
C181   C     0.03317   0.46097   0.47592   0.00000  Uiso   1.00
C182   C     0.07683   0.47455   0.00721   0.00000  Uiso   1.00
Cu183  Cu    0.10710   0.49439   0.24435   0.00000  Uiso   1.00
Cu184  Cu    0.22623   0.50561   0.25564   0.00000  Uiso   1.00
H185   H     0.31583   0.55411   0.09975   0.00000  Uiso   1.00
H186   H     0.10361   0.65409   0.23460   0.00000  Uiso   1.00
H187   H     0.00363   0.53917   0.28967   0.00000  Uiso   1.00
H188   H     0.32963   0.46074   0.21044   0.00000  Uiso   1.00
H189   H     0.30412   0.59052   0.43294   0.00000  Uiso   1.00
H190   H     0.00619   0.58178   0.01097   0.00000  Uiso   1.00
H191   H     0.13211   0.47045   0.08461   0.00000  Uiso   1.00
H192   H     0.01717   0.45784   0.40025   0.00000  Uiso   1.00
H193   H     0.05932   0.46454   0.04678   0.00000  Uiso   1.00
H194   H     0.31872   0.44072   0.49170   0.00000  Uiso   1.00
H195   H     0.22573   0.57023   0.38191   0.00000  Uiso   1.00
N196   N     0.31574   0.51407   0.26416   0.00000  Uiso   1.00
N197   N     0.01759   0.48593   0.23584   0.00000  Uiso   1.00
O198   O     0.12797   0.57141   0.24633   0.00000  Uiso   1.00
O199   O     0.22858   0.58089   0.25586   0.00000  Uiso   1.00
O200   O     0.09181   0.49293   0.31839   0.00000  Uiso   1.00
O201   O     0.19242   0.50241   0.32793   0.00000  Uiso   1.00
O202   O     0.10476   0.41911   0.24413   0.00000  Uiso   1.00
O203   O     0.20536   0.42859   0.25367   0.00000  Uiso   1.00
O204   O     0.14092   0.49759   0.17207   0.00000  Uiso   1.00
O205   O     0.24152   0.50707   0.18160   0.00000  Uiso   1.00
O206   O     0.23796   0.35153   0.27997   0.00000  Uiso   1.00
C207   C     0.23199   0.34087   0.33216   0.00000  Uiso   1.00
H208   H     0.27626   0.66366   0.33634   0.00000  Uiso   1.00
H209   H     0.19237   0.64087   0.34731   0.00000  Uiso   1.00
C210   C     0.22333   0.39012   0.36484   0.00000  Uiso   1.00
H211   H     0.26294   0.42349   0.35078   0.00000  Uiso   1.00
H212   H     0.17860   0.40031   0.36142   0.00000  Uiso   1.00
C213   C     0.22091   0.38160   0.42102   0.00000  Uiso   1.00
H214   H     0.17981   0.34996   0.43641   0.00000  Uiso   1.00
H215   H     0.21620   0.41843   0.44340   0.00000  Uiso   1.00
H216   H     0.26479   0.37064   0.42549   0.00000  Uiso   1.00
C217   C     0.51412   0.59984   0.25385   0.00000  Uiso   1.00
C218   C     0.47293   0.50140   0.48763   0.00000  Uiso   1.00
C219   C     0.48909   0.51708   0.43596   0.00000  Uiso   1.00
C220   C     0.52003   0.51374   0.01767   0.00000  Uiso   1.00
C221   C     0.58020   0.54514   0.49721   0.00000  Uiso   1.00
C222   C     0.59265   0.56474   0.44827   0.00000  Uiso   1.00
C223   C     0.54760   0.55167   0.41845   0.00000  Uiso   1.00
C224   C     0.50925   0.49591   0.06760   0.00000  Uiso   1.00
C225   C     0.61383   0.54153   0.07679   0.00000  Uiso   1.00
C226   C     0.44598   0.49810   0.40332   0.00000  Uiso   1.00
C227   C     0.52008   0.65544   0.26150   0.00000  Uiso   1.00
C228   C     0.46655   0.49937   0.34724   0.00000  Uiso   1.00
C229   C     0.47757   0.34418   0.24797   0.00000  Uiso   1.00
C230   C     0.48488   0.39999   0.24915   0.00000  Uiso   1.00
C231   C     0.53390   0.50357   0.15294   0.00000  Uiso   1.00
C232   C     0.62685   0.55790   0.02652   0.00000  Uiso   1.00
C233   C     0.55426   0.51176   0.09786   0.00000  Uiso   1.00
C234   C     0.38442   0.47169   0.42423   0.00000  Uiso   1.00
C235   C     0.36650   0.46097   0.47592   0.00000  Uiso   1.00
C236   C     0.41017   0.47455   0.00721   0.00000  Uiso   1.00
Cu237  Cu    0.44043   0.49439   0.24435   0.00000  Uiso   1.00
Cu238  Cu    0.55957   0.50561   0.25564   0.00000  Uiso   1.00
H239   H     0.64916   0.55411   0.09975   0.00000  Uiso   1.00
H240   H     0.43694   0.65409   0.23460   0.00000  Uiso   1.00
H241   H     0.33696   0.53917   0.28967   0.00000  Uiso   1.00
H242   H     0.66296   0.46074   0.21044   0.00000  Uiso   1.00
H243   H     0.63746   0.59052   0.43294   0.00000  Uiso   1.00
H244   H     0.33953   0.58178   0.01097   0.00000  Uiso   1.00
H245   H     0.46544   0.47045   0.08461   0.00000  Uiso   1.00
H246   H     0.35051   0.45784   0.40025   0.00000  Uiso   1.00
H247   H     0.39266   0.46454   0.04678   0.00000  Uiso   1.00
H248   H     0.65205   0.44072   0.49170   0.00000  Uiso   1.00
H249   H     0.55906   0.57023   0.38191   0.00000  Uiso   1.00
N250   N     0.64908   0.51407   0.26416   0.00000  Uiso   1.00
N251   N     0.35092   0.48593   0.23584   0.00000  Uiso   1.00
O252   O     0.46131   0.57141   0.24633   0.00000  Uiso   1.00
O253   O     0.56191   0.58089   0.25586   0.00000  Uiso   1.00
O254   O     0.42515   0.49293   0.31839   0.00000  Uiso   1.00
O255   O     0.52575   0.50241   0.32793   0.00000  Uiso   1.00
O256   O     0.43809   0.41911   0.24413   0.00000  Uiso   1.00
O257   O     0.53869   0.42859   0.25367   0.00000  Uiso   1.00
O258   O     0.47425   0.49759   0.17207   0.00000  Uiso   1.00
O259   O     0.57485   0.50707   0.18160   0.00000  Uiso   1.00
O260   O     0.57129   0.35153   0.27997   0.00000  Uiso   1.00
C261   C     0.56533   0.34087   0.33216   0.00000  Uiso   1.00
H262   H     0.60959   0.66366   0.33634   0.00000  Uiso   1.00
H263   H     0.52571   0.64087   0.34731   0.00000  Uiso   1.00
C264   C     0.55666   0.39012   0.36484   0.00000  Uiso   1.00
H265   H     0.59628   0.42349   0.35078   0.00000  Uiso   1.00
H266   H     0.51194   0.40031   0.36142   0.00000  Uiso   1.00
C267   C     0.55424   0.38160   0.42102   0.00000  Uiso   1.00
H268   H     0.51314   0.34996   0.43641   0.00000  Uiso   1.00
H269   H     0.54954   0.41843   0.44340   0.00000  Uiso   1.00
H270   H     0.59812   0.37064   0.42549   0.00000  Uiso   1.00
C271   C     0.84745   0.59984   0.25385   0.00000  Uiso   1.00
C272   C     0.80626   0.50140   0.48763   0.00000  Uiso   1.00
C273   C     0.82243   0.51708   0.43596   0.00000  Uiso   1.00
C274   C     0.85336   0.51374   0.01767   0.00000  Uiso   1.00
C275   C     0.91353   0.54514   0.49721   0.00000  Uiso   1.00
C276   C     0.92598   0.56474   0.44827   0.00000  Uiso   1.00
C277   C     0.88093   0.55167   0.41845   0.00000  Uiso   1.00
C278   C     0.84258   0.49591   0.06760   0.00000  Uiso   1.00
C279   C     0.94717   0.54153   0.07679   0.00000  Uiso   1.00
C280   C     0.77931   0.49810   0.40332   0.00000  Uiso   1.00
C281   C     0.85341   0.65544   0.26150   0.00000  Uiso   1.00
C282   C     0.79988   0.49937   0.34724   0.00000  Uiso   1.00
C283   C     0.81090   0.34418   0.24797   0.00000  Uiso   1.00
C284   C     0.81821   0.39999   0.24915   0.00000  Uiso   1.00
C285   C     0.86723   0.50357   0.15294   0.00000  Uiso   1.00
C286   C     0.96019   0.55790   0.02652   0.00000  Uiso   1.00
C287   C     0.88759   0.51176   0.09786   0.00000  Uiso   1.00
C288   C     0.71776   0.47169   0.42423   0.00000  Uiso   1.00
C289   C     0.69983   0.46097   0.47592   0.00000  Uiso   1.00
C290   C     0.74350   0.47455   0.00721   0.00000  Uiso   1.00
Cu291  Cu    0.77377   0.49439   0.24435   0.00000  Uiso   1.00
Cu292  Cu    0.89290   0.50561   0.25564   0.00000  Uiso   1.00
H293   H     0.98250   0.55411   0.09975   0.00000  Uiso   1.00
H294   H     0.77027   0.65409   0.23460   0.00000  Uiso   1.00
H295   H     0.67029   0.53917   0.28967   0.00000  Uiso   1.00
H296   H     0.99630   0.46074   0.21044   0.00000  Uiso   1.00
H297   H     0.97079   0.59052   0.43294   0.00000  Uiso   1.00
H298   H     0.67286   0.58178   0.01097   0.00000  Uiso   1.00
H299   H     0.79877   0.47045   0.08461   0.00000  Uiso   1.00
H300   H     0.68384   0.45784   0.40025   0.00000  Uiso   1.00
H301   H     0.72599   0.46454   0.04678   0.00000  Uiso   1.00
H302   H     0.98538   0.44072   0.49170   0.00000  Uiso   1.00
H303   H     0.89240   0.57023   0.38191   0.00000  Uiso   1.00
N304   N     0.98241   0.51407   0.26416   0.00000  Uiso   1.00
N305   N     0.68426   0.48593   0.23584   0.00000  Uiso   1.00
O306   O     0.79464   0.57141   0.24633   0.00000  Uiso   1.00
O307   O     0.89524   0.58089   0.25586   0.00000  Uiso   1.00
O308   O     0.75848   0.49293   0.31839   0.00000  Uiso   1.00
O309   O     0.85908   0.50241   0.32793   0.00000  Uiso   1.00
O310   O     0.77142   0.41911   0.24413   0.00000  Uiso   1.00
O311   O     0.87203   0.42859   0.25367   0.00000  Uiso   1.00
O312   O     0.80758   0.49759   0.17207   0.00000  Uiso   1.00
O313   O     0.90819   0.50707   0.18160   0.00000  Uiso   1.00
O314   O     0.90463   0.35153   0.27997   0.00000  Uiso   1.00
C315   C     0.89866   0.34087   0.33216   0.00000  Uiso   1.00
H316   H     0.94293   0.66366   0.33634   0.00000  Uiso   1.00
H317   H     0.85904   0.64087   0.34731   0.00000  Uiso   1.00
C318   C     0.88999   0.39012   0.36484   0.00000  Uiso   1.00
H319   H     0.92961   0.42349   0.35078   0.00000  Uiso   1.00
H320   H     0.84527   0.40031   0.36142   0.00000  Uiso   1.00
C321   C     0.88757   0.38160   0.42102   0.00000  Uiso   1.00
H322   H     0.84648   0.34996   0.43641   0.00000  Uiso   1.00
H323   H     0.88287   0.41843   0.44340   0.00000  Uiso   1.00
H324   H     0.93146   0.37064   0.42549   0.00000  Uiso   1.00
C325   C     0.18079   0.93317   0.25385   0.00000  Uiso   1.00
C326   C     0.13960   0.83474   0.48763   0.00000  Uiso   1.00
C327   C     0.15576   0.85042   0.43596   0.00000  Uiso   1.00
C328   C     0.18670   0.84707   0.01767   0.00000  Uiso   1.00
C329   C     0.24686   0.87848   0.49721   0.00000  Uiso   1.00
C330   C     0.25932   0.89807   0.44827   0.00000  Uiso   1.00
C331   C     0.21426   0.88501   0.41845   0.00000  Uiso   1.00
C332   C     0.17591   0.82925   0.06760   0.00000  Uiso   1.00
C333   C     0.28050   0.87487   0.07679   0.00000  Uiso   1.00
C334   C     0.11265   0.83143   0.40332   0.00000  Uiso   1.00
C335   C     0.18675   0.98877   0.26150   0.00000  Uiso   1.00
C336   C     0.13321   0.83271   0.34724   0.00000  Uiso   1.00
C337   C     0.14424   0.67751   0.24797   0.00000  Uiso   1.00
C338   C     0.15154   0.73332   0.24915   0.00000  Uiso   1.00
C339   C     0.20057   0.83691   0.15294   0.00000  Uiso   1.00
C340   C     0.29352   0.89123   0.02652   0.00000  Uiso   1.00
C341   C     0.22092   0.84510   0.09786   0.00000  Uiso   1.00
C342   C     0.05109   0.80503   0.42423   0.00000  Uiso   1.00
C343   C     0.03317   0.79430   0.47592   0.00000  Uiso   1.00
C344   C     0.07683   0.80789   0.00721   0.00000  Uiso   1.00
Cu345  Cu    0.10710   0.82772   0.24435   0.00000  Uiso   1.00
Cu346  Cu    0.22623   0.83895   0.25564   0.00000  Uiso   1.00
H347   H     0.31583   0.88745   0.09975   0.00000  Uiso   1.00
H348   H     0.10361   0.98743   0.23460   0.00000  Uiso   1.00
H349   H     0.00363   0.87250   0.28967   0.00000  Uiso   1.00
H350   H     0.32963   0.79407   0.21044   0.00000  Uiso   1.00
H351   H     0.30412   0.92385   0.43294   0.00000  Uiso   1.00
H352   H     0.00619   0.91512   0.01097   0.00000  Uiso   1.00
H353   H     0.13211   0.80378   0.08461   0.00000  Uiso   1.00
H354   H     0.01717   0.79117   0.40025   0.00000  Uiso   1.00
H355   H     0.05932   0.79787   0.04678   0.00000  Uiso   1.00
H356   H     0.31872   0.77406   0.49170   0.00000  Uiso   1.00
H357   H     0.22573   0.90356   0.38191   0.00000  Uiso   1.00
N358   N     0.31574   0.84741   0.26416   0.00000  Uiso   1.00
N359   N     0.01759   0.81926   0.23584   0.00000  Uiso   1.00
O360   O     0.12797   0.90474   0.24633   0.00000  Uiso   1.00
O361   O     0.22858   0.91422   0.25586   0.00000  Uiso   1.00
O362   O     0.09181   0.82627   0.31839   0.00000  Uiso   1.00
O363   O     0.19242   0.83575   0.32793   0.00000  Uiso   1.00
O364   O     0.10476   0.75245   0.24413   0.00000  Uiso   1.00
O365   O     0.20536   0.76193   0.25367   0.00000  Uiso   1.00
O366   O     0.14092   0.83092   0.17207   0.00000  Uiso   1.00
O367   O     0.24152   0.84040   0.18160   0.00000  Uiso   1.00
O368   O     0.23796   0.68486   0.27997   0.00000  Uiso   1.00
C369   C     0.23199   0.67420   0.33216   0.00000  Uiso   1.00
H370   H     0.27626   0.99699   0.33634   0.00000  Uiso   1.00
H371   H     0.19237   0.97421   0.34731   0.00000  Uiso   1.00
C372   C     0.22333   0.72345   0.36484   0.00000  Uiso   1.00
H373   H     0.26294   0.75682   0.35078   0.00000  Uiso   1.00
H374   H     0.17860   0.73364   0.36142   0.00000  Uiso   1.00
C375   C     0.22091   0.71494   0.42102   0.00000  Uiso   1.00
H376   H     0.17981   0.68329   0.43641   0.00000  Uiso   1.00
H377   H     0.21620   0.75176   0.44340   0.00000  Uiso   1.00
H378   H     0.26479   0.70397   0.42549   0.00000  Uiso   1.00
C379   C     0.51412   0.93317   0.25385   0.00000  Uiso   1.00
C380   C     0.47293   0.83474   0.48763   0.00000  Uiso   1.00
C381   C     0.48909   0.85042   0.43596   0.00000  Uiso   1.00
C382   C     0.52003   0.84707   0.01767   0.00000  Uiso   1.00
C383   C     0.58020   0.87848   0.49721   0.00000  Uiso   1.00
C384   C     0.59265   0.89807   0.44827   0.00000  Uiso   1.00
C385   C     0.54760   0.88501   0.41845   0.00000  Uiso   1.00
C386   C     0.50925   0.82925   0.06760   0.00000  Uiso   1.00
C387   C     0.61383   0.87487   0.07679   0.00000  Uiso   1.00
C388   C     0.44598   0.83143   0.40332   0.00000  Uiso   1.00
C389   C     0.52008   0.98877   0.26150   0.00000  Uiso   1.00
C390   C     0.46655   0.83271   0.34724   0.00000  Uiso   1.00
C391   C     0.47757   0.67751   0.24797   0.00000  Uiso   1.00
C392   C     0.48488   0.73332   0.24915   0.00000  Uiso   1.00
C393   C     0.53390   0.83691   0.15294   0.00000  Uiso   1.00
C394   C     0.62685   0.89123   0.02652   0.00000  Uiso   1.00
C395   C     0.55426   0.84510   0.09786   0.00000  Uiso   1.00
C396   C     0.38442   0.80503   0.42423   0.00000  Uiso   1.00
C397   C     0.36650   0.79430   0.47592   0.00000  Uiso   1.00
C398   C     0.41017   0.80789   0.00721   0.00000  Uiso   1.00
Cu399  Cu    0.44043   0.82772   0.24435   0.00000  Uiso   1.00
Cu400  Cu    0.55957   0.83895   0.25564   0.00000  Uiso   1.00
H401   H     0.64916   0.88745   0.09975   0.00000  Uiso   1.00
H402   H     0.43694   0.98743   0.23460   0.00000  Uiso   1.00
H403   H     0.33696   0.87250   0.28967   0.00000  Uiso   1.00
H404   H     0.66296   0.79407   0.21044   0.00000  Uiso   1.00
H405   H     0.63746   0.92385   0.43294   0.00000  Uiso   1.00
H406   H     0.33953   0.91512   0.01097   0.00000  Uiso   1.00
H407   H     0.46544   0.80378   0.08461   0.00000  Uiso   1.00
H408   H     0.35051   0.79117   0.40025   0.00000  Uiso   1.00
H409   H     0.39266   0.79787   0.04678   0.00000  Uiso   1.00
H410   H     0.65205   0.77406   0.49170   0.00000  Uiso   1.00
H411   H     0.55906   0.90356   0.38191   0.00000  Uiso   1.00
N412   N     0.64908   0.84741   0.26416   0.00000  Uiso   1.00
N413   N     0.35092   0.81926   0.23584   0.00000  Uiso   1.00
O414   O     0.46131   0.90474   0.24633   0.00000  Uiso   1.00
O415   O     0.56191   0.91422   0.25586   0.00000  Uiso   1.00
O416   O     0.42515   0.82627   0.31839   0.00000  Uiso   1.00
O417   O     0.52575   0.83575   0.32793   0.00000  Uiso   1.00
O418   O     0.43809   0.75245   0.24413   0.00000  Uiso   1.00
O419   O     0.53869   0.76193   0.25367   0.00000  Uiso   1.00
O420   O     0.47425   0.83092   0.17207   0.00000  Uiso   1.00
O421   O     0.57485   0.84040   0.18160   0.00000  Uiso   1.00
O422   O     0.57129   0.68486   0.27997   0.00000  Uiso   1.00
C423   C     0.56533   0.67420   0.33216   0.00000  Uiso   1.00
H424   H     0.60959   0.99699   0.33634   0.00000  Uiso   1.00
H425   H     0.52571   0.97421   0.34731   0.00000  Uiso   1.00
C426   C     0.55666   0.72345   0.36484   0.00000  Uiso   1.00
H427   H     0.59628   0.75682   0.35078   0.00000  Uiso   1.00
H428   H     0.51194   0.73364   0.36142   0.00000  Uiso   1.00
C429   C     0.55424   0.71494   0.42102   0.00000  Uiso   1.00
H430   H     0.51314   0.68329   0.43641   0.00000  Uiso   1.00
H431   H     0.54954   0.75176   0.44340   0.00000  Uiso   1.00
H432   H     0.59812   0.70397   0.42549   0.00000  Uiso   1.00
C433   C     0.84745   0.93317   0.25385   0.00000  Uiso   1.00
C434   C     0.80626   0.83474   0.48763   0.00000  Uiso   1.00
C435   C     0.82243   0.85042   0.43596   0.00000  Uiso   1.00
C436   C     0.85336   0.84707   0.01767   0.00000  Uiso   1.00
C437   C     0.91353   0.87848   0.49721   0.00000  Uiso   1.00
C438   C     0.92598   0.89807   0.44827   0.00000  Uiso   1.00
C439   C     0.88093   0.88501   0.41845   0.00000  Uiso   1.00
C440   C     0.84258   0.82925   0.06760   0.00000  Uiso   1.00
C441   C     0.94717   0.87487   0.07679   0.00000  Uiso   1.00
C442   C     0.77931   0.83143   0.40332   0.00000  Uiso   1.00
C443   C     0.85341   0.98877   0.26150   0.00000  Uiso   1.00
C444   C     0.79988   0.83271   0.34724   0.00000  Uiso   1.00
C445   C     0.81090   0.67751   0.24797   0.00000  Uiso   1.00
C446   C     0.81821   0.73332   0.24915   0.00000  Uiso   1.00
C447   C     0.86723   0.83691   0.15294   0.00000  Uiso   1.00
C448   C     0.96019   0.89123   0.02652   0.00000  Uiso   1.00
C449   C     0.88759   0.84510   0.09786   0.00000  Uiso   1.00
C450   C     0.71776   0.80503   0.42423   0.00000  Uiso   1.00
C451   C     0.69983   0.79430   0.47592   0.00000  Uiso   1.00
C452   C     0.74350   0.80789   0.00721   0.00000  Uiso   1.00
Cu453  Cu    0.77377   0.82772   0.24435   0.00000  Uiso   1.00
Cu454  Cu    0.89290   0.83895   0.25564   0.00000  Uiso   1.00
H455   H     0.98250   0.88745   0.09975   0.00000  Uiso   1.00
H456   H     0.77027   0.98743   0.23460   0.00000  Uiso   1.00
H457   H     0.67029   0.87250   0.28967   0.00000  Uiso   1.00
H458   H     0.99630   0.79407   0.21044   0.00000  Uiso   1.00
H459   H     0.97079   0.92385   0.43294   0.00000  Uiso   1.00
H460   H     0.67286   0.91512   0.01097   0.00000  Uiso   1.00
H461   H     0.79877   0.80378   0.08461   0.00000  Uiso   1.00
H462   H     0.68384   0.79117   0.40025   0.00000  Uiso   1.00
H463   H     0.72599   0.79787   0.04678   0.00000  Uiso   1.00
H464   H     0.98538   0.77406   0.49170   0.00000  Uiso   1.00
H465   H     0.89240   0.90356   0.38191   0.00000  Uiso   1.00
N466   N     0.98241   0.84741   0.26416   0.00000  Uiso   1.00
N467   N     0.68426   0.81926   0.23584   0.00000  Uiso   1.00
O468   O     0.79464   0.90474   0.24633   0.00000  Uiso   1.00
O469   O     0.89524   0.91422   0.25586   0.00000  Uiso   1.00
O470   O     0.75848   0.82627   0.31839   0.00000  Uiso   1.00
O471   O     0.85908   0.83575   0.32793   0.00000  Uiso   1.00
O472   O     0.77142   0.75245   0.24413   0.00000  Uiso   1.00
O473   O     0.87203   0.76193   0.25367   0.00000  Uiso   1.00
O474   O     0.80758   0.83092   0.17207   0.00000  Uiso   1.00
O475   O     0.90819   0.84040   0.18160   0.00000  Uiso   1.00
O476   O     0.90463   0.68486   0.27997   0.00000  Uiso   1.00
C477   C     0.89866   0.67420   0.33216   0.00000  Uiso   1.00
H478   H     0.94293   0.99699   0.33634   0.00000  Uiso   1.00
H479   H     0.85904   0.97421   0.34731   0.00000  Uiso   1.00
C480   C     0.88999   0.72345   0.36484   0.00000  Uiso   1.00
H481   H     0.92961   0.75682   0.35078   0.00000  Uiso   1.00
H482   H     0.84527   0.73364   0.36142   0.00000  Uiso   1.00
C483   C     0.88757   0.71494   0.42102   0.00000  Uiso   1.00
H484   H     0.84648   0.68329   0.43641   0.00000  Uiso   1.00
H485   H     0.88287   0.75176   0.44340   0.00000  Uiso   1.00
H486   H     0.93146   0.70397   0.42549   0.00000  Uiso   1.00
C487   C     0.18079   0.26650   0.75385   0.00000  Uiso   1.00
C488   C     0.13960   0.16807   0.98763   0.00000  Uiso   1.00
C489   C     0.15576   0.18375   0.93596   0.00000  Uiso   1.00
C490   C     0.18670   0.18040   0.51767   0.00000  Uiso   1.00
C491   C     0.24686   0.21181   0.99721   0.00000  Uiso   1.00
C492   C     0.25932   0.23140   0.94827   0.00000  Uiso   1.00
C493   C     0.21426   0.21834   0.91845   0.00000  Uiso   1.00
C494   C     0.17591   0.16258   0.56760   0.00000  Uiso   1.00
C495   C     0.28050   0.20820   0.57679   0.00000  Uiso   1.00
C496   C     0.11265   0.16477   0.90332   0.00000  Uiso   1.00
C497   C     0.18675   0.32211   0.76150   0.00000  Uiso   1.00
C498   C     0.13321   0.16604   0.84724   0.00000  Uiso   1.00
C499   C     0.14424   0.01085   0.74797   0.00000  Uiso   1.00
C500   C     0.15154   0.06665   0.74915   0.00000  Uiso   1.00
C501   C     0.20057   0.17024   0.65294   0.00000  Uiso   1.00
C502   C     0.29352   0.22457   0.52652   0.00000  Uiso   1.00
C503   C     0.22092   0.17843   0.59786   0.00000  Uiso   1.00
C504   C     0.05109   0.13836   0.92423   0.00000  Uiso   1.00
C505   C     0.03317   0.12763   0.97592   0.00000  Uiso   1.00
C506   C     0.07683   0.14122   0.50721   0.00000  Uiso   1.00
Cu507  Cu    0.10710   0.16105   0.74435   0.00000  Uiso   1.00
Cu508  Cu    0.22623   0.17228   0.75564   0.00000  Uiso   1.00
H509   H     0.31583   0.22078   0.59975   0.00000  Uiso   1.00
H510   H     0.10361   0.32076   0.73460   0.00000  Uiso   1.00
H511   H     0.00363   0.20584   0.78967   0.00000  Uiso   1.00
H512   H     0.32963   0.12741   0.71044   0.00000  Uiso   1.00
H513   H     0.30412   0.25719   0.93294   0.00000  Uiso   1.00
H514   H     0.00619   0.24845   0.51097   0.00000  Uiso   1.00
H515   H     0.13211   0.13712   0.58461   0.00000  Uiso   1.00
H516   H     0.01717   0.12451   0.90025   0.00000  Uiso   1.00
H517   H     0.05932   0.13121   0.54678   0.00000  Uiso   1.00
H518   H     0.31872   0.10739   0.99170   0.00000  Uiso   1.00
H519   H     0.22573   0.23689   0.88191   0.00000  Uiso   1.00
N520   N     0.31574   0.18074   0.76416   0.00000  Uiso   1.00
N521   N     0.01759   0.15259   0.73584   0.00000  Uiso   1.00
O522   O     0.12797   0.23807   0.74633   0.00000  Uiso   1.00
O523   O     0.22858   0.24755   0.75586   0.00000  Uiso   1.00
O524   O     0.09181   0.15960   0.81839   0.00000  Uiso   1.00
O525   O     0.19242   0.16908   0.82793   0.00000  Uiso   1.00
O526   O     0.10476   0.08578   0.74413   0.00000  Uiso   1.00
O527   O     0.20536   0.09526   0.75367   0.00000  Uiso   1.00
O528   O     0.14092   0.16425   0.67207   0.00000  Uiso   1.00
O529   O     0.24152   0.17373   0.68160   0.00000  Uiso   1.00
O530   O     0.23796   0.01819   0.77997   0.00000  Uiso   1.00
C531   C     0.23199   0.00753   0.83216   0.00000  Uiso   1.00
H532   H     0.27626   0.33033   0.83634   0.00000  Uiso   1.00
H533   H     0.19237   0.30754   0.84731   0.00000  Uiso   1.00
C534   C     0.22333   0.05679   0.86484   0.00000  Uiso   1.00
H535   H     0.26294   0.09016   0.85078   0.00000  Uiso   1.00
H536   H     0.17860   0.06698   0.86142   0.00000  Uiso   1.00
C537   C     0.22091   0.04827   0.92102   0.00000  Uiso   1.00
H538   H     0.17981   0.01663   0.93641   0.00000  Uiso   1.00
H539   H     0.21620   0.08509   0.94340   0.00000  Uiso   1.00
H540   H     0.26479   0.03731   0.92549   0.00000  Uiso   1.00
C541   C     0.51412   0.26650   0.75385   0.00000  Uiso   1.00
C542   C     0.47293   0.16807   0.98763   0.00000  Uiso   1.00
C543   C     0.48909   0.18375   0.93596   0.00000  Uiso   1.00
C544   C     0.52003   0.18040   0.51767   0.00000  Uiso   1.00
C545   C     0.58020   0.21181   0.99721   0.00000  Uiso   1.00
C546   C     0.59265   0.23140   0.94827   0.00000  Uiso   1.00
C547   C     0.54760   0.21834   0.91845   0.00000  Uiso   1.00
C548   C     0.50925   0.16258   0.56760   0.00000  Uiso   1.00
C549   C     0.61383   0.20820   0.57679   0.00000  Uiso   1.00
C550   C     0.44598   0.16477   0.90332   0.00000  Uiso   1.00
C551   C     0.52008   0.32211   0.76150   0.00000  Uiso   1.00
C552   C     0.46655   0.16604   0.84724   0.00000  Uiso   1.00
C553   C     0.47757   0.01085   0.74797   0.00000  Uiso   1.00
C554   C     0.48488   0.06665   0.74915   0.00000  Uiso   1.00
C555   C     0.53390   0.17024   0.65294   0.00000  Uiso   1.00
C556   C     0.62685   0.22457   0.52652   0.00000  Uiso   1.00
C557   C     0.55426   0.17843   0.59786   0.00000  Uiso   1.00
C558   C     0.38442   0.13836   0.92423   0.00000  Uiso   1.00
C559   C     0.36650   0.12763   0.97592   0.00000  Uiso   1.00
C560   C     0.41017   0.14122   0.50721   0.00000  Uiso   1.00
Cu561  Cu    0.44043   0.16105   0.74435   0.00000  Uiso   1.00
Cu562  Cu    0.55957   0.17228   0.75564   0.00000  Uiso   1.00
H563   H     0.64916   0.22078   0.59975   0.00000  Uiso   1.00
H564   H     0.43694   0.32076   0.73460   0.00000  Uiso   1.00
H565   H     0.33696   0.20584   0.78967   0.00000  Uiso   1.00
H566   H     0.66296   0.12741   0.71044   0.00000  Uiso   1.00
H567   H     0.63746   0.25719   0.93294   0.00000  Uiso   1.00
H568   H     0.33953   0.24845   0.51097   0.00000  Uiso   1.00
H569   H     0.46544   0.13712   0.58461   0.00000  Uiso   1.00
H570   H     0.35051   0.12451   0.90025   0.00000  Uiso   1.00
H571   H     0.39266   0.13121   0.54678   0.00000  Uiso   1.00
H572   H     0.65205   0.10739   0.99170   0.00000  Uiso   1.00
H573   H     0.55906   0.23689   0.88191   0.00000  Uiso   1.00
N574   N     0.64908   0.18074   0.76416   0.00000  Uiso   1.00
N575   N     0.35092   0.15259   0.73584   0.00000  Uiso   1.00
O576   O     0.46131   0.23807   0.74633   0.00000  Uiso   1.00
O577   O     0.56191   0.24755   0.75586   0.00000  Uiso   1.00
O578   O     0.42515   0.15960   0.81839   0.00000  Uiso   1.00
O579   O     0.52575   0.16908   0.82793   0.00000  Uiso   1.00
O580   O     0.43809   0.08578   0.74413   0.00000  Uiso   1.00
O581   O     0.53869   0.09526   0.75367   0.00000  Uiso   1.00
O582   O     0.47425   0.16425   0.67207   0.00000  Uiso   1.00
O583   O     0.57485   0.17373   0.68160   0.00000  Uiso   1.00
O584   O     0.57129   0.01819   0.77997   0.00000  Uiso   1.00
C585   C     0.56533   0.00753   0.83216   0.00000  Uiso   1.00
H586   H     0.60959   0.33033   0.83634   0.00000  Uiso   1.00
H587   H     0.52571   0.30754   0.84731   0.00000  Uiso   1.00
C588   C     0.55666   0.05679   0.86484   0.00000  Uiso   1.00
H589   H     0.59628   0.09016   0.85078   0.00000  Uiso   1.00
H590   H     0.51194   0.06698   0.86142   0.00000  Uiso   1.00
C591   C     0.55424   0.04827   0.92102   0.00000  Uiso   1.00
H592   H     0.51314   0.01663   0.93641   0.00000  Uiso   1.00
H593   H     0.54954   0.08509   0.94340   0.00000  Uiso   1.00
H594   H     0.59812   0.03731   0.92549   0.00000  Uiso   1.00
C595   C     0.84745   0.26650   0.75385   0.00000  Uiso   1.00
C596   C     0.80626   0.16807   0.98763   0.00000  Uiso   1.00
C597   C     0.82243   0.18375   0.93596   0.00000  Uiso   1.00
C598   C     0.85336   0.18040   0.51767   0.00000  Uiso   1.00
C599   C     0.91353   0.21181   0.99721   0.00000  Uiso   1.00
C600   C     0.92598   0.23140   0.94827   0.00000  Uiso   1.00
C601   C     0.88093   0.21834   0.91845   0.00000  Uiso   1.00
C602   C     0.84258   0.16258   0.56760   0.00000  Uiso   1.00
C603   C     0.94717   0.20820   0.57679   0.00000  Uiso   1.00
C604   C     0.77931   0.16477   0.90332   0.00000  Uiso   1.00
C605   C     0.85341   0.32211   0.76150   0.00000  Uiso   1.00
C606   C     0.79988   0.16604   0.84724   0.00000  Uiso   1.00
C607   C     0.81090   0.01085   0.74797   0.00000  Uiso   1.00
C608   C     0.81821   0.06665   0.74915   0.00000  Uiso   1.00
C609   C     0.86723   0.17024   0.65294   0.00000  Uiso   1.00
C610   C     0.96019   0.22457   0.52652   0.00000  Uiso   1.00
C611   C     0.88759   0.17843   0.59786   0.00000  Uiso   1.00
C612   C     0.71776   0.13836   0.92423   0.00000  Uiso   1.00
C613   C     0.69983   0.12763   0.97592   0.00000  Uiso   1.00
C614   C     0.74350   0.14122   0.50721   0.00000  Uiso   1.00
Cu615  Cu    0.77377   0.16105   0.74435   0.00000  Uiso   1.00
Cu616  Cu    0.89290   0.17228   0.75564   0.00000  Uiso   1.00
H617   H     0.98250   0.22078   0.59975   0.00000  Uiso   1.00
H618   H     0.77027   0.32076   0.73460   0.00000  Uiso   1.00
H619   H     0.67029   0.20584   0.78967   0.00000  Uiso   1.00
H620   H     0.99630   0.12741   0.71044   0.00000  Uiso   1.00
H621   H     0.97079   0.25719   0.93294   0.00000  Uiso   1.00
H622   H     0.67286   0.24845   0.51097   0.00000  Uiso   1.00
H623   H     0.79877   0.13712   0.58461   0.00000  Uiso   1.00
H624   H     0.68384   0.12451   0.90025   0.00000  Uiso   1.00
H625   H     0.72599   0.13121   0.54678   0.00000  Uiso   1.00
H626   H     0.98538   0.10739   0.99170   0.00000  Uiso   1.00
H627   H     0.89240   0.23689   0.88191   0.00000  Uiso   1.00
N628   N     0.98241   0.18074   0.76416   0.00000  Uiso   1.00
N629   N     0.68426   0.15259   0.73584   0.00000  Uiso   1.00
O630   O     0.79464   0.23807   0.74633   0.00000  Uiso   1.00
O631   O     0.89524   0.24755   0.75586   0.00000  Uiso   1.00
O632   O     0.75848   0.15960   0.81839   0.00000  Uiso   1.00
O633   O     0.85908   0.16908   0.82793   0.00000  Uiso   1.00
O634   O     0.77142   0.08578   0.74413   0.00000  Uiso   1.00
O635   O     0.87203   0.09526   0.75367   0.00000  Uiso   1.00
O636   O     0.80758   0.16425   0.67207   0.00000  Uiso   1.00
O637   O     0.90819   0.17373   0.68160   0.00000  Uiso   1.00
O638   O     0.90463   0.01819   0.77997   0.00000  Uiso   1.00
C639   C     0.89866   0.00753   0.83216   0.00000  Uiso   1.00
H640   H     0.94293   0.33033   0.83634   0.00000  Uiso   1.00
H641   H     0.85904   0.30754   0.84731   0.00000  Uiso   1.00
C642   C     0.88999   0.05679   0.86484   0.00000  Uiso   1.00
H643   H     0.92961   0.09016   0.85078   0.00000  Uiso   1.00
H644   H     0.84527   0.06698   0.86142   0.00000  Uiso   1.00
C645   C     0.88757   0.04827   0.92102   0.00000  Uiso   1.00
H646   H     0.84648   0.01663   0.93641   0.00000  Uiso   1.00
H647   H     0.88287   0.08509   0.94340   0.00000  Uiso   1.00
H648   H     0.93146   0.03731   0.92549   0.00000  Uiso   1.00
C649   C     0.18079   0.59984   0.75385   0.00000  Uiso   1.00
C650   C     0.13960   0.50140   0.98763   0.00000  Uiso   1.00
C651   C     0.15576   0.51708   0.93596   0.00000  Uiso   1.00
C652   C     0.18670   0.51374   0.51767   0.00000  Uiso   1.00
C653   C     0.24686   0.54514   0.99721   0.00000  Uiso   1.00
C654   C     0.25932   0.56474   0.94827   0.00000  Uiso   1.00
C655   C     0.21426   0.55167   0.91845   0.00000  Uiso   1.00
C656   C     0.17591   0.49591   0.56760   0.00000  Uiso   1.00
C657   C     0.28050   0.54153   0.57679   0.00000  Uiso   1.00
C658   C     0.11265   0.49810   0.90332   0.00000  Uiso   1.00
C659   C     0.18675   0.65544   0.76150   0.00000  Uiso   1.00
C660   C     0.13321   0.49937   0.84724   0.00000  Uiso   1.00
C661   C     0.14424   0.34418   0.74797   0.00000  Uiso   1.00
C662   C     0.15154   0.39999   0.74915   0.00000  Uiso   1.00
C663   C     0.20057   0.50357   0.65294   0.00000  Uiso   1.00
C664   C     0.29352   0.55790   0.52652   0.00000  Uiso   1.00
C665   C     0.22092   0.51176   0.59786   0.00000  Uiso   1.00
C666   C     0.05109   0.47169   0.92423   0.00000  Uiso   1.00
C667   C     0.03317   0.46097   0.97592   0.00000  Uiso   1.00
C668   C     0.07683   0.47455   0.50721   0.00000  Uiso   1.00
Cu669  Cu    0.10710   0.49439   0.74435   0.00000  Uiso   1.00
Cu670  Cu    0.22623   0.50561   0.75564   0.00000  Uiso   1.00
H671   H     0.31583   0.55411   0.59975   0.00000  Uiso   1.00
H672   H     0.10361   0.65409   0.73460   0.00000  Uiso   1.00
H673   H     0.00363   0.53917   0.78967   0.00000  Uiso   1.00
H674   H     0.32963   0.46074   0.71044   0.00000  Uiso   1.00
H675   H     0.30412   0.59052   0.93294   0.00000  Uiso   1.00
H676   H     0.00619   0.58178   0.51097   0.00000  Uiso   1.00
H677   H     0.13211   0.47045   0.58461   0.00000  Uiso   1.00
H678   H     0.01717   0.45784   0.90025   0.00000  Uiso   1.00
H679   H     0.05932   0.46454   0.54678   0.00000  Uiso   1.00
H680   H     0.31872   0.44072   0.99170   0.00000  Uiso   1.00
H681   H     0.22573   0.57023   0.88191   0.00000  Uiso   1.00
N682   N     0.31574   0.51407   0.76416   0.00000  Uiso   1.00
N683   N     0.01759   0.48593   0.73584   0.00000  Uiso   1.00
O684   O     0.12797   0.57141   0.74633   0.00000  Uiso   1.00
O685   O     0.22858   0.58089   0.75586   0.00000  Uiso   1.00
O686   O     0.09181   0.49293   0.81839   0.00000  Uiso   1.00
O687   O     0.19242   0.50241   0.82793   0.00000  Uiso   1.00
O688   O     0.10476   0.41911   0.74413   0.00000  Uiso   1.00
O689   O     0.20536   0.42859   0.75367   0.00000  Uiso   1.00
O690   O     0.14092   0.49759   0.67207   0.00000  Uiso   1.00
O691   O     0.24152   0.50707   0.68160   0.00000  Uiso   1.00
O692   O     0.23796   0.35153   0.77997   0.00000  Uiso   1.00
C693   C     0.23199   0.34087   0.83216   0.00000  Uiso   1.00
H694   H     0.27626   0.66366   0.83634   0.00000  Uiso   1.00
H695   H     0.19237   0.64087   0.84731   0.00000  Uiso   1.00
C696   C     0.22333   0.39012   0.86484   0.00000  Uiso   1.00
H697   H     0.26294   0.42349   0.85078   0.00000  Uiso   1.00
H698   H     0.17860   0.40031   0.86142   0.00000  Uiso   1.00
C699   C     0.22091   0.38160   0.92102   0.00000  Uiso   1.00
H700   H     0.17981   0.34996   0.93641   0.00000  Uiso   1.00
H701   H     0.21620   0.41843   0.94340   0.00000  Uiso   1.00
H702   H     0.26479   0.37064   0.92549   0.00000  Uiso   1.00
C703   C     0.51412   0.59984   0.75385   0.00000  Uiso   1.00
C704   C     0.47293   0.50140   0.98763   0.00000  Uiso   1.00
C705   C     0.48909   0.51708   0.93596   0.00000  Uiso   1.00
C706   C     0.52003   0.51374   0.51767   0.00000  Uiso   1.00
C707   C     0.58020   0.54514   0.99721   0.00000  Uiso   1.00
C708   C     0.59265   0.56474   0.94827   0.00000  Uiso   1.00
C709   C     0.54760   0.55167   0.91845   0.00000  Uiso   1.00
C710   C     0.50925   0.49591   0.56760   0.00000  Uiso   1.00
C711   C     0.61383   0.54153   0.57679   0.00000  Uiso   1.00
C712   C     0.44598   0.49810   0.90332   0.00000  Uiso   1.00
C713   C     0.52008   0.65544   0.76150   0.00000  Uiso   1.00
C714   C     0.46655   0.49937   0.84724   0.00000  Uiso   1.00
C715   C     0.47757   0.34418   0.74797   0.00000  Uiso   1.00
C716   C     0.48488   0.39999   0.74915   0.00000  Uiso   1.00
C717   C     0.53390   0.50357   0.65294   0.00000  Uiso   1.00
C718   C     0.62685   0.55790   0.52652   0.00000  Uiso   1.00
C719   C     0.55426   0.51176   0.59786   0.00000  Uiso   1.00
C720   C     0.38442   0.47169   0.92423   0.00000  Uiso   1.00
C721   C     0.36650   0.46097   0.97592   0.00000  Uiso   1.00
C722   C     0.41017   0.47455   0.50721   0.00000  Uiso   1.00
Cu723  Cu    0.44043   0.49439   0.74435   0.00000  Uiso   1.00
Cu724  Cu    0.55957   0.50561   0.75564   0.00000  Uiso   1.00
H725   H     0.64916   0.55411   0.59975   0.00000  Uiso   1.00
H726   H     0.43694   0.65409   0.73460   0.00000  Uiso   1.00
H727   H     0.33696   0.53917   0.78967   0.00000  Uiso   1.00
H728   H     0.66296   0.46074   0.71044   0.00000  Uiso   1.00
H729   H     0.63746   0.59052   0.93294   0.00000  Uiso   1.00
H730   H     0.33953   0.58178   0.51097   0.00000  Uiso   1.00
H731   H     0.46544   0.47045   0.58461   0.00000  Uiso   1.00
H732   H     0.35051   0.45784   0.90025   0.00000  Uiso   1.00
H733   H     0.39266   0.46454   0.54678   0.00000  Uiso   1.00
H734   H     0.65205   0.44072   0.99170   0.00000  Uiso   1.00
H735   H     0.55906   0.57023   0.88191   0.00000  Uiso   1.00
N736   N     0.64908   0.51407   0.76416   0.00000  Uiso   1.00
N737   N     0.35092   0.48593   0.73584   0.00000  Uiso   1.00
O738   O     0.46131   0.57141   0.74633   0.00000  Uiso   1.00
O739   O     0.56191   0.58089   0.75586   0.00000  Uiso   1.00
O740   O     0.42515   0.49293   0.81839   0.00000  Uiso   1.00
O741   O     0.52575   0.50241   0.82793   0.00000  Uiso   1.00
O742   O     0.43809   0.41911   0.74413   0.00000  Uiso   1.00
O743   O     0.53869   0.42859   0.75367   0.00000  Uiso   1.00
O744   O     0.47425   0.49759   0.67207   0.00000  Uiso   1.00
O745   O     0.57485   0.50707   0.68160   0.00000  Uiso   1.00
O746   O     0.57129   0.35153   0.77997   0.00000  Uiso   1.00
C747   C     0.56533   0.34087   0.83216   0.00000  Uiso   1.00
H748   H     0.60959   0.66366   0.83634   0.00000  Uiso   1.00
H749   H     0.52571   0.64087   0.84731   0.00000  Uiso   1.00
C750   C     0.55666   0.39012   0.86484   0.00000  Uiso   1.00
H751   H     0.59628   0.42349   0.85078   0.00000  Uiso   1.00
H752   H     0.51194   0.40031   0.86142   0.00000  Uiso   1.00
C753   C     0.55424   0.38160   0.92102   0.00000  Uiso   1.00
H754   H     0.51314   0.34996   0.93641   0.00000  Uiso   1.00
H755   H     0.54954   0.41843   0.94340   0.00000  Uiso   1.00
H756   H     0.59812   0.37064   0.92549   0.00000  Uiso   1.00
C757   C     0.84745   0.59984   0.75385   0.00000  Uiso   1.00
C758   C     0.80626   0.50140   0.98763   0.00000  Uiso   1.00
C759   C     0.82243   0.51708   0.93596   0.00000  Uiso   1.00
C760   C     0.85336   0.51374   0.51767   0.00000  Uiso   1.00
C761   C     0.91353   0.54514   0.99721   0.00000  Uiso   1.00
C762   C     0.92598   0.56474   0.94827   0.00000  Uiso   1.00
C763   C     0.88093   0.55167   0.91845   0.00000  Uiso   1.00
C764   C     0.84258   0.49591   0.56760   0.00000  Uiso   1.00
C765   C     0.94717   0.54153   0.57679   0.00000  Uiso   1.00
C766   C     0.77931   0.49810   0.90332   0.00000  Uiso   1.00
C767   C     0.85341   0.65544   0.76150   0.00000  Uiso   1.00
C768   C     0.79988   0.49937   0.84724   0.00000  Uiso   1.00
C769   C     0.81090   0.34418   0.74797   0.00000  Uiso   1.00
C770   C     0.81821   0.39999   0.74915   0.00000  Uiso   1.00
C771   C     0.86723   0.50357   0.65294   0.00000  Uiso   1.00
C772   C     0.96019   0.55790   0.52652   0.00000  Uiso   1.00
C773   C     0.88759   0.51176   0.59786   0.00000  Uiso   1.00
C774   C     0.71776   0.47169   0.92423   0.00000  Uiso   1.00
C775   C     0.69983   0.46097   0.97592   0.00000  Uiso   1.00
C776   C     0.74350   0.47455   0.50721   0.00000  Uiso   1.00
Cu777  Cu    0.77377   0.49439   0.74435   0.00000  Uiso   1.00
Cu778  Cu    0.89290   0.50561   0.75564   0.00000  Uiso   1.00
H779   H     0.98250   0.55411   0.59975   0.00000  Uiso   1.00
H780   H     0.77027   0.65409   0.73460   0.00000  Uiso   1.00
H781   H     0.67029   0.53917   0.78967   0.00000  Uiso   1.00
H782   H     0.99630   0.46074   0.71044   0.00000  Uiso   1.00
H783   H     0.97079   0.59052   0.93294   0.00000  Uiso   1.00
H784   H     0.67286   0.58178   0.51097   0.00000  Uiso   1.00
H785   H     0.79877   0.47045   0.58461   0.00000  Uiso   1.00
H786   H     0.68384   0.45784   0.90025   0.00000  Uiso   1.00
H787   H     0.72599   0.46454   0.54678   0.00000  Uiso   1.00
H788   H     0.98538   0.44072   0.99170   0.00000  Uiso   1.00
H789   H     0.89240   0.57023   0.88191   0.00000  Uiso   1.00
N790   N     0.98241   0.51407   0.76416   0.00000  Uiso   1.00
N791   N     0.68426   0.48593   0.73584   0.00000  Uiso   1.00
O792   O     0.79464   0.57141   0.74633   0.00000  Uiso   1.00
O793   O     0.89524   0.58089   0.75586   0.00000  Uiso   1.00
O794   O     0.75848   0.49293   0.81839   0.00000  Uiso   1.00
O795   O     0.85908   0.50241   0.82793   0.00000  Uiso   1.00
O796   O     0.77142   0.41911   0.74413   0.00000  Uiso   1.00
O797   O     0.87203   0.42859   0.75367   0.00000  Uiso   1.00
O798   O     0.80758   0.49759   0.67207   0.00000  Uiso   1.00
O799   O     0.90819   0.50707   0.68160   0.00000  Uiso   1.00
O800   O     0.90463   0.35153   0.77997   0.00000  Uiso   1.00
C801   C     0.89866   0.34087   0.83216   0.00000  Uiso   1.00
H802   H     0.94293   0.66366   0.83634   0.00000  Uiso   1.00
H803   H     0.85904   0.64087   0.84731   0.00000  Uiso   1.00
C804   C     0.88999   0.39012   0.86484   0.00000  Uiso   1.00
H805   H     0.92961   0.42349   0.85078   0.00000  Uiso   1.00
H806   H     0.84527   0.40031   0.86142   0.00000  Uiso   1.00
C807   C     0.88757   0.38160   0.92102   0.00000  Uiso   1.00
H808   H     0.84648   0.34996   0.93641   0.00000  Uiso   1.00
H809   H     0.88287   0.41843   0.94340   0.00000  Uiso   1.00
H810   H     0.93146   0.37064   0.92549   0.00000  Uiso   1.00
C811   C     0.18079   0.93317   0.75385   0.00000  Uiso   1.00
C812   C     0.13960   0.83474   0.98763   0.00000  Uiso   1.00
C813   C     0.15576   0.85042   0.93596   0.00000  Uiso   1.00
C814   C     0.18670   0.84707   0.51767   0.00000  Uiso   1.00
C815   C     0.24686   0.87848   0.99721   0.00000  Uiso   1.00
C816   C     0.25932   0.89807   0.94827   0.00000  Uiso   1.00
C817   C     0.21426   0.88501   0.91845   0.00000  Uiso   1.00
C818   C     0.17591   0.82925   0.56760   0.00000  Uiso   1.00
C819   C     0.28050   0.87487   0.57679   0.00000  Uiso   1.00
C820   C     0.11265   0.83143   0.90332   0.00000  Uiso   1.00
C821   C     0.18675   0.98877   0.76150   0.00000  Uiso   1.00
C822   C     0.13321   0.83271   0.84724   0.00000  Uiso   1.00
C823   C     0.14424   0.67751   0.74797   0.00000  Uiso   1.00
C824   C     0.15154   0.73332   0.74915   0.00000  Uiso   1.00
C825   C     0.20057   0.83691   0.65294   0.00000  Uiso   1.00
C826   C     0.29352   0.89123   0.52652   0.00000  Uiso   1.00
C827   C     0.22092   0.84510   0.59786   0.00000  Uiso   1.00
C828   C     0.05109   0.80503   0.92423   0.00000  Uiso   1.00
C829   C     0.03317   0.79430   0.97592   0.00000  Uiso   1.00
C830   C     0.07683   0.80789   0.50721   0.00000  Uiso   1.00
Cu831  Cu    0.10710   0.82772   0.74435   0.00000  Uiso   1.00
Cu832  Cu    0.22623   0.83895   0.75564   0.00000  Uiso   1.00
H833   H     0.31583   0.88745   0.59975   0.00000  Uiso   1.00
H834   H     0.10361   0.98743   0.73460   0.00000  Uiso   1.00
H835   H     0.00363   0.87250   0.78967   0.00000  Uiso   1.00
H836   H     0.32963   0.79407   0.71044   0.00000  Uiso   1.00
H837   H     0.30412   0.92385   0.93294   0.00000  Uiso   1.00
H838   H     0.00619   0.91512   0.51097   0.00000  Uiso   1.00
H839   H     0.13211   0.80378   0.58461   0.00000  Uiso   1.00
H840   H     0.01717   0.79117   0.90025   0.00000  Uiso   1.00
H841   H     0.05932   0.79787   0.54678   0.00000  Uiso   1.00
H842   H     0.31872   0.77406   0.99170   0.00000  Uiso   1.00
H843   H     0.22573   0.90356   0.88191   0.00000  Uiso   1.00
N844   N     0.31574   0.84741   0.76416   0.00000  Uiso   1.00
N845   N     0.01759   0.81926   0.73584   0.00000  Uiso   1.00
O846   O     0.12797   0.90474   0.74633   0.00000  Uiso   1.00
O847   O     0.22858   0.91422   0.75586   0.00000  Uiso   1.00
O848   O     0.09181   0.82627   0.81839   0.00000  Uiso   1.00
O849   O     0.19242   0.83575   0.82793   0.00000  Uiso   1.00
O850   O     0.10476   0.75245   0.74413   0.00000  Uiso   1.00
O851   O     0.20536   0.76193   0.75367   0.00000  Uiso   1.00
O852   O     0.14092   0.83092   0.67207   0.00000  Uiso   1.00
O853   O     0.24152   0.84040   0.68160   0.00000  Uiso   1.00
O854   O     0.23796   0.68486   0.77997   0.00000  Uiso   1.00
C855   C     0.23199   0.67420   0.83216   0.00000  Uiso   1.00
H856   H     0.27626   0.99699   0.83634   0.00000  Uiso   1.00
H857   H     0.19237   0.97421   0.84731   0.00000  Uiso   1.00
C858   C     0.22333   0.72345   0.86484   0.00000  Uiso   1.00
H859   H     0.26294   0.75682   0.85078   0.00000  Uiso   1.00
H860   H     0.17860   0.73364   0.86142   0.00000  Uiso   1.00
C861   C     0.22091   0.71494   0.92102   0.00000  Uiso   1.00
H862   H     0.17981   0.68329   0.93641   0.00000  Uiso   1.00
H863   H     0.21620   0.75176   0.94340   0.00000  Uiso   1.00
H864   H     0.26479   0.70397   0.92549   0.00000  Uiso   1.00
C865   C     0.51412   0.93317   0.75385   0.00000  Uiso   1.00
C866   C     0.47293   0.83474   0.98763   0.00000  Uiso   1.00
C867   C     0.48909   0.85042   0.93596   0.00000  Uiso   1.00
C868   C     0.52003   0.84707   0.51767   0.00000  Uiso   1.00
C869   C     0.58020   0.87848   0.99721   0.00000  Uiso   1.00
C870   C     0.59265   0.89807   0.94827   0.00000  Uiso   1.00
C871   C     0.54760   0.88501   0.91845   0.00000  Uiso   1.00
C872   C     0.50925   0.82925   0.56760   0.00000  Uiso   1.00
C873   C     0.61383   0.87487   0.57679   0.00000  Uiso   1.00
C874   C     0.44598   0.83143   0.90332   0.00000  Uiso   1.00
C875   C     0.52008   0.98877   0.76150   0.00000  Uiso   1.00
C876   C     0.46655   0.83271   0.84724   0.00000  Uiso   1.00
C877   C     0.47757   0.67751   0.74797   0.00000  Uiso   1.00
C878   C     0.48488   0.73332   0.74915   0.00000  Uiso   1.00
C879   C     0.53390   0.83691   0.65294   0.00000  Uiso   1.00
C880   C     0.62685   0.89123   0.52652   0.00000  Uiso   1.00
C881   C     0.55426   0.84510   0.59786   0.00000  Uiso   1.00
C882   C     0.38442   0.80503   0.92423   0.00000  Uiso   1.00
C883   C     0.36650   0.79430   0.97592   0.00000  Uiso   1.00
C884   C     0.41017   0.80789   0.50721   0.00000  Uiso   1.00
Cu885  Cu    0.44043   0.82772   0.74435   0.00000  Uiso   1.00
Cu886  Cu    0.55957   0.83895   0.75564   0.00000  Uiso   1.00
H887   H     0.64916   0.88745   0.59975   0.00000  Uiso   1.00
H888   H     0.43694   0.98743   0.73460   0.00000  Uiso   1.00
H889   H     0.33696   0.87250   0.78967   0.00000  Uiso   1.00
H890   H     0.66296   0.79407   0.71044   0.00000  Uiso   1.00
H891   H     0.63746   0.92385   0.93294   0.00000  Uiso   1.00
H892   H     0.33953   0.91512   0.51097   0.00000  Uiso   1.00
H893   H     0.46544   0.80378   0.58461   0.00000  Uiso   1.00
H894   H     0.35051   0.79117   0.90025   0.00000  Uiso   1.00
H895   H     0.39266   0.79787   0.54678   0.00000  Uiso   1.00
H896   H     0.65205   0.77406   0.99170   0.00000  Uiso   1.00
H897   H     0.55906   0.90356   0.88191   0.00000  Uiso   1.00
N898   N     0.64908   0.84741   0.76416   0.00000  Uiso   1.00
N899   N     0.35092   0.81926   0.73584   0.00000  Uiso   1.00
O900   O     0.46131   0.90474   0.74633   0.00000  Uiso   1.00
O901   O     0.56191   0.91422   0.75586   0.00000  Uiso   1.00
O902   O     0.42515   0.82627   0.81839   0.00000  Uiso   1.00
O903   O     0.52575   0.83575   0.82793   0.00000  Uiso   1.00
O904   O     0.43809   0.75245   0.74413   0.00000  Uiso   1.00
O905   O     0.53869   0.76193   0.75367   0.00000  Uiso   1.00
O906   O     0.47425   0.83092   0.67207   0.00000  Uiso   1.00
O907   O     0.57485   0.84040   0.68160   0.00000  Uiso   1.00
O908   O     0.57129   0.68486   0.77997   0.00000  Uiso   1.00
C909   C     0.56533   0.67420   0.83216   0.00000  Uiso   1.00
H910   H     0.60959   0.99699   0.83634   0.00000  Uiso   1.00
H911   H     0.52571   0.97421   0.84731   0.00000  Uiso   1.00
C912   C     0.55666   0.72345   0.86484   0.00000  Uiso   1.00
H913   H     0.59628   0.75682   0.85078   0.00000  Uiso   1.00
H914   H     0.51194   0.73364   0.86142   0.00000  Uiso   1.00
C915   C     0.55424   0.71494   0.92102   0.00000  Uiso   1.00
H916   H     0.51314   0.68329   0.93641   0.00000  Uiso   1.00
H917   H     0.54954   0.75176   0.94340   0.00000  Uiso   1.00
H918   H     0.59812   0.70397   0.92549   0.00000  Uiso   1.00
C919   C     0.84745   0.93317   0.75385   0.00000  Uiso   1.00
C920   C     0.80626   0.83474   0.98763   0.00000  Uiso   1.00
C921   C     0.82243   0.85042   0.93596   0.00000  Uiso   1.00
C922   C     0.85336   0.84707   0.51767   0.00000  Uiso   1.00
C923   C     0.91353   0.87848   0.99721   0.00000  Uiso   1.00
C924   C     0.92598   0.89807   0.94827   0.00000  Uiso   1.00
C925   C     0.88093   0.88501   0.91845   0.00000  Uiso   1.00
C926   C     0.84258   0.82925   0.56760   0.00000  Uiso   1.00
C927   C     0.94717   0.87487   0.57679   0.00000  Uiso   1.00
C928   C     0.77931   0.83143   0.90332   0.00000  Uiso   1.00
C929   C     0.85341   0.98877   0.76150   0.00000  Uiso   1.00
C930   C     0.79988   0.83271   0.84724   0.00000  Uiso   1.00
C931   C     0.81090   0.67751   0.74797   0.00000  Uiso   1.00
C932   C     0.81821   0.73332   0.74915   0.00000  Uiso   1.00
C933   C     0.86723   0.83691   0.65294   0.00000  Uiso   1.00
C934   C     0.96019   0.89123   0.52652   0.00000  Uiso   1.00
C935   C     0.88759   0.84510   0.59786   0.00000  Uiso   1.00
C936   C     0.71776   0.80503   0.92423   0.00000  Uiso   1.00
C937   C     0.69983   0.79430   0.97592   0.00000  Uiso   1.00
C938   C     0.74350   0.80789   0.50721   0.00000  Uiso   1.00
Cu939  Cu    0.77377   0.82772   0.74435   0.00000  Uiso   1.00
Cu940  Cu    0.89290   0.83895   0.75564   0.00000  Uiso   1.00
H941   H     0.98250   0.88745   0.59975   0.00000  Uiso   1.00
H942   H     0.77027   0.98743   0.73460   0.00000  Uiso   1.00
H943   H     0.67029   0.87250   0.78967   0.00000  Uiso   1.00
H944   H     0.99630   0.79407   0.71044   0.00000  Uiso   1.00
H945   H     0.97079   0.92385   0.93294   0.00000  Uiso   1.00
H946   H     0.67286   0.91512   0.51097   0.00000  Uiso   1.00
H947   H     0.79877   0.80378   0.58461   0.00000  Uiso   1.00
H948   H     0.68384   0.79117   0.90025   0.00000  Uiso   1.00
H949   H     0.72599   0.79787   0.54678   0.00000  Uiso   1.00
H950   H     0.98538   0.77406   0.99170   0.00000  Uiso   1.00
H951   H     0.89240   0.90356   0.88191   0.00000  Uiso   1.00
N952   N     0.98241   0.84741   0.76416   0.00000  Uiso   1.00
N953   N     0.68426   0.81926   0.73584   0.00000  Uiso   1.00
O954   O     0.79464   0.90474   0.74633   0.00000  Uiso   1.00
O955   O     0.89524   0.91422   0.75586   0.00000  Uiso   1.00
O956   O     0.75848   0.82627   0.81839   0.00000  Uiso   1.00
O957   O     0.85908   0.83575   0.82793   0.00000  Uiso   1.00
O958   O     0.77142   0.75245   0.74413   0.00000  Uiso   1.00
O959   O     0.87203   0.76193   0.75367   0.00000  Uiso   1.00
O960   O     0.80758   0.83092   0.67207   0.00000  Uiso   1.00
O961   O     0.90819   0.84040   0.68160   0.00000  Uiso   1.00
O962   O     0.90463   0.68486   0.77997   0.00000  Uiso   1.00
C963   C     0.89866   0.67420   0.83216   0.00000  Uiso   1.00
H964   H     0.94293   0.99699   0.83634   0.00000  Uiso   1.00
H965   H     0.85904   0.97421   0.84731   0.00000  Uiso   1.00
C966   C     0.88999   0.72345   0.86484   0.00000  Uiso   1.00
H967   H     0.92961   0.75682   0.85078   0.00000  Uiso   1.00
H968   H     0.84527   0.73364   0.86142   0.00000  Uiso   1.00
C969   C     0.88757   0.71494   0.92102   0.00000  Uiso   1.00
H970   H     0.84648   0.68329   0.93641   0.00000  Uiso   1.00
H971   H     0.88287   0.75176   0.94340   0.00000  Uiso   1.00
H972   H     0.93146   0.70397   0.92549   0.00000  Uiso   1.00
loop_
_geom_bond_atom_site_label_1
_geom_bond_atom_site_label_2
_geom_bond_distance
_geom_bond_site_symmetry_2
_ccdc_geom_bond_type
C1     C11     1.433   .     S
C1     O37     1.283   .     A
C1     O36     1.290   .     A
C2     C3      1.419   .     A
C2     C490    1.426   .     S
C2     C506    1.418   .     S
C3     C7      1.413   .     A
C3     C10     1.423   .     A
C4     C8      1.402   .     A
C4     C488    1.426   1_554 S
C4     C491    1.420   1_554 S
C5     C6      1.391   .     A
C5     C490    1.420   .     S
C5     C502    1.405   .     S
C6     C7      1.386   .     A
C6     H27     1.084   .     S
C7     H33     1.079   .     S
C8     C17     1.399   .     A
C8     H29     1.076   .     S
C9     C17     1.398   .     A
C9     C16     1.393   .     A
C9     H23     1.083   .     S
C10    C12     1.474   .     S
C10    C18     1.401   .     A
C11    C175    1.337   .     S
C11    O206    1.391   .     S
C12    O39     1.293   .     A
C12    O38     1.304   .     A
C13    C14     1.429   .     S
C13    C335    1.337   1_545 S
C13    H348    1.088   1_545 S
C14    O41     1.287   .     A
C14    O40     1.288   .     A
C15    O42     1.293   .     A
C15    O43     1.300   .     A
C15    C17     1.464   .     S
C16    C491    1.405   1_554 S
C16    H82     1.084   .     S
C18    H30     1.082   .     S
C18    C19     1.387   .     A
C19    C506    1.391   .     S
C19    H140    1.083   1_455 S
C20    H31     1.077   .     S
C20    C488    1.418   1_554 S
C20    C505    1.391   1_554 S
Cu21   O36     1.960   .     S
Cu21   O40     1.955   .     S
Cu21   N35     2.017   .     S
Cu21   O42     1.921   .     S
Cu21   Cu22    2.684   .     S
Cu21   O38     1.942   .     S
Cu22   N34     2.017   .     S
Cu22   O41     1.960   .     S
Cu22   O37     1.955   .     S
Cu22   O39     1.921   .     S
Cu22   O43     1.942   .     S
H24    C175    1.088   .     S
H25    N142    1.029   1_455 S
H26    N89     1.029   .     S
H28    C124    1.084   1_455 S
H32    C73     1.083   .     S
N34    H79     1.029   .     S
N34    N89     1.285   .     S
N35    N142    1.285   1_455 S
N35    H134    1.029   1_455 S
O44    C45     1.419   .     S
O44    C335    1.391   1_545 S
C45    C48     1.529   .     S
C45    H370    1.111   1_545 S
C45    H371    1.118   1_545 S
H46    C207    1.111   .     S
H47    C207    1.118   .     S
C48    H50     1.111   .     S
C48    H49     1.112   .     S
C48    C51     1.526   .     S
C51    H54     1.111   .     S
C51    H52     1.111   .     S
C51    H53     1.110   .     S
C55    C65     1.433   .     S
C55    O91     1.283   .     A
C55    O90     1.290   .     A
C56    C57     1.419   .     A
C56    C544    1.426   .     S
C56    C560    1.418   .     S
C57    C61     1.413   .     A
C57    C64     1.423   .     A
C58    C62     1.402   .     A
C58    C542    1.426   1_554 S
C58    C545    1.420   1_554 S
C59    C60     1.391   .     A
C59    C544    1.420   .     S
C59    C556    1.405   .     S
C60    C61     1.386   .     A
C60    H81     1.084   .     S
C61    H87     1.079   .     S
C62    C71     1.399   .     A
C62    H83     1.076   .     S
C63    C71     1.398   .     A
C63    C70     1.393   .     A
C63    H77     1.083   .     S
C64    C66     1.474   .     S
C64    C72     1.401   .     A
C65    C229    1.337   .     S
C65    O260    1.391   .     S
C66    O93     1.293   .     A
C66    O92     1.304   .     A
C67    C68     1.429   .     S
C67    C389    1.337   1_545 S
C67    H402    1.088   1_545 S
C68    O95     1.287   .     A
C68    O94     1.288   .     A
C69    O96     1.293   .     A
C69    O97     1.300   .     A
C69    C71     1.464   .     S
C70    C545    1.405   1_554 S
C70    H136    1.084   .     S
C72    H84     1.082   .     S
C72    C73     1.387   .     A
C73    C560    1.391   .     S
C74    H85     1.077   .     S
C74    C542    1.418   1_554 S
C74    C559    1.391   1_554 S
Cu75   O90     1.960   .     S
Cu75   O94     1.955   .     S
Cu75   N89     2.017   .     S
Cu75   O96     1.921   .     S
Cu75   Cu76    2.684   .     S
Cu75   O92     1.942   .     S
Cu76   N88     2.017   .     S
Cu76   O95     1.960   .     S
Cu76   O91     1.955   .     S
Cu76   O93     1.921   .     S
Cu76   O97     1.942   .     S
H78    C229    1.088   .     S
H80    N143    1.029   .     S
H86    C127    1.083   .     S
N88    H133    1.029   .     S
N88    N143    1.285   .     S
O98    C99     1.419   .     S
O98    C389    1.391   1_545 S
C99    C102    1.529   .     S
C99    H424    1.111   1_545 S
C99    H425    1.118   1_545 S
H100   C261    1.111   .     S
H101   C261    1.118   .     S
C102   H104    1.111   .     S
C102   H103    1.112   .     S
C102   C105    1.526   .     S
C105   H108    1.111   .     S
C105   H106    1.111   .     S
C105   H107    1.110   .     S
C109   C119    1.433   .     S
C109   O145    1.283   .     A
C109   O144    1.290   .     A
C110   C111    1.419   .     A
C110   C598    1.426   .     S
C110   C614    1.418   .     S
C111   C115    1.413   .     A
C111   C118    1.423   .     A
C112   C116    1.402   .     A
C112   C596    1.426   1_554 S
C112   C599    1.420   1_554 S
C113   C114    1.391   .     A
C113   C598    1.420   .     S
C113   C610    1.405   .     S
C114   C115    1.386   .     A
C114   H135    1.084   .     S
C115   H141    1.079   .     S
C116   C125    1.399   .     A
C116   H137    1.076   .     S
C117   C125    1.398   .     A
C117   C124    1.393   .     A
C117   H131    1.083   .     S
C118   C120    1.474   .     S
C118   C126    1.401   .     A
C119   C283    1.337   .     S
C119   O314    1.391   .     S
C120   O147    1.293   .     A
C120   O146    1.304   .     A
C121   C122    1.429   .     S
C121   C443    1.337   1_545 S
C121   H456    1.088   1_545 S
C122   O149    1.287   .     A
C122   O148    1.288   .     A
C123   O150    1.293   .     A
C123   O151    1.300   .     A
C123   C125    1.464   .     S
C124   C599    1.405   1_554 S
C124   H28     1.084   1_655 S
C126   H138    1.082   .     S
C126   C127    1.387   .     A
C127   C614    1.391   .     S
C128   H139    1.077   .     S
C128   C596    1.418   1_554 S
C128   C613    1.391   1_554 S
Cu129  O144    1.960   .     S
Cu129  O148    1.955   .     S
Cu129  N143    2.017   .     S
Cu129  O150    1.921   .     S
Cu129  Cu130   2.684   .     S
Cu129  O146    1.942   .     S
Cu130  N142    2.017   .     S
Cu130  O149    1.960   .     S
Cu130  O145    1.955   .     S
Cu130  O147    1.921   .     S
Cu130  O151    1.942   .     S
H132   C283    1.088   .     S
H134   N35     1.029   1_655 S
H140   C19     1.083   1_655 S
N142   H25     1.029   1_655 S
N142   N35     1.285   1_655 S
O152   C153    1.419   .     S
O152   C443    1.391   1_545 S
C153   C156    1.529   .     S
C153   H478    1.111   1_545 S
C153   H479    1.118   1_545 S
H154   C315    1.111   .     S
H155   C315    1.118   .     S
C156   H158    1.111   .     S
C156   H157    1.112   .     S
C156   C159    1.526   .     S
C159   H162    1.111   .     S
C159   H160    1.111   .     S
C159   H161    1.110   .     S
C163   C173    1.433   .     S
C163   O199    1.283   .     A
C163   O198    1.290   .     A
C164   C165    1.419   .     A
C164   C652    1.426   .     S
C164   C668    1.418   .     S
C165   C169    1.413   .     A
C165   C172    1.423   .     A
C166   C170    1.402   .     A
C166   C650    1.426   1_554 S
C166   C653    1.420   1_554 S
C167   C168    1.391   .     A
C167   C652    1.420   .     S
C167   C664    1.405   .     S
C168   C169    1.386   .     A
C168   H189    1.084   .     S
C169   H195    1.079   .     S
C170   C179    1.399   .     A
C170   H191    1.076   .     S
C171   C179    1.398   .     A
C171   C178    1.393   .     A
C171   H185    1.083   .     S
C172   C174    1.474   .     S
C172   C180    1.401   .     A
C173   C337    1.337   .     S
C173   O368    1.391   .     S
C174   O201    1.293   .     A
C174   O200    1.304   .     A
C175   C176    1.429   .     S
C176   O203    1.287   .     A
C176   O202    1.288   .     A
C177   O204    1.293   .     A
C177   O205    1.300   .     A
C177   C179    1.464   .     S
C178   C653    1.405   1_554 S
C178   H244    1.084   .     S
C180   H192    1.082   .     S
C180   C181    1.387   .     A
C181   C668    1.391   .     S
C181   H302    1.083   1_455 S
C182   H193    1.077   .     S
C182   C650    1.418   1_554 S
C182   C667    1.391   1_554 S
Cu183  O198    1.960   .     S
Cu183  O202    1.955   .     S
Cu183  N197    2.017   .     S
Cu183  O204    1.921   .     S
Cu183  Cu184   2.684   .     S
Cu183  O200    1.942   .     S
Cu184  N196    2.017   .     S
Cu184  O203    1.960   .     S
Cu184  O199    1.955   .     S
Cu184  O201    1.921   .     S
Cu184  O205    1.942   .     S
H186   C337    1.088   .     S
H187   N304    1.029   1_455 S
H188   N251    1.029   .     S
H190   C286    1.084   1_455 S
H194   C235    1.083   .     S
N196   H241    1.029   .     S
N196   N251    1.285   .     S
N197   N304    1.285   1_455 S
N197   H296    1.029   1_455 S
O206   C207    1.419   .     S
C207   C210    1.529   .     S
H208   C369    1.111   .     S
H209   C369    1.118   .     S
C210   H212    1.111   .     S
C210   H211    1.112   .     S
C210   C213    1.526   .     S
C213   H216    1.111   .     S
C213   H214    1.111   .     S
C213   H215    1.110   .     S
C217   C227    1.433   .     S
C217   O253    1.283   .     A
C217   O252    1.290   .     A
C218   C219    1.419   .     A
C218   C706    1.426   .     S
C218   C722    1.418   .     S
C219   C223    1.413   .     A
C219   C226    1.423   .     A
C220   C224    1.402   .     A
C220   C704    1.426   1_554 S
C220   C707    1.420   1_554 S
C221   C222    1.391   .     A
C221   C706    1.420   .     S
C221   C718    1.405   .     S
C222   C223    1.386   .     A
C222   H243    1.084   .     S
C223   H249    1.079   .     S
C224   C233    1.399   .     A
C224   H245    1.076   .     S
C225   C233    1.398   .     A
C225   C232    1.393   .     A
C225   H239    1.083   .     S
C226   C228    1.474   .     S
C226   C234    1.401   .     A
C227   C391    1.337   .     S
C227   O422    1.391   .     S
C228   O255    1.293   .     A
C228   O254    1.304   .     A
C229   C230    1.429   .     S
C230   O257    1.287   .     A
C230   O256    1.288   .     A
C231   O258    1.293   .     A
C231   O259    1.300   .     A
C231   C233    1.464   .     S
C232   C707    1.405   1_554 S
C232   H298    1.084   .     S
C234   H246    1.082   .     S
C234   C235    1.387   .     A
C235   C722    1.391   .     S
C236   H247    1.077   .     S
C236   C704    1.418   1_554 S
C236   C721    1.391   1_554 S
Cu237  O252    1.960   .     S
Cu237  O256    1.955   .     S
Cu237  N251    2.017   .     S
Cu237  O258    1.921   .     S
Cu237  Cu238   2.684   .     S
Cu237  O254    1.942   .     S
Cu238  N250    2.017   .     S
Cu238  O257    1.960   .     S
Cu238  O253    1.955   .     S
Cu238  O255    1.921   .     S
Cu238  O259    1.942   .     S
H240   C391    1.088   .     S
H242   N305    1.029   .     S
H248   C289    1.083   .     S
N250   H295    1.029   .     S
N250   N305    1.285   .     S
O260   C261    1.419   .     S
C261   C264    1.529   .     S
H262   C423    1.111   .     S
H263   C423    1.118   .     S
C264   H266    1.111   .     S
C264   H265    1.112   .     S
C264   C267    1.526   .     S
C267   H270    1.111   .     S
C267   H268    1.111   .     S
C267   H269    1.110   .     S
C271   C281    1.433   .     S
C271   O307    1.283   .     A
C271   O306    1.290   .     A
C272   C273    1.419   .     A
C272   C760    1.426   .     S
C272   C776    1.418   .     S
C273   C277    1.413   .     A
C273   C280    1.423   .     A
C274   C278    1.402   .     A
C274   C758    1.426   1_554 S
C274   C761    1.420   1_554 S
C275   C276    1.391   .     A
C275   C760    1.420   .     S
C275   C772    1.405   .     S
C276   C277    1.386   .     A
C276   H297    1.084   .     S
C277   H303    1.079   .     S
C278   C287    1.399   .     A
C278   H299    1.076   .     S
C279   C287    1.398   .     A
C279   C286    1.393   .     A
C279   H293    1.083   .     S
C280   C282    1.474   .     S
C280   C288    1.401   .     A
C281   C445    1.337   .     S
C281   O476    1.391   .     S
C282   O309    1.293   .     A
C282   O308    1.304   .     A
C283   C284    1.429   .     S
C284   O311    1.287   .     A
C284   O310    1.288   .     A
C285   O312    1.293   .     A
C285   O313    1.300   .     A
C285   C287    1.464   .     S
C286   C761    1.405   1_554 S
C286   H190    1.084   1_655 S
C288   H300    1.082   .     S
C288   C289    1.387   .     A
C289   C776    1.391   .     S
C290   H301    1.077   .     S
C290   C758    1.418   1_554 S
C290   C775    1.391   1_554 S
Cu291  O306    1.960   .     S
Cu291  O310    1.955   .     S
Cu291  N305    2.017   .     S
Cu291  O312    1.921   .     S
Cu291  Cu292   2.684   .     S
Cu291  O308    1.942   .     S
Cu292  N304    2.017   .     S
Cu292  O311    1.960   .     S
Cu292  O307    1.955   .     S
Cu292  O309    1.921   .     S
Cu292  O313    1.942   .     S
H294   C445    1.088   .     S
H296   N197    1.029   1_655 S
H302   C181    1.083   1_655 S
N304   H187    1.029   1_655 S
N304   N197    1.285   1_655 S
O314   C315    1.419   .     S
C315   C318    1.529   .     S
H316   C477    1.111   .     S
H317   C477    1.118   .     S
C318   H320    1.111   .     S
C318   H319    1.112   .     S
C318   C321    1.526   .     S
C321   H324    1.111   .     S
C321   H322    1.111   .     S
C321   H323    1.110   .     S
C325   C335    1.433   .     S
C325   O361    1.283   .     A
C325   O360    1.290   .     A
C326   C327    1.419   .     A
C326   C814    1.426   .     S
C326   C830    1.418   .     S
C327   C331    1.413   .     A
C327   C334    1.423   .     A
C328   C332    1.402   .     A
C328   C812    1.426   1_554 S
C328   C815    1.420   1_554 S
C329   C330    1.391   .     A
C329   C814    1.420   .     S
C329   C826    1.405   .     S
C330   C331    1.386   .     A
C330   H351    1.084   .     S
C331   H357    1.079   .     S
C332   C341    1.399   .     A
C332   H353    1.076   .     S
C333   C341    1.398   .     A
C333   C340    1.393   .     A
C333   H347    1.083   .     S
C334   C336    1.474   .     S
C334   C342    1.401   .     A
C335   C13     1.337   1_565 S
C335   O44     1.391   1_565 S
C336   O363    1.293   .     A
C336   O362    1.304   .     A
C337   C338    1.429   .     S
C338   O365    1.287   .     A
C338   O364    1.288   .     A
C339   O366    1.293   .     A
C339   O367    1.300   .     A
C339   C341    1.464   .     S
C340   C815    1.405   1_554 S
C340   H406    1.084   .     S
C342   H354    1.082   .     S
C342   C343    1.387   .     A
C343   C830    1.391   .     S
C343   H464    1.083   1_455 S
C344   H355    1.077   .     S
C344   C812    1.418   1_554 S
C344   C829    1.391   1_554 S
Cu345  O360    1.960   .     S
Cu345  O364    1.955   .     S
Cu345  N359    2.017   .     S
Cu345  O366    1.921   .     S
Cu345  Cu346   2.684   .     S
Cu345  O362    1.942   .     S
Cu346  N358    2.017   .     S
Cu346  O365    1.960   .     S
Cu346  O361    1.955   .     S
Cu346  O363    1.921   .     S
Cu346  O367    1.942   .     S
H348   C13     1.088   1_565 S
H349   N466    1.029   1_455 S
H350   N413    1.029   .     S
H352   C448    1.084   1_455 S
H356   C397    1.083   .     S
N358   H403    1.029   .     S
N358   N413    1.285   .     S
N359   N466    1.285   1_455 S
N359   H458    1.029   1_455 S
O368   C369    1.419   .     S
C369   C372    1.529   .     S
H370   C45     1.111   1_565 S
H371   C45     1.118   1_565 S
C372   H374    1.111   .     S
C372   H373    1.112   .     S
C372   C375    1.526   .     S
C375   H378    1.111   .     S
C375   H376    1.111   .     S
C375   H377    1.110   .     S
C379   C389    1.433   .     S
C379   O415    1.283   .     A
C379   O414    1.290   .     A
C380   C381    1.419   .     A
C380   C868    1.426   .     S
C380   C884    1.418   .     S
C381   C385    1.413   .     A
C381   C388    1.423   .     A
C382   C386    1.402   .     A
C382   C866    1.426   1_554 S
C382   C869    1.420   1_554 S
C383   C384    1.391   .     A
C383   C868    1.420   .     S
C383   C880    1.405   .     S
C384   C385    1.386   .     A
C384   H405    1.084   .     S
C385   H411    1.079   .     S
C386   C395    1.399   .     A
C386   H407    1.076   .     S
C387   C395    1.398   .     A
C387   C394    1.393   .     A
C387   H401    1.083   .     S
C388   C390    1.474   .     S
C388   C396    1.401   .     A
C389   C67     1.337   1_565 S
C389   O98     1.391   1_565 S
C390   O417    1.293   .     A
C390   O416    1.304   .     A
C391   C392    1.429   .     S
C392   O419    1.287   .     A
C392   O418    1.288   .     A
C393   O420    1.293   .     A
C393   O421    1.300   .     A
C393   C395    1.464   .     S
C394   C869    1.405   1_554 S
C394   H460    1.084   .     S
C396   H408    1.082   .     S
C396   C397    1.387   .     A
C397   C884    1.391   .     S
C398   H409    1.077   .     S
C398   C866    1.418   1_554 S
C398   C883    1.391   1_554 S
Cu399  O414    1.960   .     S
Cu399  O418    1.955   .     S
Cu399  N413    2.017   .     S
Cu399  O420    1.921   .     S
Cu399  Cu400   2.684   .     S
Cu399  O416    1.942   .     S
Cu400  N412    2.017   .     S
Cu400  O419    1.960   .     S
Cu400  O415    1.955   .     S
Cu400  O417    1.921   .     S
Cu400  O421    1.942   .     S
H402   C67     1.088   1_565 S
H404   N467    1.029   .     S
H410   C451    1.083   .     S
N412   H457    1.029   .     S
N412   N467    1.285   .     S
O422   C423    1.419   .     S
C423   C426    1.529   .     S
H424   C99     1.111   1_565 S
H425   C99     1.118   1_565 S
C426   H428    1.111   .     S
C426   H427    1.112   .     S
C426   C429    1.526   .     S
C429   H432    1.111   .     S
C429   H430    1.111   .     S
C429   H431    1.110   .     S
C433   C443    1.433   .     S
C433   O469    1.283   .     A
C433   O468    1.290   .     A
C434   C435    1.419   .     A
C434   C922    1.426   .     S
C434   C938    1.418   .     S
C435   C439    1.413   .     A
C435   C442    1.423   .     A
C436   C440    1.402   .     A
C436   C920    1.426   1_554 S
C436   C923    1.420   1_554 S
C437   C438    1.391   .     A
C437   C922    1.420   .     S
C437   C934    1.405   .     S
C438   C439    1.386   .     A
C438   H459    1.084   .     S
C439   H465    1.079   .     S
C440   C449    1.399   .     A
C440   H461    1.076   .     S
C441   C449    1.398   .     A
C441   C448    1.393   .     A
C441   H455    1.083   .     S
C442   C444    1.474   .     S
C442   C450    1.401   .     A
C443   C121    1.337   1_565 S
C443   O152    1.391   1_565 S
C444   O471    1.293   .     A
C444   O470    1.304   .     A
C445   C446    1.429   .     S
C446   O473    1.287   .     A
C446   O472    1.288   .     A
C447   O474    1.293   .     A
C447   O475    1.300   .     A
C447   C449    1.464   .     S
C448   C923    1.405   1_554 S
C448   H352    1.084   1_655 S
C450   H462    1.082   .     S
C450   C451    1.387   .     A
C451   C938    1.391   .     S
C452   H463    1.077   .     S
C452   C920    1.418   1_554 S
C452   C937    1.391   1_554 S
Cu453  O468    1.960   .     S
Cu453  O472    1.955   .     S
Cu453  N467    2.017   .     S
Cu453  O474    1.921   .     S
Cu453  Cu454   2.684   .     S
Cu453  O470    1.942   .     S
Cu454  N466    2.017   .     S
Cu454  O473    1.960   .     S
Cu454  O469    1.955   .     S
Cu454  O471    1.921   .     S
Cu454  O475    1.942   .     S
H456   C121    1.088   1_565 S
H458   N359    1.029   1_655 S
H464   C343    1.083   1_655 S
N466   H349    1.029   1_655 S
N466   N359    1.285   1_655 S
O476   C477    1.419   .     S
C477   C480    1.529   .     S
H478   C153    1.111   1_565 S
H479   C153    1.118   1_565 S
C480   H482    1.111   .     S
C480   H481    1.112   .     S
C480   C483    1.526   .     S
C483   H486    1.111   .     S
C483   H484    1.111   .     S
C483   H485    1.110   .     S
C487   C497    1.433   .     S
C487   O523    1.283   .     A
C487   O522    1.290   .     A
C488   C489    1.419   .     A
C488   C4      1.426   1_556 S
C488   C20     1.418   1_556 S
C489   C493    1.413   .     A
C489   C496    1.423   .     A
C490   C494    1.402   .     A
C491   C492    1.391   .     A
C491   C4      1.420   1_556 S
C491   C16     1.405   1_556 S
C492   C493    1.386   .     A
C492   H513    1.084   .     S
C493   H519    1.079   .     S
C494   C503    1.399   .     A
C494   H515    1.076   .     S
C495   C503    1.398   .     A
C495   C502    1.393   .     A
C495   H509    1.083   .     S
C496   C498    1.474   .     S
C496   C504    1.401   .     A
C497   C661    1.337   .     S
C497   O692    1.391   .     S
C498   O525    1.293   .     A
C498   O524    1.304   .     A
C499   C500    1.429   .     S
C499   C821    1.337   1_545 S
C499   H834    1.088   1_545 S
C500   O527    1.287   .     A
C500   O526    1.288   .     A
C501   O528    1.293   .     A
C501   O529    1.300   .     A
C501   C503    1.464   .     S
C502   H568    1.084   .     S
C504   H516    1.082   .     S
C504   C505    1.387   .     A
C505   C20     1.391   1_556 S
C505   H626    1.083   1_455 S
C506   H517    1.077   .     S
Cu507  O522    1.960   .     S
Cu507  O526    1.955   .     S
Cu507  N521    2.017   .     S
Cu507  O528    1.921   .     S
Cu507  Cu508   2.684   .     S
Cu507  O524    1.942   .     S
Cu508  N520    2.017   .     S
Cu508  O527    1.960   .     S
Cu508  O523    1.955   .     S
Cu508  O525    1.921   .     S
Cu508  O529    1.942   .     S
H510   C661    1.088   .     S
H511   N628    1.029   1_455 S
H512   N575    1.029   .     S
H514   C610    1.084   1_455 S
H518   C559    1.083   .     S
N520   H565    1.029   .     S
N520   N575    1.285   .     S
N521   N628    1.285   1_455 S
N521   H620    1.029   1_455 S
O530   C531    1.419   .     S
O530   C821    1.391   1_545 S
C531   C534    1.529   .     S
C531   H856    1.111   1_545 S
C531   H857    1.118   1_545 S
H532   C693    1.111   .     S
H533   C693    1.118   .     S
C534   H536    1.111   .     S
C534   H535    1.112   .     S
C534   C537    1.526   .     S
C537   H540    1.111   .     S
C537   H538    1.111   .     S
C537   H539    1.110   .     S
C541   C551    1.433   .     S
C541   O577    1.283   .     A
C541   O576    1.290   .     A
C542   C543    1.419   .     A
C542   C58     1.426   1_556 S
C542   C74     1.418   1_556 S
C543   C547    1.413   .     A
C543   C550    1.423   .     A
C544   C548    1.402   .     A
C545   C546    1.391   .     A
C545   C58     1.420   1_556 S
C545   C70     1.405   1_556 S
C546   C547    1.386   .     A
C546   H567    1.084   .     S
C547   H573    1.079   .     S
C548   C557    1.399   .     A
C548   H569    1.076   .     S
C549   C557    1.398   .     A
C549   C556    1.393   .     A
C549   H563    1.083   .     S
C550   C552    1.474   .     S
C550   C558    1.401   .     A
C551   C715    1.337   .     S
C551   O746    1.391   .     S
C552   O579    1.293   .     A
C552   O578    1.304   .     A
C553   C554    1.429   .     S
C553   C875    1.337   1_545 S
C553   H888    1.088   1_545 S
C554   O581    1.287   .     A
C554   O580    1.288   .     A
C555   O582    1.293   .     A
C555   O583    1.300   .     A
C555   C557    1.464   .     S
C556   H622    1.084   .     S
C558   H570    1.082   .     S
C558   C559    1.387   .     A
C559   C74     1.391   1_556 S
C560   H571    1.077   .     S
Cu561  O576    1.960   .     S
Cu561  O580    1.955   .     S
Cu561  N575    2.017   .     S
Cu561  O582    1.921   .     S
Cu561  Cu562   2.684   .     S
Cu561  O578    1.942   .     S
Cu562  N574    2.017   .     S
Cu562  O581    1.960   .     S
Cu562  O577    1.955   .     S
Cu562  O579    1.921   .     S
Cu562  O583    1.942   .     S
H564   C715    1.088   .     S
H566   N629    1.029   .     S
H572   C613    1.083   .     S
N574   H619    1.029   .     S
N574   N629    1.285   .     S
O584   C585    1.419   .     S
O584   C875    1.391   1_545 S
C585   C588    1.529   .     S
C585   H910    1.111   1_545 S
C585   H911    1.118   1_545 S
H586   C747    1.111   .     S
H587   C747    1.118   .     S
C588   H590    1.111   .     S
C588   H589    1.112   .     S
C588   C591    1.526   .     S
C591   H594    1.111   .     S
C591   H592    1.111   .     S
C591   H593    1.110   .     S
C595   C605    1.433   .     S
C595   O631    1.283   .     A
C595   O630    1.290   .     A
C596   C597    1.419   .     A
C596   C112    1.426   1_556 S
C596   C128    1.418   1_556 S
C597   C601    1.413   .     A
C597   C604    1.423   .     A
C598   C602    1.402   .     A
C599   C600    1.391   .     A
C599   C112    1.420   1_556 S
C599   C124    1.405   1_556 S
C600   C601    1.386   .     A
C600   H621    1.084   .     S
C601   H627    1.079   .     S
C602   C611    1.399   .     A
C602   H623    1.076   .     S
C603   C611    1.398   .     A
C603   C610    1.393   .     A
C603   H617    1.083   .     S
C604   C606    1.474   .     S
C604   C612    1.401   .     A
C605   C769    1.337   .     S
C605   O800    1.391   .     S
C606   O633    1.293   .     A
C606   O632    1.304   .     A
C607   C608    1.429   .     S
C607   C929    1.337   1_545 S
C607   H942    1.088   1_545 S
C608   O635    1.287   .     A
C608   O634    1.288   .     A
C609   O636    1.293   .     A
C609   O637    1.300   .     A
C609   C611    1.464   .     S
C610   H514    1.084   1_655 S
C612   H624    1.082   .     S
C612   C613    1.387   .     A
C613   C128    1.391   1_556 S
C614   H625    1.077   .     S
Cu615  O630    1.960   .     S
Cu615  O634    1.955   .     S
Cu615  N629    2.017   .     S
Cu615  O636    1.921   .     S
Cu615  Cu616   2.684   .     S
Cu615  O632    1.942   .     S
Cu616  N628    2.017   .     S
Cu616  O635    1.960   .     S
Cu616  O631    1.955   .     S
Cu616  O633    1.921   .     S
Cu616  O637    1.942   .     S
H618   C769    1.088   .     S
H620   N521    1.029   1_655 S
H626   C505    1.083   1_655 S
N628   H511    1.029   1_655 S
N628   N521    1.285   1_655 S
O638   C639    1.419   .     S
O638   C929    1.391   1_545 S
C639   C642    1.529   .     S
C639   H964    1.111   1_545 S
C639   H965    1.118   1_545 S
H640   C801    1.111   .     S
H641   C801    1.118   .     S
C642   H644    1.111   .     S
C642   H643    1.112   .     S
C642   C645    1.526   .     S
C645   H648    1.111   .     S
C645   H646    1.111   .     S
C645   H647    1.110   .     S
C649   C659    1.433   .     S
C649   O685    1.283   .     A
C649   O684    1.290   .     A
C650   C651    1.419   .     A
C650   C166    1.426   1_556 S
C650   C182    1.418   1_556 S
C651   C655    1.413   .     A
C651   C658    1.423   .     A
C652   C656    1.402   .     A
C653   C654    1.391   .     A
C653   C166    1.420   1_556 S
C653   C178    1.405   1_556 S
C654   C655    1.386   .     A
C654   H675    1.084   .     S
C655   H681    1.079   .     S
C656   C665    1.399   .     A
C656   H677    1.076   .     S
C657   C665    1.398   .     A
C657   C664    1.393   .     A
C657   H671    1.083   .     S
C658   C660    1.474   .     S
C658   C666    1.401   .     A
C659   C823    1.337   .     S
C659   O854    1.391   .     S
C660   O687    1.293   .     A
C660   O686    1.304   .     A
C661   C662    1.429   .     S
C662   O689    1.287   .     A
C662   O688    1.288   .     A
C663   O690    1.293   .     A
C663   O691    1.300   .     A
C663   C665    1.464   .     S
C664   H730    1.084   .     S
C666   H678    1.082   .     S
C666   C667    1.387   .     A
C667   C182    1.391   1_556 S
C667   H788    1.083   1_455 S
C668   H679    1.077   .     S
Cu669  O684    1.960   .     S
Cu669  O688    1.955   .     S
Cu669  N683    2.017   .     S
Cu669  O690    1.921   .     S
Cu669  Cu670   2.684   .     S
Cu669  O686    1.942   .     S
Cu670  N682    2.017   .     S
Cu670  O689    1.960   .     S
Cu670  O685    1.955   .     S
Cu670  O687    1.921   .     S
Cu670  O691    1.942   .     S
H672   C823    1.088   .     S
H673   N790    1.029   1_455 S
H674   N737    1.029   .     S
H676   C772    1.084   1_455 S
H680   C721    1.083   .     S
N682   H727    1.029   .     S
N682   N737    1.285   .     S
N683   N790    1.285   1_455 S
N683   H782    1.029   1_455 S
O692   C693    1.419   .     S
C693   C696    1.529   .     S
H694   C855    1.111   .     S
H695   C855    1.118   .     S
C696   H698    1.111   .     S
C696   H697    1.112   .     S
C696   C699    1.526   .     S
C699   H702    1.111   .     S
C699   H700    1.111   .     S
C699   H701    1.110   .     S
C703   C713    1.433   .     S
C703   O739    1.283   .     A
C703   O738    1.290   .     A
C704   C705    1.419   .     A
C704   C220    1.426   1_556 S
C704   C236    1.418   1_556 S
C705   C709    1.413   .     A
C705   C712    1.423   .     A
C706   C710    1.402   .     A
C707   C708    1.391   .     A
C707   C220    1.420   1_556 S
C707   C232    1.405   1_556 S
C708   C709    1.386   .     A
C708   H729    1.084   .     S
C709   H735    1.079   .     S
C710   C719    1.399   .     A
C710   H731    1.076   .     S
C711   C719    1.398   .     A
C711   C718    1.393   .     A
C711   H725    1.083   .     S
C712   C714    1.474   .     S
C712   C720    1.401   .     A
C713   C877    1.337   .     S
C713   O908    1.391   .     S
C714   O741    1.293   .     A
C714   O740    1.304   .     A
C715   C716    1.429   .     S
C716   O743    1.287   .     A
C716   O742    1.288   .     A
C717   O744    1.293   .     A
C717   O745    1.300   .     A
C717   C719    1.464   .     S
C718   H784    1.084   .     S
C720   H732    1.082   .     S
C720   C721    1.387   .     A
C721   C236    1.391   1_556 S
C722   H733    1.077   .     S
Cu723  O738    1.960   .     S
Cu723  O742    1.955   .     S
Cu723  N737    2.017   .     S
Cu723  O744    1.921   .     S
Cu723  Cu724   2.684   .     S
Cu723  O740    1.942   .     S
Cu724  N736    2.017   .     S
Cu724  O743    1.960   .     S
Cu724  O739    1.955   .     S
Cu724  O741    1.921   .     S
Cu724  O745    1.942   .     S
H726   C877    1.088   .     S
H728   N791    1.029   .     S
H734   C775    1.083   .     S
N736   H781    1.029   .     S
N736   N791    1.285   .     S
O746   C747    1.419   .     S
C747   C750    1.529   .     S
H748   C909    1.111   .     S
H749   C909    1.118   .     S
C750   H752    1.111   .     S
C750   H751    1.112   .     S
C750   C753    1.526   .     S
C753   H756    1.111   .     S
C753   H754    1.111   .     S
C753   H755    1.110   .     S
C757   C767    1.433   .     S
C757   O793    1.283   .     A
C757   O792    1.290   .     A
C758   C759    1.419   .     A
C758   C274    1.426   1_556 S
C758   C290    1.418   1_556 S
C759   C763    1.413   .     A
C759   C766    1.423   .     A
C760   C764    1.402   .     A
C761   C762    1.391   .     A
C761   C274    1.420   1_556 S
C761   C286    1.405   1_556 S
C762   C763    1.386   .     A
C762   H783    1.084   .     S
C763   H789    1.079   .     S
C764   C773    1.399   .     A
C764   H785    1.076   .     S
C765   C773    1.398   .     A
C765   C772    1.393   .     A
C765   H779    1.083   .     S
C766   C768    1.474   .     S
C766   C774    1.401   .     A
C767   C931    1.337   .     S
C767   O962    1.391   .     S
C768   O795    1.293   .     A
C768   O794    1.304   .     A
C769   C770    1.429   .     S
C770   O797    1.287   .     A
C770   O796    1.288   .     A
C771   O798    1.293   .     A
C771   O799    1.300   .     A
C771   C773    1.464   .     S
C772   H676    1.084   1_655 S
C774   H786    1.082   .     S
C774   C775    1.387   .     A
C775   C290    1.391   1_556 S
C776   H787    1.077   .     S
Cu777  O792    1.960   .     S
Cu777  O796    1.955   .     S
Cu777  N791    2.017   .     S
Cu777  O798    1.921   .     S
Cu777  Cu778   2.684   .     S
Cu777  O794    1.942   .     S
Cu778  N790    2.017   .     S
Cu778  O797    1.960   .     S
Cu778  O793    1.955   .     S
Cu778  O795    1.921   .     S
Cu778  O799    1.942   .     S
H780   C931    1.088   .     S
H782   N683    1.029   1_655 S
H788   C667    1.083   1_655 S
N790   H673    1.029   1_655 S
N790   N683    1.285   1_655 S
O800   C801    1.419   .     S
C801   C804    1.529   .     S
H802   C963    1.111   .     S
H803   C963    1.118   .     S
C804   H806    1.111   .     S
C804   H805    1.112   .     S
C804   C807    1.526   .     S
C807   H810    1.111   .     S
C807   H808    1.111   .     S
C807   H809    1.110   .     S
C811   C821    1.433   .     S
C811   O847    1.283   .     A
C811   O846    1.290   .     A
C812   C813    1.419   .     A
C812   C328    1.426   1_556 S
C812   C344    1.418   1_556 S
C813   C817    1.413   .     A
C813   C820    1.423   .     A
C814   C818    1.402   .     A
C815   C816    1.391   .     A
C815   C328    1.420   1_556 S
C815   C340    1.405   1_556 S
C816   C817    1.386   .     A
C816   H837    1.084   .     S
C817   H843    1.079   .     S
C818   C827    1.399   .     A
C818   H839    1.076   .     S
C819   C827    1.398   .     A
C819   C826    1.393   .     A
C819   H833    1.083   .     S
C820   C822    1.474   .     S
C820   C828    1.401   .     A
C821   C499    1.337   1_565 S
C821   O530    1.391   1_565 S
C822   O849    1.293   .     A
C822   O848    1.304   .     A
C823   C824    1.429   .     S
C824   O851    1.287   .     A
C824   O850    1.288   .     A
C825   O852    1.293   .     A
C825   O853    1.300   .     A
C825   C827    1.464   .     S
C826   H892    1.084   .     S
C828   H840    1.082   .     S
C828   C829    1.387   .     A
C829   C344    1.391   1_556 S
C829   H950    1.083   1_455 S
C830   H841    1.077   .     S
Cu831  O846    1.960   .     S
Cu831  O850    1.955   .     S
Cu831  N845    2.017   .     S
Cu831  O852    1.921   .     S
Cu831  Cu832   2.684   .     S
Cu831  O848    1.942   .     S
Cu832  N844    2.017   .     S
Cu832  O851    1.960   .     S
Cu832  O847    1.955   .     S
Cu832  O849    1.921   .     S
Cu832  O853    1.942   .     S
H834   C499    1.088   1_565 S
H835   N952    1.029   1_455 S
H836   N899    1.029   .     S
H838   C934    1.084   1_455 S
H842   C883    1.083   .     S
N844   H889    1.029   .     S
N844   N899    1.285   .     S
N845   N952    1.285   1_455 S
N845   H944    1.029   1_455 S
O854   C855    1.419   .     S
C855   C858    1.529   .     S
H856   C531    1.111   1_565 S
H857   C531    1.118   1_565 S
C858   H860    1.111   .     S
C858   H859    1.112   .     S
C858   C861    1.526   .     S
C861   H864    1.111   .     S
C861   H862    1.111   .     S
C861   H863    1.110   .     S
C865   C875    1.433   .     S
C865   O901    1.283   .     A
C865   O900    1.290   .     A
C866   C867    1.419   .     A
C866   C382    1.426   1_556 S
C866   C398    1.418   1_556 S
C867   C871    1.413   .     A
C867   C874    1.423   .     A
C868   C872    1.402   .     A
C869   C870    1.391   .     A
C869   C382    1.420   1_556 S
C869   C394    1.405   1_556 S
C870   C871    1.386   .     A
C870   H891    1.084   .     S
C871   H897    1.079   .     S
C872   C881    1.399   .     A
C872   H893    1.076   .     S
C873   C881    1.398   .     A
C873   C880    1.393   .     A
C873   H887    1.083   .     S
C874   C876    1.474   .     S
C874   C882    1.401   .     A
C875   C553    1.337   1_565 S
C875   O584    1.391   1_565 S
C876   O903    1.293   .     A
C876   O902    1.304   .     A
C877   C878    1.429   .     S
C878   O905    1.287   .     A
C878   O904    1.288   .     A
C879   O906    1.293   .     A
C879   O907    1.300   .     A
C879   C881    1.464   .     S
C880   H946    1.084   .     S
C882   H894    1.082   .     S
C882   C883    1.387   .     A
C883   C398    1.391   1_556 S
C884   H895    1.077   .     S
Cu885  O900    1.960   .     S
Cu885  O904    1.955   .     S
Cu885  N899    2.017   .     S
Cu885  O906    1.921   .     S
Cu885  Cu886   2.684   .     S
Cu885  O902    1.942   .     S
Cu886  N898    2.017   .     S
Cu886  O905    1.960   .     S
Cu886  O901    1.955   .     S
Cu886  O903    1.921   .     S
Cu886  O907    1.942   .     S
H888   C553    1.088   1_565 S
H890   N953    1.029   .     S
H896   C937    1.083   .     S
N898   H943    1.029   .     S
N898   N953    1.285   .     S
O908   C909    1.419   .     S
C909   C912    1.529   .     S
H910   C585    1.111   1_565 S
H911   C585    1.118   1_565 S
C912   H914    1.111   .     S
C912   H913    1.112   .     S
C912   C915    1.526   .     S
C915   H918    1.111   .     S
C915   H916    1.111   .     S
C915   H917    1.110   .     S
C919   C929    1.433   .     S
C919   O955    1.283   .     A
C919   O954    1.290   .     A
C920   C921    1.419   .     A
C920   C436    1.426   1_556 S
C920   C452    1.418   1_556 S
C921   C925    1.413   .     A
C921   C928    1.423   .     A
C922   C926    1.402   .     A
C923   C924    1.391   .     A
C923   C436    1.420   1_556 S
C923   C448    1.405   1_556 S
C924   C925    1.386   .     A
C924   H945    1.084   .     S
C925   H951    1.079   .     S
C926   C935    1.399   .     A
C926   H947    1.076   .     S
C927   C935    1.398   .     A
C927   C934    1.393   .     A
C927   H941    1.083   .     S
C928   C930    1.474   .     S
C928   C936    1.401   .     A
C929   C607    1.337   1_565 S
C929   O638    1.391   1_565 S
C930   O957    1.293   .     A
C930   O956    1.304   .     A
C931   C932    1.429   .     S
C932   O959    1.287   .     A
C932   O958    1.288   .     A
C933   O960    1.293   .     A
C933   O961    1.300   .     A
C933   C935    1.464   .     S
C934   H838    1.084   1_655 S
C936   H948    1.082   .     S
C936   C937    1.387   .     A
C937   C452    1.391   1_556 S
C938   H949    1.077   .     S
Cu939  O954    1.960   .     S
Cu939  O958    1.955   .     S
Cu939  N953    2.017   .     S
Cu939  O960    1.921   .     S
Cu939  Cu940   2.684   .     S
Cu939  O956    1.942   .     S
Cu940  N952    2.017   .     S
Cu940  O959    1.960   .     S
Cu940  O955    1.955   .     S
Cu940  O957    1.921   .     S
Cu940  O961    1.942   .     S
H942   C607    1.088   1_565 S
H944   N845    1.029   1_655 S
H950   C829    1.083   1_655 S
N952   H835    1.029   1_655 S
N952   N845    1.285   1_655 S
O962   C963    1.419   .     S
C963   C966    1.529   .     S
H964   C639    1.111   1_565 S
H965   C639    1.118   1_565 S
C966   H968    1.111   .     S
C966   H967    1.112   .     S
C966   C969    1.526   .     S
C969   H972    1.111   .     S
C969   H970    1.111   .     S
C969   H971    1.110   .     S
