data_str_m2_o2_o10_pcu_sym.228
_audit_creation_date              2020-01-03
_audit_creation_method            'Materials Studio'
_symmetry_space_group_name_H-M    'P1'
_symmetry_Int_Tables_number       1
_symmetry_cell_setting            triclinic
loop_
_symmetry_equiv_pos_as_xyz
  x,y,z
_cell_length_a                    26.3786
_cell_length_b                    30.1838
_cell_length_c                    27.7182
_cell_angle_alpha                 89.7236
_cell_angle_beta                  97.7556
_cell_angle_gamma                 90.1932
loop_
_atom_site_label
_atom_site_type_symbol
_atom_site_fract_x
_atom_site_fract_y
_atom_site_fract_z
_atom_site_U_iso_or_equiv
_atom_site_adp_type
_atom_site_occupancy
C1     C     0.16634   0.16494   0.25008   0.00000  Uiso   1.00
C2     C     0.16637   0.33507   0.24985   0.00000  Uiso   1.00
C3     C     0.20666   0.26973   0.05896   0.00000  Uiso   1.00
C4     C     0.14165   0.21644   0.44297   0.00000  Uiso   1.00
C5     C     0.20570   0.26973   0.10957   0.00000  Uiso   1.00
C6     C     0.14183   0.21726   0.39224   0.00000  Uiso   1.00
C7     C     0.12763   0.23024   0.09980   0.00000  Uiso   1.00
C8     C     0.19143   0.28274   0.39831   0.00000  Uiso   1.00
C9     C     0.12666   0.23015   0.04893   0.00000  Uiso   1.00
C10    C     0.19154   0.28355   0.44906   0.00000  Uiso   1.00
C11    C     0.16664   0.24994   0.02732   0.00000  Uiso   1.00
C12    C     0.16661   0.24997   0.47263   0.00000  Uiso   1.00
C13    C     0.06811   0.24934   0.23774   0.00000  Uiso   1.00
C14    C     0.26522   0.25064   0.26226   0.00000  Uiso   1.00
C15    C     0.01319   0.24582   0.23114   0.00000  Uiso   1.00
C16    C     0.32015   0.25411   0.26888   0.00000  Uiso   1.00
C17    C     0.13404   0.04823   0.28342   0.00000  Uiso   1.00
C18    C     0.13514   0.45173   0.20777   0.00000  Uiso   1.00
C19    C     0.13798   0.09453   0.28383   0.00000  Uiso   1.00
C20    C     0.13910   0.40545   0.20837   0.00000  Uiso   1.00
C21    C     0.16427   0.11670   0.25021   0.00000  Uiso   1.00
C22    C     0.16432   0.38333   0.24922   0.00000  Uiso   1.00
C23    C     0.18760   0.09274   0.21627   0.00000  Uiso   1.00
C24    C     0.18652   0.40735   0.28966   0.00000  Uiso   1.00
C25    C     0.18537   0.04680   0.21638   0.00000  Uiso   1.00
C26    C     0.18426   0.45329   0.28904   0.00000  Uiso   1.00
C27    C     0.15852   0.02431   0.24940   0.00000  Uiso   1.00
C28    C     0.15850   0.47571   0.24861   0.00000  Uiso   1.00
Cu29   Cu    0.16667   0.24999   0.29822   0.00000  Uiso   1.00
Cu30   Cu    0.16667   0.25000   0.20179   0.00000  Uiso   1.00
H31    H     0.11934   0.11356   0.30943   0.00000  Uiso   1.00
H32    H     0.12129   0.38641   0.17756   0.00000  Uiso   1.00
H33    H     0.20824   0.10953   0.19025   0.00000  Uiso   1.00
H34    H     0.20631   0.39063   0.32138   0.00000  Uiso   1.00
H35    H     0.20456   0.02858   0.19055   0.00000  Uiso   1.00
H36    H     0.20259   0.47155   0.32021   0.00000  Uiso   1.00
H37    H     0.23907   0.28475   0.04505   0.00000  Uiso   1.00
H38    H     0.12259   0.18921   0.45862   0.00000  Uiso   1.00
H39    H     0.23653   0.28552   0.13302   0.00000  Uiso   1.00
H40    H     0.12215   0.19140   0.37016   0.00000  Uiso   1.00
H41    H     0.09677   0.21453   0.11555   0.00000  Uiso   1.00
H42    H     0.21114   0.30862   0.38106   0.00000  Uiso   1.00
H43    H     0.09425   0.21511   0.02689   0.00000  Uiso   1.00
H44    H     0.21057   0.31077   0.46935   0.00000  Uiso   1.00
N45    N     0.16667   0.25001   0.12935   0.00000  Uiso   1.00
N46    N     0.16667   0.24999   0.37065   0.00000  Uiso   1.00
O47    O     0.16667   0.18572   0.29071   0.00000  Uiso   1.00
O48    O     0.16666   0.31427   0.20929   0.00000  Uiso   1.00
O49    O     0.16667   0.18573   0.20928   0.00000  Uiso   1.00
O50    O     0.16666   0.31427   0.29072   0.00000  Uiso   1.00
O51    O     0.09161   0.24999   0.28132   0.00000  Uiso   1.00
O52    O     0.24172   0.25000   0.21868   0.00000  Uiso   1.00
O53    O     0.09161   0.25000   0.19989   0.00000  Uiso   1.00
O54    O     0.24172   0.25000   0.30012   0.00000  Uiso   1.00
O55    O     0.32222   0.23597   0.18482   0.00000  Uiso   1.00
C56    C     0.32379   0.18971   0.17810   0.00000  Uiso   1.00
H57    H     0.30466   0.17166   0.20582   0.00000  Uiso   1.00
H58    H     0.03042   0.17779   0.17877   0.00000  Uiso   1.00
H59    H     0.30266   0.18174   0.14181   0.00000  Uiso   1.00
O60    O     0.01116   0.26395   0.31519   0.00000  Uiso   1.00
C61    C     0.00916   0.31016   0.32211   0.00000  Uiso   1.00
H62    H     0.30246   0.32172   0.32195   0.00000  Uiso   1.00
H63    H     0.02771   0.32850   0.29420   0.00000  Uiso   1.00
H64    H     0.03061   0.31817   0.35825   0.00000  Uiso   1.00
C65    C     0.10323   0.02559   0.31737   0.00000  Uiso   1.00
H66    H     0.09601   0.49025   0.31472   0.00000  Uiso   1.00
O67    O     0.08509   0.04627   0.34869   0.00000  Uiso   1.00
C68    C     0.10547   0.47429   0.16528   0.00000  Uiso   1.00
H69    H     0.09811   0.00958   0.16599   0.00000  Uiso   1.00
O70    O     0.08846   0.45361   0.12888   0.00000  Uiso   1.00
C71    C     0.49968   0.16494   0.25008   0.00000  Uiso   1.00
C72    C     0.49971   0.33507   0.24985   0.00000  Uiso   1.00
C73    C     0.54000   0.26973   0.05896   0.00000  Uiso   1.00
C74    C     0.47499   0.21644   0.44297   0.00000  Uiso   1.00
C75    C     0.53904   0.26973   0.10957   0.00000  Uiso   1.00
C76    C     0.47516   0.21726   0.39224   0.00000  Uiso   1.00
C77    C     0.46096   0.23024   0.09980   0.00000  Uiso   1.00
C78    C     0.52476   0.28274   0.39831   0.00000  Uiso   1.00
C79    C     0.45999   0.23015   0.04893   0.00000  Uiso   1.00
C80    C     0.52487   0.28355   0.44906   0.00000  Uiso   1.00
C81    C     0.49998   0.24994   0.02732   0.00000  Uiso   1.00
C82    C     0.49994   0.24997   0.47263   0.00000  Uiso   1.00
C83    C     0.40144   0.24934   0.23774   0.00000  Uiso   1.00
C84    C     0.59856   0.25064   0.26226   0.00000  Uiso   1.00
C85    C     0.34653   0.24582   0.23114   0.00000  Uiso   1.00
C86    C     0.65349   0.25411   0.26888   0.00000  Uiso   1.00
C87    C     0.46738   0.04823   0.28342   0.00000  Uiso   1.00
C88    C     0.46848   0.45173   0.20777   0.00000  Uiso   1.00
C89    C     0.47131   0.09453   0.28383   0.00000  Uiso   1.00
C90    C     0.47243   0.40545   0.20837   0.00000  Uiso   1.00
C91    C     0.49761   0.11670   0.25021   0.00000  Uiso   1.00
C92    C     0.49765   0.38333   0.24922   0.00000  Uiso   1.00
C93    C     0.52093   0.09274   0.21627   0.00000  Uiso   1.00
C94    C     0.51985   0.40735   0.28966   0.00000  Uiso   1.00
C95    C     0.51871   0.04680   0.21638   0.00000  Uiso   1.00
C96    C     0.51759   0.45329   0.28904   0.00000  Uiso   1.00
C97    C     0.49186   0.02431   0.24940   0.00000  Uiso   1.00
C98    C     0.49183   0.47571   0.24861   0.00000  Uiso   1.00
Cu99   Cu    0.50000   0.24999   0.29822   0.00000  Uiso   1.00
Cu100  Cu    0.50000   0.25000   0.20179   0.00000  Uiso   1.00
H101   H     0.45267   0.11356   0.30943   0.00000  Uiso   1.00
H102   H     0.45462   0.38641   0.17756   0.00000  Uiso   1.00
H103   H     0.54157   0.10953   0.19025   0.00000  Uiso   1.00
H104   H     0.53965   0.39063   0.32138   0.00000  Uiso   1.00
H105   H     0.53790   0.02858   0.19055   0.00000  Uiso   1.00
H106   H     0.53592   0.47155   0.32021   0.00000  Uiso   1.00
H107   H     0.57240   0.28475   0.04505   0.00000  Uiso   1.00
H108   H     0.45592   0.18921   0.45862   0.00000  Uiso   1.00
H109   H     0.56986   0.28552   0.13302   0.00000  Uiso   1.00
H110   H     0.45548   0.19140   0.37016   0.00000  Uiso   1.00
H111   H     0.43011   0.21453   0.11555   0.00000  Uiso   1.00
H112   H     0.54447   0.30862   0.38106   0.00000  Uiso   1.00
H113   H     0.42758   0.21511   0.02689   0.00000  Uiso   1.00
H114   H     0.54391   0.31077   0.46935   0.00000  Uiso   1.00
N115   N     0.50000   0.25001   0.12935   0.00000  Uiso   1.00
N116   N     0.50000   0.24999   0.37065   0.00000  Uiso   1.00
O117   O     0.50000   0.18572   0.29071   0.00000  Uiso   1.00
O118   O     0.50000   0.31427   0.20929   0.00000  Uiso   1.00
O119   O     0.50000   0.18573   0.20928   0.00000  Uiso   1.00
O120   O     0.50000   0.31427   0.29072   0.00000  Uiso   1.00
O121   O     0.42495   0.24999   0.28132   0.00000  Uiso   1.00
O122   O     0.57505   0.25000   0.21868   0.00000  Uiso   1.00
O123   O     0.42495   0.25000   0.19989   0.00000  Uiso   1.00
O124   O     0.57505   0.25000   0.30012   0.00000  Uiso   1.00
O125   O     0.65556   0.23597   0.18482   0.00000  Uiso   1.00
C126   C     0.65712   0.18971   0.17810   0.00000  Uiso   1.00
H127   H     0.63800   0.17166   0.20582   0.00000  Uiso   1.00
H128   H     0.36375   0.17779   0.17877   0.00000  Uiso   1.00
H129   H     0.63600   0.18174   0.14181   0.00000  Uiso   1.00
O130   O     0.34449   0.26395   0.31519   0.00000  Uiso   1.00
C131   C     0.34250   0.31016   0.32211   0.00000  Uiso   1.00
H132   H     0.63579   0.32172   0.32195   0.00000  Uiso   1.00
H133   H     0.36105   0.32850   0.29420   0.00000  Uiso   1.00
H134   H     0.36395   0.31817   0.35825   0.00000  Uiso   1.00
C135   C     0.43656   0.02559   0.31737   0.00000  Uiso   1.00
H136   H     0.42934   0.49025   0.31472   0.00000  Uiso   1.00
O137   O     0.41842   0.04627   0.34869   0.00000  Uiso   1.00
C138   C     0.43881   0.47429   0.16528   0.00000  Uiso   1.00
H139   H     0.43144   0.00958   0.16599   0.00000  Uiso   1.00
O140   O     0.42179   0.45361   0.12888   0.00000  Uiso   1.00
C141   C     0.83301   0.16494   0.25008   0.00000  Uiso   1.00
C142   C     0.83304   0.33507   0.24985   0.00000  Uiso   1.00
C143   C     0.87333   0.26973   0.05896   0.00000  Uiso   1.00
C144   C     0.80832   0.21644   0.44297   0.00000  Uiso   1.00
C145   C     0.87237   0.26973   0.10957   0.00000  Uiso   1.00
C146   C     0.80850   0.21726   0.39224   0.00000  Uiso   1.00
C147   C     0.79429   0.23024   0.09980   0.00000  Uiso   1.00
C148   C     0.85809   0.28274   0.39831   0.00000  Uiso   1.00
C149   C     0.79332   0.23015   0.04893   0.00000  Uiso   1.00
C150   C     0.85820   0.28355   0.44906   0.00000  Uiso   1.00
C151   C     0.83331   0.24994   0.02732   0.00000  Uiso   1.00
C152   C     0.83327   0.24997   0.47263   0.00000  Uiso   1.00
C153   C     0.73478   0.24934   0.23774   0.00000  Uiso   1.00
C154   C     0.93189   0.25064   0.26226   0.00000  Uiso   1.00
C155   C     0.67986   0.24582   0.23114   0.00000  Uiso   1.00
C156   C     0.98682   0.25411   0.26888   0.00000  Uiso   1.00
C157   C     0.80071   0.04823   0.28342   0.00000  Uiso   1.00
C158   C     0.80181   0.45173   0.20777   0.00000  Uiso   1.00
C159   C     0.80464   0.09453   0.28383   0.00000  Uiso   1.00
C160   C     0.80576   0.40545   0.20837   0.00000  Uiso   1.00
C161   C     0.83094   0.11670   0.25021   0.00000  Uiso   1.00
C162   C     0.83099   0.38333   0.24922   0.00000  Uiso   1.00
C163   C     0.85426   0.09274   0.21627   0.00000  Uiso   1.00
C164   C     0.85319   0.40735   0.28966   0.00000  Uiso   1.00
C165   C     0.85204   0.04680   0.21638   0.00000  Uiso   1.00
C166   C     0.85092   0.45329   0.28904   0.00000  Uiso   1.00
C167   C     0.82519   0.02431   0.24940   0.00000  Uiso   1.00
C168   C     0.82516   0.47571   0.24861   0.00000  Uiso   1.00
Cu169  Cu    0.83333   0.24999   0.29822   0.00000  Uiso   1.00
Cu170  Cu    0.83333   0.25000   0.20179   0.00000  Uiso   1.00
H171   H     0.78600   0.11356   0.30943   0.00000  Uiso   1.00
H172   H     0.78795   0.38641   0.17756   0.00000  Uiso   1.00
H173   H     0.87491   0.10953   0.19025   0.00000  Uiso   1.00
H174   H     0.87298   0.39063   0.32138   0.00000  Uiso   1.00
H175   H     0.87123   0.02858   0.19055   0.00000  Uiso   1.00
H176   H     0.86926   0.47155   0.32021   0.00000  Uiso   1.00
H177   H     0.90573   0.28475   0.04505   0.00000  Uiso   1.00
H178   H     0.78926   0.18921   0.45862   0.00000  Uiso   1.00
H179   H     0.90320   0.28552   0.13302   0.00000  Uiso   1.00
H180   H     0.78881   0.19140   0.37016   0.00000  Uiso   1.00
H181   H     0.76344   0.21453   0.11555   0.00000  Uiso   1.00
H182   H     0.87780   0.30862   0.38106   0.00000  Uiso   1.00
H183   H     0.76092   0.21511   0.02689   0.00000  Uiso   1.00
H184   H     0.87724   0.31077   0.46935   0.00000  Uiso   1.00
N185   N     0.83333   0.25001   0.12935   0.00000  Uiso   1.00
N186   N     0.83333   0.24999   0.37065   0.00000  Uiso   1.00
O187   O     0.83334   0.18572   0.29071   0.00000  Uiso   1.00
O188   O     0.83333   0.31427   0.20929   0.00000  Uiso   1.00
O189   O     0.83334   0.18573   0.20928   0.00000  Uiso   1.00
O190   O     0.83333   0.31427   0.29072   0.00000  Uiso   1.00
O191   O     0.75828   0.24999   0.28132   0.00000  Uiso   1.00
O192   O     0.90839   0.25000   0.21868   0.00000  Uiso   1.00
O193   O     0.75828   0.25000   0.19989   0.00000  Uiso   1.00
O194   O     0.90839   0.25000   0.30012   0.00000  Uiso   1.00
O195   O     0.98889   0.23597   0.18482   0.00000  Uiso   1.00
C196   C     0.99046   0.18971   0.17810   0.00000  Uiso   1.00
H197   H     0.97133   0.17166   0.20582   0.00000  Uiso   1.00
H198   H     0.69709   0.17779   0.17877   0.00000  Uiso   1.00
H199   H     0.96933   0.18174   0.14181   0.00000  Uiso   1.00
O200   O     0.67783   0.26395   0.31519   0.00000  Uiso   1.00
C201   C     0.67583   0.31016   0.32211   0.00000  Uiso   1.00
H202   H     0.96913   0.32172   0.32195   0.00000  Uiso   1.00
H203   H     0.69438   0.32850   0.29420   0.00000  Uiso   1.00
H204   H     0.69728   0.31817   0.35825   0.00000  Uiso   1.00
C205   C     0.76989   0.02559   0.31737   0.00000  Uiso   1.00
H206   H     0.76267   0.49025   0.31472   0.00000  Uiso   1.00
O207   O     0.75175   0.04627   0.34869   0.00000  Uiso   1.00
C208   C     0.77214   0.47429   0.16528   0.00000  Uiso   1.00
H209   H     0.76478   0.00958   0.16599   0.00000  Uiso   1.00
O210   O     0.75513   0.45361   0.12888   0.00000  Uiso   1.00
C211   C     0.16634   0.66494   0.25008   0.00000  Uiso   1.00
C212   C     0.16637   0.83507   0.24985   0.00000  Uiso   1.00
C213   C     0.20666   0.76973   0.05896   0.00000  Uiso   1.00
C214   C     0.14165   0.71644   0.44297   0.00000  Uiso   1.00
C215   C     0.20570   0.76973   0.10957   0.00000  Uiso   1.00
C216   C     0.14183   0.71726   0.39224   0.00000  Uiso   1.00
C217   C     0.12763   0.73024   0.09980   0.00000  Uiso   1.00
C218   C     0.19143   0.78274   0.39831   0.00000  Uiso   1.00
C219   C     0.12666   0.73015   0.04893   0.00000  Uiso   1.00
C220   C     0.19154   0.78355   0.44906   0.00000  Uiso   1.00
C221   C     0.16664   0.74994   0.02732   0.00000  Uiso   1.00
C222   C     0.16661   0.74997   0.47263   0.00000  Uiso   1.00
C223   C     0.06811   0.74934   0.23774   0.00000  Uiso   1.00
C224   C     0.26522   0.75064   0.26226   0.00000  Uiso   1.00
C225   C     0.01319   0.74582   0.23114   0.00000  Uiso   1.00
C226   C     0.32015   0.75411   0.26888   0.00000  Uiso   1.00
C227   C     0.13404   0.54823   0.28342   0.00000  Uiso   1.00
C228   C     0.13514   0.95173   0.20777   0.00000  Uiso   1.00
C229   C     0.13798   0.59453   0.28383   0.00000  Uiso   1.00
C230   C     0.13910   0.90545   0.20837   0.00000  Uiso   1.00
C231   C     0.16427   0.61670   0.25021   0.00000  Uiso   1.00
C232   C     0.16432   0.88333   0.24922   0.00000  Uiso   1.00
C233   C     0.18760   0.59274   0.21627   0.00000  Uiso   1.00
C234   C     0.18652   0.90735   0.28966   0.00000  Uiso   1.00
C235   C     0.18537   0.54680   0.21638   0.00000  Uiso   1.00
C236   C     0.18426   0.95329   0.28904   0.00000  Uiso   1.00
C237   C     0.15852   0.52431   0.24940   0.00000  Uiso   1.00
C238   C     0.15850   0.97571   0.24861   0.00000  Uiso   1.00
Cu239  Cu    0.16667   0.74999   0.29822   0.00000  Uiso   1.00
Cu240  Cu    0.16667   0.75000   0.20179   0.00000  Uiso   1.00
H241   H     0.11934   0.61356   0.30943   0.00000  Uiso   1.00
H242   H     0.12129   0.88641   0.17756   0.00000  Uiso   1.00
H243   H     0.20824   0.60953   0.19025   0.00000  Uiso   1.00
H244   H     0.20631   0.89063   0.32138   0.00000  Uiso   1.00
H245   H     0.20456   0.52858   0.19055   0.00000  Uiso   1.00
H246   H     0.20259   0.97155   0.32021   0.00000  Uiso   1.00
H247   H     0.23907   0.78475   0.04505   0.00000  Uiso   1.00
H248   H     0.12259   0.68921   0.45862   0.00000  Uiso   1.00
H249   H     0.23653   0.78552   0.13302   0.00000  Uiso   1.00
H250   H     0.12215   0.69140   0.37016   0.00000  Uiso   1.00
H251   H     0.09677   0.71453   0.11555   0.00000  Uiso   1.00
H252   H     0.21114   0.80862   0.38106   0.00000  Uiso   1.00
H253   H     0.09425   0.71511   0.02689   0.00000  Uiso   1.00
H254   H     0.21057   0.81077   0.46935   0.00000  Uiso   1.00
N255   N     0.16667   0.75001   0.12935   0.00000  Uiso   1.00
N256   N     0.16667   0.74999   0.37065   0.00000  Uiso   1.00
O257   O     0.16667   0.68572   0.29071   0.00000  Uiso   1.00
O258   O     0.16666   0.81427   0.20929   0.00000  Uiso   1.00
O259   O     0.16667   0.68573   0.20928   0.00000  Uiso   1.00
O260   O     0.16666   0.81427   0.29072   0.00000  Uiso   1.00
O261   O     0.09161   0.74999   0.28132   0.00000  Uiso   1.00
O262   O     0.24172   0.75000   0.21868   0.00000  Uiso   1.00
O263   O     0.09161   0.75000   0.19989   0.00000  Uiso   1.00
O264   O     0.24172   0.75000   0.30012   0.00000  Uiso   1.00
O265   O     0.32222   0.73597   0.18482   0.00000  Uiso   1.00
C266   C     0.32379   0.68971   0.17810   0.00000  Uiso   1.00
H267   H     0.30466   0.67166   0.20582   0.00000  Uiso   1.00
H268   H     0.03042   0.67779   0.17877   0.00000  Uiso   1.00
H269   H     0.30266   0.68174   0.14181   0.00000  Uiso   1.00
O270   O     0.01116   0.76395   0.31519   0.00000  Uiso   1.00
C271   C     0.00916   0.81016   0.32211   0.00000  Uiso   1.00
H272   H     0.30246   0.82172   0.32195   0.00000  Uiso   1.00
H273   H     0.02771   0.82850   0.29420   0.00000  Uiso   1.00
H274   H     0.03061   0.81817   0.35825   0.00000  Uiso   1.00
C275   C     0.10323   0.52559   0.31737   0.00000  Uiso   1.00
H276   H     0.09601   0.99025   0.31472   0.00000  Uiso   1.00
O277   O     0.08509   0.54627   0.34869   0.00000  Uiso   1.00
C278   C     0.10547   0.97429   0.16528   0.00000  Uiso   1.00
H279   H     0.09811   0.50958   0.16599   0.00000  Uiso   1.00
O280   O     0.08846   0.95361   0.12888   0.00000  Uiso   1.00
C281   C     0.49968   0.66494   0.25008   0.00000  Uiso   1.00
C282   C     0.49971   0.83507   0.24985   0.00000  Uiso   1.00
C283   C     0.54000   0.76973   0.05896   0.00000  Uiso   1.00
C284   C     0.47499   0.71644   0.44297   0.00000  Uiso   1.00
C285   C     0.53904   0.76973   0.10957   0.00000  Uiso   1.00
C286   C     0.47516   0.71726   0.39224   0.00000  Uiso   1.00
C287   C     0.46096   0.73024   0.09980   0.00000  Uiso   1.00
C288   C     0.52476   0.78274   0.39831   0.00000  Uiso   1.00
C289   C     0.45999   0.73015   0.04893   0.00000  Uiso   1.00
C290   C     0.52487   0.78355   0.44906   0.00000  Uiso   1.00
C291   C     0.49998   0.74994   0.02732   0.00000  Uiso   1.00
C292   C     0.49994   0.74997   0.47263   0.00000  Uiso   1.00
C293   C     0.40144   0.74934   0.23774   0.00000  Uiso   1.00
C294   C     0.59856   0.75064   0.26226   0.00000  Uiso   1.00
C295   C     0.34653   0.74582   0.23114   0.00000  Uiso   1.00
C296   C     0.65349   0.75411   0.26888   0.00000  Uiso   1.00
C297   C     0.46738   0.54823   0.28342   0.00000  Uiso   1.00
C298   C     0.46848   0.95173   0.20777   0.00000  Uiso   1.00
C299   C     0.47131   0.59453   0.28383   0.00000  Uiso   1.00
C300   C     0.47243   0.90545   0.20837   0.00000  Uiso   1.00
C301   C     0.49761   0.61670   0.25021   0.00000  Uiso   1.00
C302   C     0.49765   0.88333   0.24922   0.00000  Uiso   1.00
C303   C     0.52093   0.59274   0.21627   0.00000  Uiso   1.00
C304   C     0.51985   0.90735   0.28966   0.00000  Uiso   1.00
C305   C     0.51871   0.54680   0.21638   0.00000  Uiso   1.00
C306   C     0.51759   0.95329   0.28904   0.00000  Uiso   1.00
C307   C     0.49186   0.52431   0.24940   0.00000  Uiso   1.00
C308   C     0.49183   0.97571   0.24861   0.00000  Uiso   1.00
Cu309  Cu    0.50000   0.74999   0.29822   0.00000  Uiso   1.00
Cu310  Cu    0.50000   0.75000   0.20179   0.00000  Uiso   1.00
H311   H     0.45267   0.61356   0.30943   0.00000  Uiso   1.00
H312   H     0.45462   0.88641   0.17756   0.00000  Uiso   1.00
H313   H     0.54157   0.60953   0.19025   0.00000  Uiso   1.00
H314   H     0.53965   0.89063   0.32138   0.00000  Uiso   1.00
H315   H     0.53790   0.52858   0.19055   0.00000  Uiso   1.00
H316   H     0.53592   0.97155   0.32021   0.00000  Uiso   1.00
H317   H     0.57240   0.78475   0.04505   0.00000  Uiso   1.00
H318   H     0.45592   0.68921   0.45862   0.00000  Uiso   1.00
H319   H     0.56986   0.78552   0.13302   0.00000  Uiso   1.00
H320   H     0.45548   0.69140   0.37016   0.00000  Uiso   1.00
H321   H     0.43011   0.71453   0.11555   0.00000  Uiso   1.00
H322   H     0.54447   0.80862   0.38106   0.00000  Uiso   1.00
H323   H     0.42758   0.71511   0.02689   0.00000  Uiso   1.00
H324   H     0.54391   0.81077   0.46935   0.00000  Uiso   1.00
N325   N     0.50000   0.75001   0.12935   0.00000  Uiso   1.00
N326   N     0.50000   0.74999   0.37065   0.00000  Uiso   1.00
O327   O     0.50000   0.68572   0.29071   0.00000  Uiso   1.00
O328   O     0.50000   0.81427   0.20929   0.00000  Uiso   1.00
O329   O     0.50000   0.68573   0.20928   0.00000  Uiso   1.00
O330   O     0.50000   0.81427   0.29072   0.00000  Uiso   1.00
O331   O     0.42495   0.74999   0.28132   0.00000  Uiso   1.00
O332   O     0.57505   0.75000   0.21868   0.00000  Uiso   1.00
O333   O     0.42495   0.75000   0.19989   0.00000  Uiso   1.00
O334   O     0.57505   0.75000   0.30012   0.00000  Uiso   1.00
O335   O     0.65556   0.73597   0.18482   0.00000  Uiso   1.00
C336   C     0.65712   0.68971   0.17810   0.00000  Uiso   1.00
H337   H     0.63800   0.67166   0.20582   0.00000  Uiso   1.00
H338   H     0.36375   0.67779   0.17877   0.00000  Uiso   1.00
H339   H     0.63600   0.68174   0.14181   0.00000  Uiso   1.00
O340   O     0.34449   0.76395   0.31519   0.00000  Uiso   1.00
C341   C     0.34250   0.81016   0.32211   0.00000  Uiso   1.00
H342   H     0.63579   0.82172   0.32195   0.00000  Uiso   1.00
H343   H     0.36105   0.82850   0.29420   0.00000  Uiso   1.00
H344   H     0.36395   0.81817   0.35825   0.00000  Uiso   1.00
C345   C     0.43656   0.52559   0.31737   0.00000  Uiso   1.00
H346   H     0.42934   0.99025   0.31472   0.00000  Uiso   1.00
O347   O     0.41842   0.54627   0.34869   0.00000  Uiso   1.00
C348   C     0.43881   0.97429   0.16528   0.00000  Uiso   1.00
H349   H     0.43144   0.50958   0.16599   0.00000  Uiso   1.00
O350   O     0.42179   0.95361   0.12888   0.00000  Uiso   1.00
C351   C     0.83301   0.66494   0.25008   0.00000  Uiso   1.00
C352   C     0.83304   0.83507   0.24985   0.00000  Uiso   1.00
C353   C     0.87333   0.76973   0.05896   0.00000  Uiso   1.00
C354   C     0.80832   0.71644   0.44297   0.00000  Uiso   1.00
C355   C     0.87237   0.76973   0.10957   0.00000  Uiso   1.00
C356   C     0.80850   0.71726   0.39224   0.00000  Uiso   1.00
C357   C     0.79429   0.73024   0.09980   0.00000  Uiso   1.00
C358   C     0.85809   0.78274   0.39831   0.00000  Uiso   1.00
C359   C     0.79332   0.73015   0.04893   0.00000  Uiso   1.00
C360   C     0.85820   0.78355   0.44906   0.00000  Uiso   1.00
C361   C     0.83331   0.74994   0.02732   0.00000  Uiso   1.00
C362   C     0.83327   0.74997   0.47263   0.00000  Uiso   1.00
C363   C     0.73478   0.74934   0.23774   0.00000  Uiso   1.00
C364   C     0.93189   0.75064   0.26226   0.00000  Uiso   1.00
C365   C     0.67986   0.74582   0.23114   0.00000  Uiso   1.00
C366   C     0.98682   0.75411   0.26888   0.00000  Uiso   1.00
C367   C     0.80071   0.54823   0.28342   0.00000  Uiso   1.00
C368   C     0.80181   0.95173   0.20777   0.00000  Uiso   1.00
C369   C     0.80464   0.59453   0.28383   0.00000  Uiso   1.00
C370   C     0.80576   0.90545   0.20837   0.00000  Uiso   1.00
C371   C     0.83094   0.61670   0.25021   0.00000  Uiso   1.00
C372   C     0.83099   0.88333   0.24922   0.00000  Uiso   1.00
C373   C     0.85426   0.59274   0.21627   0.00000  Uiso   1.00
C374   C     0.85319   0.90735   0.28966   0.00000  Uiso   1.00
C375   C     0.85204   0.54680   0.21638   0.00000  Uiso   1.00
C376   C     0.85092   0.95329   0.28904   0.00000  Uiso   1.00
C377   C     0.82519   0.52431   0.24940   0.00000  Uiso   1.00
C378   C     0.82516   0.97571   0.24861   0.00000  Uiso   1.00
Cu379  Cu    0.83333   0.74999   0.29822   0.00000  Uiso   1.00
Cu380  Cu    0.83333   0.75000   0.20179   0.00000  Uiso   1.00
H381   H     0.78600   0.61356   0.30943   0.00000  Uiso   1.00
H382   H     0.78795   0.88641   0.17756   0.00000  Uiso   1.00
H383   H     0.87491   0.60953   0.19025   0.00000  Uiso   1.00
H384   H     0.87298   0.89063   0.32138   0.00000  Uiso   1.00
H385   H     0.87123   0.52858   0.19055   0.00000  Uiso   1.00
H386   H     0.86926   0.97155   0.32021   0.00000  Uiso   1.00
H387   H     0.90573   0.78475   0.04505   0.00000  Uiso   1.00
H388   H     0.78926   0.68921   0.45862   0.00000  Uiso   1.00
H389   H     0.90320   0.78552   0.13302   0.00000  Uiso   1.00
H390   H     0.78881   0.69140   0.37016   0.00000  Uiso   1.00
H391   H     0.76344   0.71453   0.11555   0.00000  Uiso   1.00
H392   H     0.87780   0.80862   0.38106   0.00000  Uiso   1.00
H393   H     0.76092   0.71511   0.02689   0.00000  Uiso   1.00
H394   H     0.87724   0.81077   0.46935   0.00000  Uiso   1.00
N395   N     0.83333   0.75001   0.12935   0.00000  Uiso   1.00
N396   N     0.83333   0.74999   0.37065   0.00000  Uiso   1.00
O397   O     0.83334   0.68572   0.29071   0.00000  Uiso   1.00
O398   O     0.83333   0.81427   0.20929   0.00000  Uiso   1.00
O399   O     0.83334   0.68573   0.20928   0.00000  Uiso   1.00
O400   O     0.83333   0.81427   0.29072   0.00000  Uiso   1.00
O401   O     0.75828   0.74999   0.28132   0.00000  Uiso   1.00
O402   O     0.90839   0.75000   0.21868   0.00000  Uiso   1.00
O403   O     0.75828   0.75000   0.19989   0.00000  Uiso   1.00
O404   O     0.90839   0.75000   0.30012   0.00000  Uiso   1.00
O405   O     0.98889   0.73597   0.18482   0.00000  Uiso   1.00
C406   C     0.99046   0.68971   0.17810   0.00000  Uiso   1.00
H407   H     0.97133   0.67166   0.20582   0.00000  Uiso   1.00
H408   H     0.69709   0.67779   0.17877   0.00000  Uiso   1.00
H409   H     0.96933   0.68174   0.14181   0.00000  Uiso   1.00
O410   O     0.67783   0.76395   0.31519   0.00000  Uiso   1.00
C411   C     0.67583   0.81016   0.32211   0.00000  Uiso   1.00
H412   H     0.96913   0.82172   0.32195   0.00000  Uiso   1.00
H413   H     0.69438   0.82850   0.29420   0.00000  Uiso   1.00
H414   H     0.69728   0.81817   0.35825   0.00000  Uiso   1.00
C415   C     0.76989   0.52559   0.31737   0.00000  Uiso   1.00
H416   H     0.76267   0.99025   0.31472   0.00000  Uiso   1.00
O417   O     0.75175   0.54627   0.34869   0.00000  Uiso   1.00
C418   C     0.77214   0.97429   0.16528   0.00000  Uiso   1.00
H419   H     0.76478   0.50958   0.16599   0.00000  Uiso   1.00
O420   O     0.75513   0.95361   0.12888   0.00000  Uiso   1.00
C421   C     0.16634   0.16494   0.75008   0.00000  Uiso   1.00
C422   C     0.16637   0.33507   0.74985   0.00000  Uiso   1.00
C423   C     0.20666   0.26973   0.55896   0.00000  Uiso   1.00
C424   C     0.14165   0.21644   0.94297   0.00000  Uiso   1.00
C425   C     0.20570   0.26973   0.60957   0.00000  Uiso   1.00
C426   C     0.14183   0.21726   0.89224   0.00000  Uiso   1.00
C427   C     0.12763   0.23024   0.59980   0.00000  Uiso   1.00
C428   C     0.19143   0.28274   0.89831   0.00000  Uiso   1.00
C429   C     0.12666   0.23015   0.54893   0.00000  Uiso   1.00
C430   C     0.19154   0.28355   0.94906   0.00000  Uiso   1.00
C431   C     0.16664   0.24994   0.52732   0.00000  Uiso   1.00
C432   C     0.16661   0.24997   0.97263   0.00000  Uiso   1.00
C433   C     0.06811   0.24934   0.73774   0.00000  Uiso   1.00
C434   C     0.26522   0.25064   0.76226   0.00000  Uiso   1.00
C435   C     0.01319   0.24582   0.73114   0.00000  Uiso   1.00
C436   C     0.32015   0.25411   0.76888   0.00000  Uiso   1.00
C437   C     0.13404   0.04823   0.78342   0.00000  Uiso   1.00
C438   C     0.13514   0.45173   0.70777   0.00000  Uiso   1.00
C439   C     0.13798   0.09453   0.78383   0.00000  Uiso   1.00
C440   C     0.13910   0.40545   0.70837   0.00000  Uiso   1.00
C441   C     0.16427   0.11670   0.75021   0.00000  Uiso   1.00
C442   C     0.16432   0.38333   0.74922   0.00000  Uiso   1.00
C443   C     0.18760   0.09274   0.71627   0.00000  Uiso   1.00
C444   C     0.18652   0.40735   0.78966   0.00000  Uiso   1.00
C445   C     0.18537   0.04680   0.71638   0.00000  Uiso   1.00
C446   C     0.18426   0.45329   0.78904   0.00000  Uiso   1.00
C447   C     0.15852   0.02431   0.74940   0.00000  Uiso   1.00
C448   C     0.15850   0.47571   0.74861   0.00000  Uiso   1.00
Cu449  Cu    0.16667   0.24999   0.79822   0.00000  Uiso   1.00
Cu450  Cu    0.16667   0.25000   0.70179   0.00000  Uiso   1.00
H451   H     0.11934   0.11356   0.80943   0.00000  Uiso   1.00
H452   H     0.12129   0.38641   0.67756   0.00000  Uiso   1.00
H453   H     0.20824   0.10953   0.69025   0.00000  Uiso   1.00
H454   H     0.20631   0.39063   0.82138   0.00000  Uiso   1.00
H455   H     0.20456   0.02858   0.69055   0.00000  Uiso   1.00
H456   H     0.20259   0.47155   0.82021   0.00000  Uiso   1.00
H457   H     0.23907   0.28475   0.54505   0.00000  Uiso   1.00
H458   H     0.12259   0.18921   0.95862   0.00000  Uiso   1.00
H459   H     0.23653   0.28552   0.63302   0.00000  Uiso   1.00
H460   H     0.12215   0.19140   0.87016   0.00000  Uiso   1.00
H461   H     0.09677   0.21453   0.61555   0.00000  Uiso   1.00
H462   H     0.21114   0.30862   0.88106   0.00000  Uiso   1.00
H463   H     0.09425   0.21511   0.52689   0.00000  Uiso   1.00
H464   H     0.21057   0.31077   0.96935   0.00000  Uiso   1.00
N465   N     0.16667   0.25001   0.62935   0.00000  Uiso   1.00
N466   N     0.16667   0.24999   0.87065   0.00000  Uiso   1.00
O467   O     0.16667   0.18572   0.79071   0.00000  Uiso   1.00
O468   O     0.16666   0.31427   0.70929   0.00000  Uiso   1.00
O469   O     0.16667   0.18573   0.70928   0.00000  Uiso   1.00
O470   O     0.16666   0.31427   0.79072   0.00000  Uiso   1.00
O471   O     0.09161   0.24999   0.78132   0.00000  Uiso   1.00
O472   O     0.24172   0.25000   0.71868   0.00000  Uiso   1.00
O473   O     0.09161   0.25000   0.69989   0.00000  Uiso   1.00
O474   O     0.24172   0.25000   0.80012   0.00000  Uiso   1.00
O475   O     0.32222   0.23597   0.68482   0.00000  Uiso   1.00
C476   C     0.32379   0.18971   0.67810   0.00000  Uiso   1.00
H477   H     0.30466   0.17166   0.70582   0.00000  Uiso   1.00
H478   H     0.03042   0.17779   0.67877   0.00000  Uiso   1.00
H479   H     0.30266   0.18174   0.64181   0.00000  Uiso   1.00
O480   O     0.01116   0.26395   0.81519   0.00000  Uiso   1.00
C481   C     0.00916   0.31016   0.82211   0.00000  Uiso   1.00
H482   H     0.30246   0.32172   0.82195   0.00000  Uiso   1.00
H483   H     0.02771   0.32850   0.79420   0.00000  Uiso   1.00
H484   H     0.03061   0.31817   0.85825   0.00000  Uiso   1.00
C485   C     0.10323   0.02559   0.81737   0.00000  Uiso   1.00
H486   H     0.09601   0.49025   0.81472   0.00000  Uiso   1.00
O487   O     0.08509   0.04627   0.84869   0.00000  Uiso   1.00
C488   C     0.10547   0.47429   0.66528   0.00000  Uiso   1.00
H489   H     0.09811   0.00958   0.66599   0.00000  Uiso   1.00
O490   O     0.08846   0.45361   0.62888   0.00000  Uiso   1.00
C491   C     0.49968   0.16494   0.75008   0.00000  Uiso   1.00
C492   C     0.49971   0.33507   0.74985   0.00000  Uiso   1.00
C493   C     0.54000   0.26973   0.55896   0.00000  Uiso   1.00
C494   C     0.47499   0.21644   0.94297   0.00000  Uiso   1.00
C495   C     0.53904   0.26973   0.60957   0.00000  Uiso   1.00
C496   C     0.47516   0.21726   0.89224   0.00000  Uiso   1.00
C497   C     0.46096   0.23024   0.59980   0.00000  Uiso   1.00
C498   C     0.52476   0.28274   0.89831   0.00000  Uiso   1.00
C499   C     0.45999   0.23015   0.54893   0.00000  Uiso   1.00
C500   C     0.52487   0.28355   0.94906   0.00000  Uiso   1.00
C501   C     0.49998   0.24994   0.52732   0.00000  Uiso   1.00
C502   C     0.49994   0.24997   0.97263   0.00000  Uiso   1.00
C503   C     0.40144   0.24934   0.73774   0.00000  Uiso   1.00
C504   C     0.59856   0.25064   0.76226   0.00000  Uiso   1.00
C505   C     0.34653   0.24582   0.73114   0.00000  Uiso   1.00
C506   C     0.65349   0.25411   0.76888   0.00000  Uiso   1.00
C507   C     0.46738   0.04823   0.78342   0.00000  Uiso   1.00
C508   C     0.46848   0.45173   0.70777   0.00000  Uiso   1.00
C509   C     0.47131   0.09453   0.78383   0.00000  Uiso   1.00
C510   C     0.47243   0.40545   0.70837   0.00000  Uiso   1.00
C511   C     0.49761   0.11670   0.75021   0.00000  Uiso   1.00
C512   C     0.49765   0.38333   0.74922   0.00000  Uiso   1.00
C513   C     0.52093   0.09274   0.71627   0.00000  Uiso   1.00
C514   C     0.51985   0.40735   0.78966   0.00000  Uiso   1.00
C515   C     0.51871   0.04680   0.71638   0.00000  Uiso   1.00
C516   C     0.51759   0.45329   0.78904   0.00000  Uiso   1.00
C517   C     0.49186   0.02431   0.74940   0.00000  Uiso   1.00
C518   C     0.49183   0.47571   0.74861   0.00000  Uiso   1.00
Cu519  Cu    0.50000   0.24999   0.79822   0.00000  Uiso   1.00
Cu520  Cu    0.50000   0.25000   0.70179   0.00000  Uiso   1.00
H521   H     0.45267   0.11356   0.80943   0.00000  Uiso   1.00
H522   H     0.45462   0.38641   0.67756   0.00000  Uiso   1.00
H523   H     0.54157   0.10953   0.69025   0.00000  Uiso   1.00
H524   H     0.53965   0.39063   0.82138   0.00000  Uiso   1.00
H525   H     0.53790   0.02858   0.69055   0.00000  Uiso   1.00
H526   H     0.53592   0.47155   0.82021   0.00000  Uiso   1.00
H527   H     0.57240   0.28475   0.54505   0.00000  Uiso   1.00
H528   H     0.45592   0.18921   0.95862   0.00000  Uiso   1.00
H529   H     0.56986   0.28552   0.63302   0.00000  Uiso   1.00
H530   H     0.45548   0.19140   0.87016   0.00000  Uiso   1.00
H531   H     0.43011   0.21453   0.61555   0.00000  Uiso   1.00
H532   H     0.54447   0.30862   0.88106   0.00000  Uiso   1.00
H533   H     0.42758   0.21511   0.52689   0.00000  Uiso   1.00
H534   H     0.54391   0.31077   0.96935   0.00000  Uiso   1.00
N535   N     0.50000   0.25001   0.62935   0.00000  Uiso   1.00
N536   N     0.50000   0.24999   0.87065   0.00000  Uiso   1.00
O537   O     0.50000   0.18572   0.79071   0.00000  Uiso   1.00
O538   O     0.50000   0.31427   0.70929   0.00000  Uiso   1.00
O539   O     0.50000   0.18573   0.70928   0.00000  Uiso   1.00
O540   O     0.50000   0.31427   0.79072   0.00000  Uiso   1.00
O541   O     0.42495   0.24999   0.78132   0.00000  Uiso   1.00
O542   O     0.57505   0.25000   0.71868   0.00000  Uiso   1.00
O543   O     0.42495   0.25000   0.69989   0.00000  Uiso   1.00
O544   O     0.57505   0.25000   0.80012   0.00000  Uiso   1.00
O545   O     0.65556   0.23597   0.68482   0.00000  Uiso   1.00
C546   C     0.65712   0.18971   0.67810   0.00000  Uiso   1.00
H547   H     0.63800   0.17166   0.70582   0.00000  Uiso   1.00
H548   H     0.36375   0.17779   0.67877   0.00000  Uiso   1.00
H549   H     0.63600   0.18174   0.64181   0.00000  Uiso   1.00
O550   O     0.34449   0.26395   0.81519   0.00000  Uiso   1.00
C551   C     0.34250   0.31016   0.82211   0.00000  Uiso   1.00
H552   H     0.63579   0.32172   0.82195   0.00000  Uiso   1.00
H553   H     0.36105   0.32850   0.79420   0.00000  Uiso   1.00
H554   H     0.36395   0.31817   0.85825   0.00000  Uiso   1.00
C555   C     0.43656   0.02559   0.81737   0.00000  Uiso   1.00
H556   H     0.42934   0.49025   0.81472   0.00000  Uiso   1.00
O557   O     0.41842   0.04627   0.84869   0.00000  Uiso   1.00
C558   C     0.43881   0.47429   0.66528   0.00000  Uiso   1.00
H559   H     0.43144   0.00958   0.66599   0.00000  Uiso   1.00
O560   O     0.42179   0.45361   0.62888   0.00000  Uiso   1.00
C561   C     0.83301   0.16494   0.75008   0.00000  Uiso   1.00
C562   C     0.83304   0.33507   0.74985   0.00000  Uiso   1.00
C563   C     0.87333   0.26973   0.55896   0.00000  Uiso   1.00
C564   C     0.80832   0.21644   0.94297   0.00000  Uiso   1.00
C565   C     0.87237   0.26973   0.60957   0.00000  Uiso   1.00
C566   C     0.80850   0.21726   0.89224   0.00000  Uiso   1.00
C567   C     0.79429   0.23024   0.59980   0.00000  Uiso   1.00
C568   C     0.85809   0.28274   0.89831   0.00000  Uiso   1.00
C569   C     0.79332   0.23015   0.54893   0.00000  Uiso   1.00
C570   C     0.85820   0.28355   0.94906   0.00000  Uiso   1.00
C571   C     0.83331   0.24994   0.52732   0.00000  Uiso   1.00
C572   C     0.83327   0.24997   0.97263   0.00000  Uiso   1.00
C573   C     0.73478   0.24934   0.73774   0.00000  Uiso   1.00
C574   C     0.93189   0.25064   0.76226   0.00000  Uiso   1.00
C575   C     0.67986   0.24582   0.73114   0.00000  Uiso   1.00
C576   C     0.98682   0.25411   0.76888   0.00000  Uiso   1.00
C577   C     0.80071   0.04823   0.78342   0.00000  Uiso   1.00
C578   C     0.80181   0.45173   0.70777   0.00000  Uiso   1.00
C579   C     0.80464   0.09453   0.78383   0.00000  Uiso   1.00
C580   C     0.80576   0.40545   0.70837   0.00000  Uiso   1.00
C581   C     0.83094   0.11670   0.75021   0.00000  Uiso   1.00
C582   C     0.83099   0.38333   0.74922   0.00000  Uiso   1.00
C583   C     0.85426   0.09274   0.71627   0.00000  Uiso   1.00
C584   C     0.85319   0.40735   0.78966   0.00000  Uiso   1.00
C585   C     0.85204   0.04680   0.71638   0.00000  Uiso   1.00
C586   C     0.85092   0.45329   0.78904   0.00000  Uiso   1.00
C587   C     0.82519   0.02431   0.74940   0.00000  Uiso   1.00
C588   C     0.82516   0.47571   0.74861   0.00000  Uiso   1.00
Cu589  Cu    0.83333   0.24999   0.79822   0.00000  Uiso   1.00
Cu590  Cu    0.83333   0.25000   0.70179   0.00000  Uiso   1.00
H591   H     0.78600   0.11356   0.80943   0.00000  Uiso   1.00
H592   H     0.78795   0.38641   0.67756   0.00000  Uiso   1.00
H593   H     0.87491   0.10953   0.69025   0.00000  Uiso   1.00
H594   H     0.87298   0.39063   0.82138   0.00000  Uiso   1.00
H595   H     0.87123   0.02858   0.69055   0.00000  Uiso   1.00
H596   H     0.86926   0.47155   0.82021   0.00000  Uiso   1.00
H597   H     0.90573   0.28475   0.54505   0.00000  Uiso   1.00
H598   H     0.78926   0.18921   0.95862   0.00000  Uiso   1.00
H599   H     0.90320   0.28552   0.63302   0.00000  Uiso   1.00
H600   H     0.78881   0.19140   0.87016   0.00000  Uiso   1.00
H601   H     0.76344   0.21453   0.61555   0.00000  Uiso   1.00
H602   H     0.87780   0.30862   0.88106   0.00000  Uiso   1.00
H603   H     0.76092   0.21511   0.52689   0.00000  Uiso   1.00
H604   H     0.87724   0.31077   0.96935   0.00000  Uiso   1.00
N605   N     0.83333   0.25001   0.62935   0.00000  Uiso   1.00
N606   N     0.83333   0.24999   0.87065   0.00000  Uiso   1.00
O607   O     0.83334   0.18572   0.79071   0.00000  Uiso   1.00
O608   O     0.83333   0.31427   0.70929   0.00000  Uiso   1.00
O609   O     0.83334   0.18573   0.70928   0.00000  Uiso   1.00
O610   O     0.83333   0.31427   0.79072   0.00000  Uiso   1.00
O611   O     0.75828   0.24999   0.78132   0.00000  Uiso   1.00
O612   O     0.90839   0.25000   0.71868   0.00000  Uiso   1.00
O613   O     0.75828   0.25000   0.69989   0.00000  Uiso   1.00
O614   O     0.90839   0.25000   0.80012   0.00000  Uiso   1.00
O615   O     0.98889   0.23597   0.68482   0.00000  Uiso   1.00
C616   C     0.99046   0.18971   0.67810   0.00000  Uiso   1.00
H617   H     0.97133   0.17166   0.70582   0.00000  Uiso   1.00
H618   H     0.69709   0.17779   0.67877   0.00000  Uiso   1.00
H619   H     0.96933   0.18174   0.64181   0.00000  Uiso   1.00
O620   O     0.67783   0.26395   0.81519   0.00000  Uiso   1.00
C621   C     0.67583   0.31016   0.82211   0.00000  Uiso   1.00
H622   H     0.96913   0.32172   0.82195   0.00000  Uiso   1.00
H623   H     0.69438   0.32850   0.79420   0.00000  Uiso   1.00
H624   H     0.69728   0.31817   0.85825   0.00000  Uiso   1.00
C625   C     0.76989   0.02559   0.81737   0.00000  Uiso   1.00
H626   H     0.76267   0.49025   0.81472   0.00000  Uiso   1.00
O627   O     0.75175   0.04627   0.84869   0.00000  Uiso   1.00
C628   C     0.77214   0.47429   0.66528   0.00000  Uiso   1.00
H629   H     0.76478   0.00958   0.66599   0.00000  Uiso   1.00
O630   O     0.75513   0.45361   0.62888   0.00000  Uiso   1.00
C631   C     0.16634   0.66494   0.75008   0.00000  Uiso   1.00
C632   C     0.16637   0.83507   0.74985   0.00000  Uiso   1.00
C633   C     0.20666   0.76973   0.55896   0.00000  Uiso   1.00
C634   C     0.14165   0.71644   0.94297   0.00000  Uiso   1.00
C635   C     0.20570   0.76973   0.60957   0.00000  Uiso   1.00
C636   C     0.14183   0.71726   0.89224   0.00000  Uiso   1.00
C637   C     0.12763   0.73024   0.59980   0.00000  Uiso   1.00
C638   C     0.19143   0.78274   0.89831   0.00000  Uiso   1.00
C639   C     0.12666   0.73015   0.54893   0.00000  Uiso   1.00
C640   C     0.19154   0.78355   0.94906   0.00000  Uiso   1.00
C641   C     0.16664   0.74994   0.52732   0.00000  Uiso   1.00
C642   C     0.16661   0.74997   0.97263   0.00000  Uiso   1.00
C643   C     0.06811   0.74934   0.73774   0.00000  Uiso   1.00
C644   C     0.26522   0.75064   0.76226   0.00000  Uiso   1.00
C645   C     0.01319   0.74582   0.73114   0.00000  Uiso   1.00
C646   C     0.32015   0.75411   0.76888   0.00000  Uiso   1.00
C647   C     0.13404   0.54823   0.78342   0.00000  Uiso   1.00
C648   C     0.13514   0.95173   0.70777   0.00000  Uiso   1.00
C649   C     0.13798   0.59453   0.78383   0.00000  Uiso   1.00
C650   C     0.13910   0.90545   0.70837   0.00000  Uiso   1.00
C651   C     0.16427   0.61670   0.75021   0.00000  Uiso   1.00
C652   C     0.16432   0.88333   0.74922   0.00000  Uiso   1.00
C653   C     0.18760   0.59274   0.71627   0.00000  Uiso   1.00
C654   C     0.18652   0.90735   0.78966   0.00000  Uiso   1.00
C655   C     0.18537   0.54680   0.71638   0.00000  Uiso   1.00
C656   C     0.18426   0.95329   0.78904   0.00000  Uiso   1.00
C657   C     0.15852   0.52431   0.74940   0.00000  Uiso   1.00
C658   C     0.15850   0.97571   0.74861   0.00000  Uiso   1.00
Cu659  Cu    0.16667   0.74999   0.79822   0.00000  Uiso   1.00
Cu660  Cu    0.16667   0.75000   0.70179   0.00000  Uiso   1.00
H661   H     0.11934   0.61356   0.80943   0.00000  Uiso   1.00
H662   H     0.12129   0.88641   0.67756   0.00000  Uiso   1.00
H663   H     0.20824   0.60953   0.69025   0.00000  Uiso   1.00
H664   H     0.20631   0.89063   0.82138   0.00000  Uiso   1.00
H665   H     0.20456   0.52858   0.69055   0.00000  Uiso   1.00
H666   H     0.20259   0.97155   0.82021   0.00000  Uiso   1.00
H667   H     0.23907   0.78475   0.54505   0.00000  Uiso   1.00
H668   H     0.12259   0.68921   0.95862   0.00000  Uiso   1.00
H669   H     0.23653   0.78552   0.63302   0.00000  Uiso   1.00
H670   H     0.12215   0.69140   0.87016   0.00000  Uiso   1.00
H671   H     0.09677   0.71453   0.61555   0.00000  Uiso   1.00
H672   H     0.21114   0.80862   0.88106   0.00000  Uiso   1.00
H673   H     0.09425   0.71511   0.52689   0.00000  Uiso   1.00
H674   H     0.21057   0.81077   0.96935   0.00000  Uiso   1.00
N675   N     0.16667   0.75001   0.62935   0.00000  Uiso   1.00
N676   N     0.16667   0.74999   0.87065   0.00000  Uiso   1.00
O677   O     0.16667   0.68572   0.79071   0.00000  Uiso   1.00
O678   O     0.16666   0.81427   0.70929   0.00000  Uiso   1.00
O679   O     0.16667   0.68573   0.70928   0.00000  Uiso   1.00
O680   O     0.16666   0.81427   0.79072   0.00000  Uiso   1.00
O681   O     0.09161   0.74999   0.78132   0.00000  Uiso   1.00
O682   O     0.24172   0.75000   0.71868   0.00000  Uiso   1.00
O683   O     0.09161   0.75000   0.69989   0.00000  Uiso   1.00
O684   O     0.24172   0.75000   0.80012   0.00000  Uiso   1.00
O685   O     0.32222   0.73597   0.68482   0.00000  Uiso   1.00
C686   C     0.32379   0.68971   0.67810   0.00000  Uiso   1.00
H687   H     0.30466   0.67166   0.70582   0.00000  Uiso   1.00
H688   H     0.03042   0.67779   0.67877   0.00000  Uiso   1.00
H689   H     0.30266   0.68174   0.64181   0.00000  Uiso   1.00
O690   O     0.01116   0.76395   0.81519   0.00000  Uiso   1.00
C691   C     0.00916   0.81016   0.82211   0.00000  Uiso   1.00
H692   H     0.30246   0.82172   0.82195   0.00000  Uiso   1.00
H693   H     0.02771   0.82850   0.79420   0.00000  Uiso   1.00
H694   H     0.03061   0.81817   0.85825   0.00000  Uiso   1.00
C695   C     0.10323   0.52559   0.81737   0.00000  Uiso   1.00
H696   H     0.09601   0.99025   0.81472   0.00000  Uiso   1.00
O697   O     0.08509   0.54627   0.84869   0.00000  Uiso   1.00
C698   C     0.10547   0.97429   0.66528   0.00000  Uiso   1.00
H699   H     0.09811   0.50958   0.66599   0.00000  Uiso   1.00
O700   O     0.08846   0.95361   0.62888   0.00000  Uiso   1.00
C701   C     0.49968   0.66494   0.75008   0.00000  Uiso   1.00
C702   C     0.49971   0.83507   0.74985   0.00000  Uiso   1.00
C703   C     0.54000   0.76973   0.55896   0.00000  Uiso   1.00
C704   C     0.47499   0.71644   0.94297   0.00000  Uiso   1.00
C705   C     0.53904   0.76973   0.60957   0.00000  Uiso   1.00
C706   C     0.47516   0.71726   0.89224   0.00000  Uiso   1.00
C707   C     0.46096   0.73024   0.59980   0.00000  Uiso   1.00
C708   C     0.52476   0.78274   0.89831   0.00000  Uiso   1.00
C709   C     0.45999   0.73015   0.54893   0.00000  Uiso   1.00
C710   C     0.52487   0.78355   0.94906   0.00000  Uiso   1.00
C711   C     0.49998   0.74994   0.52732   0.00000  Uiso   1.00
C712   C     0.49994   0.74997   0.97263   0.00000  Uiso   1.00
C713   C     0.40144   0.74934   0.73774   0.00000  Uiso   1.00
C714   C     0.59856   0.75064   0.76226   0.00000  Uiso   1.00
C715   C     0.34653   0.74582   0.73114   0.00000  Uiso   1.00
C716   C     0.65349   0.75411   0.76888   0.00000  Uiso   1.00
C717   C     0.46738   0.54823   0.78342   0.00000  Uiso   1.00
C718   C     0.46848   0.95173   0.70777   0.00000  Uiso   1.00
C719   C     0.47131   0.59453   0.78383   0.00000  Uiso   1.00
C720   C     0.47243   0.90545   0.70837   0.00000  Uiso   1.00
C721   C     0.49761   0.61670   0.75021   0.00000  Uiso   1.00
C722   C     0.49765   0.88333   0.74922   0.00000  Uiso   1.00
C723   C     0.52093   0.59274   0.71627   0.00000  Uiso   1.00
C724   C     0.51985   0.90735   0.78966   0.00000  Uiso   1.00
C725   C     0.51871   0.54680   0.71638   0.00000  Uiso   1.00
C726   C     0.51759   0.95329   0.78904   0.00000  Uiso   1.00
C727   C     0.49186   0.52431   0.74940   0.00000  Uiso   1.00
C728   C     0.49183   0.97571   0.74861   0.00000  Uiso   1.00
Cu729  Cu    0.50000   0.74999   0.79822   0.00000  Uiso   1.00
Cu730  Cu    0.50000   0.75000   0.70179   0.00000  Uiso   1.00
H731   H     0.45267   0.61356   0.80943   0.00000  Uiso   1.00
H732   H     0.45462   0.88641   0.67756   0.00000  Uiso   1.00
H733   H     0.54157   0.60953   0.69025   0.00000  Uiso   1.00
H734   H     0.53965   0.89063   0.82138   0.00000  Uiso   1.00
H735   H     0.53790   0.52858   0.69055   0.00000  Uiso   1.00
H736   H     0.53592   0.97155   0.82021   0.00000  Uiso   1.00
H737   H     0.57240   0.78475   0.54505   0.00000  Uiso   1.00
H738   H     0.45592   0.68921   0.95862   0.00000  Uiso   1.00
H739   H     0.56986   0.78552   0.63302   0.00000  Uiso   1.00
H740   H     0.45548   0.69140   0.87016   0.00000  Uiso   1.00
H741   H     0.43011   0.71453   0.61555   0.00000  Uiso   1.00
H742   H     0.54447   0.80862   0.88106   0.00000  Uiso   1.00
H743   H     0.42758   0.71511   0.52689   0.00000  Uiso   1.00
H744   H     0.54391   0.81077   0.96935   0.00000  Uiso   1.00
N745   N     0.50000   0.75001   0.62935   0.00000  Uiso   1.00
N746   N     0.50000   0.74999   0.87065   0.00000  Uiso   1.00
O747   O     0.50000   0.68572   0.79071   0.00000  Uiso   1.00
O748   O     0.50000   0.81427   0.70929   0.00000  Uiso   1.00
O749   O     0.50000   0.68573   0.70928   0.00000  Uiso   1.00
O750   O     0.50000   0.81427   0.79072   0.00000  Uiso   1.00
O751   O     0.42495   0.74999   0.78132   0.00000  Uiso   1.00
O752   O     0.57505   0.75000   0.71868   0.00000  Uiso   1.00
O753   O     0.42495   0.75000   0.69989   0.00000  Uiso   1.00
O754   O     0.57505   0.75000   0.80012   0.00000  Uiso   1.00
O755   O     0.65556   0.73597   0.68482   0.00000  Uiso   1.00
C756   C     0.65712   0.68971   0.67810   0.00000  Uiso   1.00
H757   H     0.63800   0.67166   0.70582   0.00000  Uiso   1.00
H758   H     0.36375   0.67779   0.67877   0.00000  Uiso   1.00
H759   H     0.63600   0.68174   0.64181   0.00000  Uiso   1.00
O760   O     0.34449   0.76395   0.81519   0.00000  Uiso   1.00
C761   C     0.34250   0.81016   0.82211   0.00000  Uiso   1.00
H762   H     0.63579   0.82172   0.82195   0.00000  Uiso   1.00
H763   H     0.36105   0.82850   0.79420   0.00000  Uiso   1.00
H764   H     0.36395   0.81817   0.85825   0.00000  Uiso   1.00
C765   C     0.43656   0.52559   0.81737   0.00000  Uiso   1.00
H766   H     0.42934   0.99025   0.81472   0.00000  Uiso   1.00
O767   O     0.41842   0.54627   0.84869   0.00000  Uiso   1.00
C768   C     0.43881   0.97429   0.66528   0.00000  Uiso   1.00
H769   H     0.43144   0.50958   0.66599   0.00000  Uiso   1.00
O770   O     0.42179   0.95361   0.62888   0.00000  Uiso   1.00
C771   C     0.83301   0.66494   0.75008   0.00000  Uiso   1.00
C772   C     0.83304   0.83507   0.74985   0.00000  Uiso   1.00
C773   C     0.87333   0.76973   0.55896   0.00000  Uiso   1.00
C774   C     0.80832   0.71644   0.94297   0.00000  Uiso   1.00
C775   C     0.87237   0.76973   0.60957   0.00000  Uiso   1.00
C776   C     0.80850   0.71726   0.89224   0.00000  Uiso   1.00
C777   C     0.79429   0.73024   0.59980   0.00000  Uiso   1.00
C778   C     0.85809   0.78274   0.89831   0.00000  Uiso   1.00
C779   C     0.79332   0.73015   0.54893   0.00000  Uiso   1.00
C780   C     0.85820   0.78355   0.94906   0.00000  Uiso   1.00
C781   C     0.83331   0.74994   0.52732   0.00000  Uiso   1.00
C782   C     0.83327   0.74997   0.97263   0.00000  Uiso   1.00
C783   C     0.73478   0.74934   0.73774   0.00000  Uiso   1.00
C784   C     0.93189   0.75064   0.76226   0.00000  Uiso   1.00
C785   C     0.67986   0.74582   0.73114   0.00000  Uiso   1.00
C786   C     0.98682   0.75411   0.76888   0.00000  Uiso   1.00
C787   C     0.80071   0.54823   0.78342   0.00000  Uiso   1.00
C788   C     0.80181   0.95173   0.70777   0.00000  Uiso   1.00
C789   C     0.80464   0.59453   0.78383   0.00000  Uiso   1.00
C790   C     0.80576   0.90545   0.70837   0.00000  Uiso   1.00
C791   C     0.83094   0.61670   0.75021   0.00000  Uiso   1.00
C792   C     0.83099   0.88333   0.74922   0.00000  Uiso   1.00
C793   C     0.85426   0.59274   0.71627   0.00000  Uiso   1.00
C794   C     0.85319   0.90735   0.78966   0.00000  Uiso   1.00
C795   C     0.85204   0.54680   0.71638   0.00000  Uiso   1.00
C796   C     0.85092   0.95329   0.78904   0.00000  Uiso   1.00
C797   C     0.82519   0.52431   0.74940   0.00000  Uiso   1.00
C798   C     0.82516   0.97571   0.74861   0.00000  Uiso   1.00
Cu799  Cu    0.83333   0.74999   0.79822   0.00000  Uiso   1.00
Cu800  Cu    0.83333   0.75000   0.70179   0.00000  Uiso   1.00
H801   H     0.78600   0.61356   0.80943   0.00000  Uiso   1.00
H802   H     0.78795   0.88641   0.67756   0.00000  Uiso   1.00
H803   H     0.87491   0.60953   0.69025   0.00000  Uiso   1.00
H804   H     0.87298   0.89063   0.82138   0.00000  Uiso   1.00
H805   H     0.87123   0.52858   0.69055   0.00000  Uiso   1.00
H806   H     0.86926   0.97155   0.82021   0.00000  Uiso   1.00
H807   H     0.90573   0.78475   0.54505   0.00000  Uiso   1.00
H808   H     0.78926   0.68921   0.95862   0.00000  Uiso   1.00
H809   H     0.90320   0.78552   0.63302   0.00000  Uiso   1.00
H810   H     0.78881   0.69140   0.87016   0.00000  Uiso   1.00
H811   H     0.76344   0.71453   0.61555   0.00000  Uiso   1.00
H812   H     0.87780   0.80862   0.88106   0.00000  Uiso   1.00
H813   H     0.76092   0.71511   0.52689   0.00000  Uiso   1.00
H814   H     0.87724   0.81077   0.96935   0.00000  Uiso   1.00
N815   N     0.83333   0.75001   0.62935   0.00000  Uiso   1.00
N816   N     0.83333   0.74999   0.87065   0.00000  Uiso   1.00
O817   O     0.83334   0.68572   0.79071   0.00000  Uiso   1.00
O818   O     0.83333   0.81427   0.70929   0.00000  Uiso   1.00
O819   O     0.83334   0.68573   0.70928   0.00000  Uiso   1.00
O820   O     0.83333   0.81427   0.79072   0.00000  Uiso   1.00
O821   O     0.75828   0.74999   0.78132   0.00000  Uiso   1.00
O822   O     0.90839   0.75000   0.71868   0.00000  Uiso   1.00
O823   O     0.75828   0.75000   0.69989   0.00000  Uiso   1.00
O824   O     0.90839   0.75000   0.80012   0.00000  Uiso   1.00
O825   O     0.98889   0.73597   0.68482   0.00000  Uiso   1.00
C826   C     0.99046   0.68971   0.67810   0.00000  Uiso   1.00
H827   H     0.97133   0.67166   0.70582   0.00000  Uiso   1.00
H828   H     0.69709   0.67779   0.67877   0.00000  Uiso   1.00
H829   H     0.96933   0.68174   0.64181   0.00000  Uiso   1.00
O830   O     0.67783   0.76395   0.81519   0.00000  Uiso   1.00
C831   C     0.67583   0.81016   0.82211   0.00000  Uiso   1.00
H832   H     0.96913   0.82172   0.82195   0.00000  Uiso   1.00
H833   H     0.69438   0.82850   0.79420   0.00000  Uiso   1.00
H834   H     0.69728   0.81817   0.85825   0.00000  Uiso   1.00
C835   C     0.76989   0.52559   0.81737   0.00000  Uiso   1.00
H836   H     0.76267   0.99025   0.81472   0.00000  Uiso   1.00
O837   O     0.75175   0.54627   0.84869   0.00000  Uiso   1.00
C838   C     0.77214   0.97429   0.66528   0.00000  Uiso   1.00
H839   H     0.76478   0.50958   0.66599   0.00000  Uiso   1.00
O840   O     0.75513   0.95361   0.62888   0.00000  Uiso   1.00
loop_
_geom_bond_atom_site_label_1
_geom_bond_atom_site_label_2
_geom_bond_distance
_geom_bond_site_symmetry_2
_ccdc_geom_bond_type
C1     C21     1.457   .     S
C1     O47     1.291   .     A
C1     O49     1.292   .     A
C2     C22     1.458   .     S
C2     O50     1.292   .     A
C2     O48     1.291   .     A
C3     C5      1.407   .     A
C3     C11     1.411   .     A
C3     H37     1.081   .     S
C4     C12     1.411   .     A
C4     C6      1.407   .     A
C4     H38     1.081   .     S
C5     N45     1.364   .     A
C5     H39     1.081   .     S
C6     H40     1.082   .     S
C6     N46     1.364   .     A
C7     N45     1.364   .     A
C7     C9      1.407   .     A
C7     H41     1.081   .     S
C8     H42     1.082   .     S
C8     C10     1.407   .     A
C8     N46     1.364   .     A
C9     C11     1.411   .     A
C9     H43     1.081   .     S
C10    C12     1.411   .     A
C10    H44     1.081   .     S
C11    C432    1.516   1_554 S
C12    C431    1.516   .     S
C13    O51     1.281   .     A
C13    O53     1.289   .     A
C13    C15     1.439   .     S
C14    O52     1.281   .     A
C14    O54     1.289   .     A
C14    C16     1.439   .     S
C15    C156    1.357   1_455 S
C15    O195    1.388   1_455 S
C16    C85     1.357   .     S
C16    O130    1.389   .     S
C17    C65     1.487   .     S
C17    C27     1.415   .     A
C17    C19     1.401   .     A
C18    C28     1.415   .     A
C18    C68     1.487   .     S
C18    C20     1.401   .     A
C19    H31     1.084   .     S
C19    C21     1.401   .     A
C20    C22     1.401   .     A
C20    H32     1.084   .     S
C21    C23     1.397   .     A
C22    C24     1.398   .     A
C23    C25     1.388   .     A
C23    H33     1.084   .     S
C24    H34     1.084   .     S
C24    C26     1.388   .     A
C25    H35     1.084   .     S
C25    C27     1.402   .     A
C26    C28     1.402   .     A
C26    H36     1.084   .     S
C27    C238    1.467   1_545 S
C28    C237    1.467   .     S
Cu29   Cu30    2.673   .     S
Cu29   N46     2.008   .     S
Cu29   O47     1.952   .     S
Cu29   O50     1.950   .     S
Cu29   O51     1.972   .     S
Cu29   O54     1.973   .     S
Cu30   N45     2.008   .     S
Cu30   O49     1.950   .     S
Cu30   O53     1.973   .     S
Cu30   O48     1.952   .     S
Cu30   O52     1.972   .     S
O55    C56     1.411   .     S
O55    C85     1.388   .     S
C56    H59     1.109   .     S
C56    H57     1.114   .     S
C56    H128    1.113   .     S
H58    C196    1.113   1_455 S
O60    C61     1.411   .     S
O60    C156    1.389   1_455 S
C61    H64     1.109   .     S
C61    H63     1.114   .     S
C61    H202    1.113   1_455 S
H62    C131    1.113   .     S
C65    O67     1.221   .     D
C65    H276    1.084   1_545 S
H66    C275    1.084   .     S
C68    O70     1.221   .     D
C68    H279    1.084   .     S
H69    C278    1.084   1_545 S
C71    C91     1.457   .     S
C71    O117    1.291   .     A
C71    O119    1.292   .     A
C72    C92     1.458   .     S
C72    O120    1.292   .     A
C72    O118    1.291   .     A
C73    C75     1.407   .     A
C73    C81     1.411   .     A
C73    H107    1.081   .     S
C74    C82     1.411   .     A
C74    C76     1.407   .     A
C74    H108    1.081   .     S
C75    N115    1.364   .     A
C75    H109    1.081   .     S
C76    H110    1.082   .     S
C76    N116    1.364   .     A
C77    N115    1.364   .     A
C77    C79     1.407   .     A
C77    H111    1.081   .     S
C78    H112    1.082   .     S
C78    C80     1.407   .     A
C78    N116    1.364   .     A
C79    C81     1.411   .     A
C79    H113    1.081   .     S
C80    C82     1.411   .     A
C80    H114    1.081   .     S
C81    C502    1.516   1_554 S
C82    C501    1.516   .     S
C83    O121    1.281   .     A
C83    O123    1.289   .     A
C83    C85     1.439   .     S
C84    O122    1.281   .     A
C84    O124    1.289   .     A
C84    C86     1.439   .     S
C86    C155    1.357   .     S
C86    O200    1.389   .     S
C87    C135    1.487   .     S
C87    C97     1.415   .     A
C87    C89     1.401   .     A
C88    C98     1.415   .     A
C88    C138    1.487   .     S
C88    C90     1.401   .     A
C89    H101    1.084   .     S
C89    C91     1.401   .     A
C90    C92     1.401   .     A
C90    H102    1.084   .     S
C91    C93     1.397   .     A
C92    C94     1.398   .     A
C93    C95     1.388   .     A
C93    H103    1.084   .     S
C94    H104    1.084   .     S
C94    C96     1.388   .     A
C95    H105    1.084   .     S
C95    C97     1.402   .     A
C96    C98     1.402   .     A
C96    H106    1.084   .     S
C97    C308    1.467   1_545 S
C98    C307    1.467   .     S
Cu99   Cu100   2.673   .     S
Cu99   N116    2.008   .     S
Cu99   O117    1.952   .     S
Cu99   O120    1.950   .     S
Cu99   O121    1.972   .     S
Cu99   O124    1.973   .     S
Cu100  N115    2.008   .     S
Cu100  O119    1.950   .     S
Cu100  O123    1.973   .     S
Cu100  O118    1.952   .     S
Cu100  O122    1.972   .     S
O125   C126    1.411   .     S
O125   C155    1.388   .     S
C126   H129    1.109   .     S
C126   H127    1.114   .     S
C126   H198    1.113   .     S
O130   C131    1.411   .     S
C131   H134    1.109   .     S
C131   H133    1.114   .     S
H132   C201    1.113   .     S
C135   O137    1.221   .     D
C135   H346    1.084   1_545 S
H136   C345    1.084   .     S
C138   O140    1.221   .     D
C138   H349    1.084   .     S
H139   C348    1.084   1_545 S
C141   C161    1.457   .     S
C141   O187    1.291   .     A
C141   O189    1.292   .     A
C142   C162    1.458   .     S
C142   O190    1.292   .     A
C142   O188    1.291   .     A
C143   C145    1.407   .     A
C143   C151    1.411   .     A
C143   H177    1.081   .     S
C144   C152    1.411   .     A
C144   C146    1.407   .     A
C144   H178    1.081   .     S
C145   N185    1.364   .     A
C145   H179    1.081   .     S
C146   H180    1.082   .     S
C146   N186    1.364   .     A
C147   N185    1.364   .     A
C147   C149    1.407   .     A
C147   H181    1.081   .     S
C148   H182    1.082   .     S
C148   C150    1.407   .     A
C148   N186    1.364   .     A
C149   C151    1.411   .     A
C149   H183    1.081   .     S
C150   C152    1.411   .     A
C150   H184    1.081   .     S
C151   C572    1.516   1_554 S
C152   C571    1.516   .     S
C153   O191    1.281   .     A
C153   O193    1.289   .     A
C153   C155    1.439   .     S
C154   O192    1.281   .     A
C154   O194    1.289   .     A
C154   C156    1.439   .     S
C156   C15     1.357   1_655 S
C156   O60     1.389   1_655 S
C157   C205    1.487   .     S
C157   C167    1.415   .     A
C157   C159    1.401   .     A
C158   C168    1.415   .     A
C158   C208    1.487   .     S
C158   C160    1.401   .     A
C159   H171    1.084   .     S
C159   C161    1.401   .     A
C160   C162    1.401   .     A
C160   H172    1.084   .     S
C161   C163    1.397   .     A
C162   C164    1.398   .     A
C163   C165    1.388   .     A
C163   H173    1.084   .     S
C164   H174    1.084   .     S
C164   C166    1.388   .     A
C165   H175    1.084   .     S
C165   C167    1.402   .     A
C166   C168    1.402   .     A
C166   H176    1.084   .     S
C167   C378    1.467   1_545 S
C168   C377    1.467   .     S
Cu169  Cu170   2.673   .     S
Cu169  N186    2.008   .     S
Cu169  O187    1.952   .     S
Cu169  O190    1.950   .     S
Cu169  O191    1.972   .     S
Cu169  O194    1.973   .     S
Cu170  N185    2.008   .     S
Cu170  O189    1.950   .     S
Cu170  O193    1.973   .     S
Cu170  O188    1.952   .     S
Cu170  O192    1.972   .     S
O195   C196    1.411   .     S
O195   C15     1.388   1_655 S
C196   H199    1.109   .     S
C196   H197    1.114   .     S
C196   H58     1.113   1_655 S
O200   C201    1.411   .     S
C201   H204    1.109   .     S
C201   H203    1.114   .     S
H202   C61     1.113   1_655 S
C205   O207    1.221   .     D
C205   H416    1.084   1_545 S
H206   C415    1.084   .     S
C208   O210    1.221   .     D
C208   H419    1.084   .     S
H209   C418    1.084   1_545 S
C211   C231    1.457   .     S
C211   O257    1.291   .     A
C211   O259    1.292   .     A
C212   C232    1.458   .     S
C212   O260    1.292   .     A
C212   O258    1.291   .     A
C213   C215    1.407   .     A
C213   C221    1.411   .     A
C213   H247    1.081   .     S
C214   C222    1.411   .     A
C214   C216    1.407   .     A
C214   H248    1.081   .     S
C215   N255    1.364   .     A
C215   H249    1.081   .     S
C216   H250    1.082   .     S
C216   N256    1.364   .     A
C217   N255    1.364   .     A
C217   C219    1.407   .     A
C217   H251    1.081   .     S
C218   H252    1.082   .     S
C218   C220    1.407   .     A
C218   N256    1.364   .     A
C219   C221    1.411   .     A
C219   H253    1.081   .     S
C220   C222    1.411   .     A
C220   H254    1.081   .     S
C221   C642    1.516   1_554 S
C222   C641    1.516   .     S
C223   O261    1.281   .     A
C223   O263    1.289   .     A
C223   C225    1.439   .     S
C224   O262    1.281   .     A
C224   O264    1.289   .     A
C224   C226    1.439   .     S
C225   C366    1.357   1_455 S
C225   O405    1.388   1_455 S
C226   C295    1.357   .     S
C226   O340    1.389   .     S
C227   C275    1.487   .     S
C227   C237    1.415   .     A
C227   C229    1.401   .     A
C228   C238    1.415   .     A
C228   C278    1.487   .     S
C228   C230    1.401   .     A
C229   H241    1.084   .     S
C229   C231    1.401   .     A
C230   C232    1.401   .     A
C230   H242    1.084   .     S
C231   C233    1.397   .     A
C232   C234    1.398   .     A
C233   C235    1.388   .     A
C233   H243    1.084   .     S
C234   H244    1.084   .     S
C234   C236    1.388   .     A
C235   H245    1.084   .     S
C235   C237    1.402   .     A
C236   C238    1.402   .     A
C236   H246    1.084   .     S
C238   C27     1.467   1_565 S
Cu239  Cu240   2.673   .     S
Cu239  N256    2.008   .     S
Cu239  O257    1.952   .     S
Cu239  O260    1.950   .     S
Cu239  O261    1.972   .     S
Cu239  O264    1.973   .     S
Cu240  N255    2.008   .     S
Cu240  O259    1.950   .     S
Cu240  O263    1.973   .     S
Cu240  O258    1.952   .     S
Cu240  O262    1.972   .     S
O265   C266    1.411   .     S
O265   C295    1.388   .     S
C266   H269    1.109   .     S
C266   H267    1.114   .     S
C266   H338    1.113   .     S
H268   C406    1.113   1_455 S
O270   C271    1.411   .     S
O270   C366    1.389   1_455 S
C271   H274    1.109   .     S
C271   H273    1.114   .     S
C271   H412    1.113   1_455 S
H272   C341    1.113   .     S
C275   O277    1.221   .     D
H276   C65     1.084   1_565 S
C278   O280    1.221   .     D
C278   H69     1.084   1_565 S
C281   C301    1.457   .     S
C281   O327    1.291   .     A
C281   O329    1.292   .     A
C282   C302    1.458   .     S
C282   O330    1.292   .     A
C282   O328    1.291   .     A
C283   C285    1.407   .     A
C283   C291    1.411   .     A
C283   H317    1.081   .     S
C284   C292    1.411   .     A
C284   C286    1.407   .     A
C284   H318    1.081   .     S
C285   N325    1.364   .     A
C285   H319    1.081   .     S
C286   H320    1.082   .     S
C286   N326    1.364   .     A
C287   N325    1.364   .     A
C287   C289    1.407   .     A
C287   H321    1.081   .     S
C288   H322    1.082   .     S
C288   C290    1.407   .     A
C288   N326    1.364   .     A
C289   C291    1.411   .     A
C289   H323    1.081   .     S
C290   C292    1.411   .     A
C290   H324    1.081   .     S
C291   C712    1.516   1_554 S
C292   C711    1.516   .     S
C293   O331    1.281   .     A
C293   O333    1.289   .     A
C293   C295    1.439   .     S
C294   O332    1.281   .     A
C294   O334    1.289   .     A
C294   C296    1.439   .     S
C296   C365    1.357   .     S
C296   O410    1.389   .     S
C297   C345    1.487   .     S
C297   C307    1.415   .     A
C297   C299    1.401   .     A
C298   C308    1.415   .     A
C298   C348    1.487   .     S
C298   C300    1.401   .     A
C299   H311    1.084   .     S
C299   C301    1.401   .     A
C300   C302    1.401   .     A
C300   H312    1.084   .     S
C301   C303    1.397   .     A
C302   C304    1.398   .     A
C303   C305    1.388   .     A
C303   H313    1.084   .     S
C304   H314    1.084   .     S
C304   C306    1.388   .     A
C305   H315    1.084   .     S
C305   C307    1.402   .     A
C306   C308    1.402   .     A
C306   H316    1.084   .     S
C308   C97     1.467   1_565 S
Cu309  Cu310   2.673   .     S
Cu309  N326    2.008   .     S
Cu309  O327    1.952   .     S
Cu309  O330    1.950   .     S
Cu309  O331    1.972   .     S
Cu309  O334    1.973   .     S
Cu310  N325    2.008   .     S
Cu310  O329    1.950   .     S
Cu310  O333    1.973   .     S
Cu310  O328    1.952   .     S
Cu310  O332    1.972   .     S
O335   C336    1.411   .     S
O335   C365    1.388   .     S
C336   H339    1.109   .     S
C336   H337    1.114   .     S
C336   H408    1.113   .     S
O340   C341    1.411   .     S
C341   H344    1.109   .     S
C341   H343    1.114   .     S
H342   C411    1.113   .     S
C345   O347    1.221   .     D
H346   C135    1.084   1_565 S
C348   O350    1.221   .     D
C348   H139    1.084   1_565 S
C351   C371    1.457   .     S
C351   O397    1.291   .     A
C351   O399    1.292   .     A
C352   C372    1.458   .     S
C352   O400    1.292   .     A
C352   O398    1.291   .     A
C353   C355    1.407   .     A
C353   C361    1.411   .     A
C353   H387    1.081   .     S
C354   C362    1.411   .     A
C354   C356    1.407   .     A
C354   H388    1.081   .     S
C355   N395    1.364   .     A
C355   H389    1.081   .     S
C356   H390    1.082   .     S
C356   N396    1.364   .     A
C357   N395    1.364   .     A
C357   C359    1.407   .     A
C357   H391    1.081   .     S
C358   H392    1.082   .     S
C358   C360    1.407   .     A
C358   N396    1.364   .     A
C359   C361    1.411   .     A
C359   H393    1.081   .     S
C360   C362    1.411   .     A
C360   H394    1.081   .     S
C361   C782    1.516   1_554 S
C362   C781    1.516   .     S
C363   O401    1.281   .     A
C363   O403    1.289   .     A
C363   C365    1.439   .     S
C364   O402    1.281   .     A
C364   O404    1.289   .     A
C364   C366    1.439   .     S
C366   C225    1.357   1_655 S
C366   O270    1.389   1_655 S
C367   C415    1.487   .     S
C367   C377    1.415   .     A
C367   C369    1.401   .     A
C368   C378    1.415   .     A
C368   C418    1.487   .     S
C368   C370    1.401   .     A
C369   H381    1.084   .     S
C369   C371    1.401   .     A
C370   C372    1.401   .     A
C370   H382    1.084   .     S
C371   C373    1.397   .     A
C372   C374    1.398   .     A
C373   C375    1.388   .     A
C373   H383    1.084   .     S
C374   H384    1.084   .     S
C374   C376    1.388   .     A
C375   H385    1.084   .     S
C375   C377    1.402   .     A
C376   C378    1.402   .     A
C376   H386    1.084   .     S
C378   C167    1.467   1_565 S
Cu379  Cu380   2.673   .     S
Cu379  N396    2.008   .     S
Cu379  O397    1.952   .     S
Cu379  O400    1.950   .     S
Cu379  O401    1.972   .     S
Cu379  O404    1.973   .     S
Cu380  N395    2.008   .     S
Cu380  O399    1.950   .     S
Cu380  O403    1.973   .     S
Cu380  O398    1.952   .     S
Cu380  O402    1.972   .     S
O405   C406    1.411   .     S
O405   C225    1.388   1_655 S
C406   H409    1.109   .     S
C406   H407    1.114   .     S
C406   H268    1.113   1_655 S
O410   C411    1.411   .     S
C411   H414    1.109   .     S
C411   H413    1.114   .     S
H412   C271    1.113   1_655 S
C415   O417    1.221   .     D
H416   C205    1.084   1_565 S
C418   O420    1.221   .     D
C418   H209    1.084   1_565 S
C421   C441    1.457   .     S
C421   O467    1.291   .     A
C421   O469    1.292   .     A
C422   C442    1.458   .     S
C422   O470    1.292   .     A
C422   O468    1.291   .     A
C423   C425    1.407   .     A
C423   C431    1.411   .     A
C423   H457    1.081   .     S
C424   C432    1.411   .     A
C424   C426    1.407   .     A
C424   H458    1.081   .     S
C425   N465    1.364   .     A
C425   H459    1.081   .     S
C426   H460    1.082   .     S
C426   N466    1.364   .     A
C427   N465    1.364   .     A
C427   C429    1.407   .     A
C427   H461    1.081   .     S
C428   H462    1.082   .     S
C428   C430    1.407   .     A
C428   N466    1.364   .     A
C429   C431    1.411   .     A
C429   H463    1.081   .     S
C430   C432    1.411   .     A
C430   H464    1.081   .     S
C432   C11     1.516   1_556 S
C433   O471    1.281   .     A
C433   O473    1.289   .     A
C433   C435    1.439   .     S
C434   O472    1.281   .     A
C434   O474    1.289   .     A
C434   C436    1.439   .     S
C435   C576    1.357   1_455 S
C435   O615    1.388   1_455 S
C436   C505    1.357   .     S
C436   O550    1.389   .     S
C437   C485    1.487   .     S
C437   C447    1.415   .     A
C437   C439    1.401   .     A
C438   C448    1.415   .     A
C438   C488    1.487   .     S
C438   C440    1.401   .     A
C439   H451    1.084   .     S
C439   C441    1.401   .     A
C440   C442    1.401   .     A
C440   H452    1.084   .     S
C441   C443    1.397   .     A
C442   C444    1.398   .     A
C443   C445    1.388   .     A
C443   H453    1.084   .     S
C444   H454    1.084   .     S
C444   C446    1.388   .     A
C445   H455    1.084   .     S
C445   C447    1.402   .     A
C446   C448    1.402   .     A
C446   H456    1.084   .     S
C447   C658    1.467   1_545 S
C448   C657    1.467   .     S
Cu449  Cu450   2.673   .     S
Cu449  N466    2.008   .     S
Cu449  O467    1.952   .     S
Cu449  O470    1.950   .     S
Cu449  O471    1.972   .     S
Cu449  O474    1.973   .     S
Cu450  N465    2.008   .     S
Cu450  O469    1.950   .     S
Cu450  O473    1.973   .     S
Cu450  O468    1.952   .     S
Cu450  O472    1.972   .     S
O475   C476    1.411   .     S
O475   C505    1.388   .     S
C476   H479    1.109   .     S
C476   H477    1.114   .     S
C476   H548    1.113   .     S
H478   C616    1.113   1_455 S
O480   C481    1.411   .     S
O480   C576    1.389   1_455 S
C481   H484    1.109   .     S
C481   H483    1.114   .     S
C481   H622    1.113   1_455 S
H482   C551    1.113   .     S
C485   O487    1.221   .     D
C485   H696    1.084   1_545 S
H486   C695    1.084   .     S
C488   O490    1.221   .     D
C488   H699    1.084   .     S
H489   C698    1.084   1_545 S
C491   C511    1.457   .     S
C491   O537    1.291   .     A
C491   O539    1.292   .     A
C492   C512    1.458   .     S
C492   O540    1.292   .     A
C492   O538    1.291   .     A
C493   C495    1.407   .     A
C493   C501    1.411   .     A
C493   H527    1.081   .     S
C494   C502    1.411   .     A
C494   C496    1.407   .     A
C494   H528    1.081   .     S
C495   N535    1.364   .     A
C495   H529    1.081   .     S
C496   H530    1.082   .     S
C496   N536    1.364   .     A
C497   N535    1.364   .     A
C497   C499    1.407   .     A
C497   H531    1.081   .     S
C498   H532    1.082   .     S
C498   C500    1.407   .     A
C498   N536    1.364   .     A
C499   C501    1.411   .     A
C499   H533    1.081   .     S
C500   C502    1.411   .     A
C500   H534    1.081   .     S
C502   C81     1.516   1_556 S
C503   O541    1.281   .     A
C503   O543    1.289   .     A
C503   C505    1.439   .     S
C504   O542    1.281   .     A
C504   O544    1.289   .     A
C504   C506    1.439   .     S
C506   C575    1.357   .     S
C506   O620    1.389   .     S
C507   C555    1.487   .     S
C507   C517    1.415   .     A
C507   C509    1.401   .     A
C508   C518    1.415   .     A
C508   C558    1.487   .     S
C508   C510    1.401   .     A
C509   H521    1.084   .     S
C509   C511    1.401   .     A
C510   C512    1.401   .     A
C510   H522    1.084   .     S
C511   C513    1.397   .     A
C512   C514    1.398   .     A
C513   C515    1.388   .     A
C513   H523    1.084   .     S
C514   H524    1.084   .     S
C514   C516    1.388   .     A
C515   H525    1.084   .     S
C515   C517    1.402   .     A
C516   C518    1.402   .     A
C516   H526    1.084   .     S
C517   C728    1.467   1_545 S
C518   C727    1.467   .     S
Cu519  Cu520   2.673   .     S
Cu519  N536    2.008   .     S
Cu519  O537    1.952   .     S
Cu519  O540    1.950   .     S
Cu519  O541    1.972   .     S
Cu519  O544    1.973   .     S
Cu520  N535    2.008   .     S
Cu520  O539    1.950   .     S
Cu520  O543    1.973   .     S
Cu520  O538    1.952   .     S
Cu520  O542    1.972   .     S
O545   C546    1.411   .     S
O545   C575    1.388   .     S
C546   H549    1.109   .     S
C546   H547    1.114   .     S
C546   H618    1.113   .     S
O550   C551    1.411   .     S
C551   H554    1.109   .     S
C551   H553    1.114   .     S
H552   C621    1.113   .     S
C555   O557    1.221   .     D
C555   H766    1.084   1_545 S
H556   C765    1.084   .     S
C558   O560    1.221   .     D
C558   H769    1.084   .     S
H559   C768    1.084   1_545 S
C561   C581    1.457   .     S
C561   O607    1.291   .     A
C561   O609    1.292   .     A
C562   C582    1.458   .     S
C562   O610    1.292   .     A
C562   O608    1.291   .     A
C563   C565    1.407   .     A
C563   C571    1.411   .     A
C563   H597    1.081   .     S
C564   C572    1.411   .     A
C564   C566    1.407   .     A
C564   H598    1.081   .     S
C565   N605    1.364   .     A
C565   H599    1.081   .     S
C566   H600    1.082   .     S
C566   N606    1.364   .     A
C567   N605    1.364   .     A
C567   C569    1.407   .     A
C567   H601    1.081   .     S
C568   H602    1.082   .     S
C568   C570    1.407   .     A
C568   N606    1.364   .     A
C569   C571    1.411   .     A
C569   H603    1.081   .     S
C570   C572    1.411   .     A
C570   H604    1.081   .     S
C572   C151    1.516   1_556 S
C573   O611    1.281   .     A
C573   O613    1.289   .     A
C573   C575    1.439   .     S
C574   O612    1.281   .     A
C574   O614    1.289   .     A
C574   C576    1.439   .     S
C576   C435    1.357   1_655 S
C576   O480    1.389   1_655 S
C577   C625    1.487   .     S
C577   C587    1.415   .     A
C577   C579    1.401   .     A
C578   C588    1.415   .     A
C578   C628    1.487   .     S
C578   C580    1.401   .     A
C579   H591    1.084   .     S
C579   C581    1.401   .     A
C580   C582    1.401   .     A
C580   H592    1.084   .     S
C581   C583    1.397   .     A
C582   C584    1.398   .     A
C583   C585    1.388   .     A
C583   H593    1.084   .     S
C584   H594    1.084   .     S
C584   C586    1.388   .     A
C585   H595    1.084   .     S
C585   C587    1.402   .     A
C586   C588    1.402   .     A
C586   H596    1.084   .     S
C587   C798    1.467   1_545 S
C588   C797    1.467   .     S
Cu589  Cu590   2.673   .     S
Cu589  N606    2.008   .     S
Cu589  O607    1.952   .     S
Cu589  O610    1.950   .     S
Cu589  O611    1.972   .     S
Cu589  O614    1.973   .     S
Cu590  N605    2.008   .     S
Cu590  O609    1.950   .     S
Cu590  O613    1.973   .     S
Cu590  O608    1.952   .     S
Cu590  O612    1.972   .     S
O615   C616    1.411   .     S
O615   C435    1.388   1_655 S
C616   H619    1.109   .     S
C616   H617    1.114   .     S
C616   H478    1.113   1_655 S
O620   C621    1.411   .     S
C621   H624    1.109   .     S
C621   H623    1.114   .     S
H622   C481    1.113   1_655 S
C625   O627    1.221   .     D
C625   H836    1.084   1_545 S
H626   C835    1.084   .     S
C628   O630    1.221   .     D
C628   H839    1.084   .     S
H629   C838    1.084   1_545 S
C631   C651    1.457   .     S
C631   O677    1.291   .     A
C631   O679    1.292   .     A
C632   C652    1.458   .     S
C632   O680    1.292   .     A
C632   O678    1.291   .     A
C633   C635    1.407   .     A
C633   C641    1.411   .     A
C633   H667    1.081   .     S
C634   C642    1.411   .     A
C634   C636    1.407   .     A
C634   H668    1.081   .     S
C635   N675    1.364   .     A
C635   H669    1.081   .     S
C636   H670    1.082   .     S
C636   N676    1.364   .     A
C637   N675    1.364   .     A
C637   C639    1.407   .     A
C637   H671    1.081   .     S
C638   H672    1.082   .     S
C638   C640    1.407   .     A
C638   N676    1.364   .     A
C639   C641    1.411   .     A
C639   H673    1.081   .     S
C640   C642    1.411   .     A
C640   H674    1.081   .     S
C642   C221    1.516   1_556 S
C643   O681    1.281   .     A
C643   O683    1.289   .     A
C643   C645    1.439   .     S
C644   O682    1.281   .     A
C644   O684    1.289   .     A
C644   C646    1.439   .     S
C645   C786    1.357   1_455 S
C645   O825    1.388   1_455 S
C646   C715    1.357   .     S
C646   O760    1.389   .     S
C647   C695    1.487   .     S
C647   C657    1.415   .     A
C647   C649    1.401   .     A
C648   C658    1.415   .     A
C648   C698    1.487   .     S
C648   C650    1.401   .     A
C649   H661    1.084   .     S
C649   C651    1.401   .     A
C650   C652    1.401   .     A
C650   H662    1.084   .     S
C651   C653    1.397   .     A
C652   C654    1.398   .     A
C653   C655    1.388   .     A
C653   H663    1.084   .     S
C654   H664    1.084   .     S
C654   C656    1.388   .     A
C655   H665    1.084   .     S
C655   C657    1.402   .     A
C656   C658    1.402   .     A
C656   H666    1.084   .     S
C658   C447    1.467   1_565 S
Cu659  Cu660   2.673   .     S
Cu659  N676    2.008   .     S
Cu659  O677    1.952   .     S
Cu659  O680    1.950   .     S
Cu659  O681    1.972   .     S
Cu659  O684    1.973   .     S
Cu660  N675    2.008   .     S
Cu660  O679    1.950   .     S
Cu660  O683    1.973   .     S
Cu660  O678    1.952   .     S
Cu660  O682    1.972   .     S
O685   C686    1.411   .     S
O685   C715    1.388   .     S
C686   H689    1.109   .     S
C686   H687    1.114   .     S
C686   H758    1.113   .     S
H688   C826    1.113   1_455 S
O690   C691    1.411   .     S
O690   C786    1.389   1_455 S
C691   H694    1.109   .     S
C691   H693    1.114   .     S
C691   H832    1.113   1_455 S
H692   C761    1.113   .     S
C695   O697    1.221   .     D
H696   C485    1.084   1_565 S
C698   O700    1.221   .     D
C698   H489    1.084   1_565 S
C701   C721    1.457   .     S
C701   O747    1.291   .     A
C701   O749    1.292   .     A
C702   C722    1.458   .     S
C702   O750    1.292   .     A
C702   O748    1.291   .     A
C703   C705    1.407   .     A
C703   C711    1.411   .     A
C703   H737    1.081   .     S
C704   C712    1.411   .     A
C704   C706    1.407   .     A
C704   H738    1.081   .     S
C705   N745    1.364   .     A
C705   H739    1.081   .     S
C706   H740    1.082   .     S
C706   N746    1.364   .     A
C707   N745    1.364   .     A
C707   C709    1.407   .     A
C707   H741    1.081   .     S
C708   H742    1.082   .     S
C708   C710    1.407   .     A
C708   N746    1.364   .     A
C709   C711    1.411   .     A
C709   H743    1.081   .     S
C710   C712    1.411   .     A
C710   H744    1.081   .     S
C712   C291    1.516   1_556 S
C713   O751    1.281   .     A
C713   O753    1.289   .     A
C713   C715    1.439   .     S
C714   O752    1.281   .     A
C714   O754    1.289   .     A
C714   C716    1.439   .     S
C716   C785    1.357   .     S
C716   O830    1.389   .     S
C717   C765    1.487   .     S
C717   C727    1.415   .     A
C717   C719    1.401   .     A
C718   C728    1.415   .     A
C718   C768    1.487   .     S
C718   C720    1.401   .     A
C719   H731    1.084   .     S
C719   C721    1.401   .     A
C720   C722    1.401   .     A
C720   H732    1.084   .     S
C721   C723    1.397   .     A
C722   C724    1.398   .     A
C723   C725    1.388   .     A
C723   H733    1.084   .     S
C724   H734    1.084   .     S
C724   C726    1.388   .     A
C725   H735    1.084   .     S
C725   C727    1.402   .     A
C726   C728    1.402   .     A
C726   H736    1.084   .     S
C728   C517    1.467   1_565 S
Cu729  Cu730   2.673   .     S
Cu729  N746    2.008   .     S
Cu729  O747    1.952   .     S
Cu729  O750    1.950   .     S
Cu729  O751    1.972   .     S
Cu729  O754    1.973   .     S
Cu730  N745    2.008   .     S
Cu730  O749    1.950   .     S
Cu730  O753    1.973   .     S
Cu730  O748    1.952   .     S
Cu730  O752    1.972   .     S
O755   C756    1.411   .     S
O755   C785    1.388   .     S
C756   H759    1.109   .     S
C756   H757    1.114   .     S
C756   H828    1.113   .     S
O760   C761    1.411   .     S
C761   H764    1.109   .     S
C761   H763    1.114   .     S
H762   C831    1.113   .     S
C765   O767    1.221   .     D
H766   C555    1.084   1_565 S
C768   O770    1.221   .     D
C768   H559    1.084   1_565 S
C771   C791    1.457   .     S
C771   O817    1.291   .     A
C771   O819    1.292   .     A
C772   C792    1.458   .     S
C772   O820    1.292   .     A
C772   O818    1.291   .     A
C773   C775    1.407   .     A
C773   C781    1.411   .     A
C773   H807    1.081   .     S
C774   C782    1.411   .     A
C774   C776    1.407   .     A
C774   H808    1.081   .     S
C775   N815    1.364   .     A
C775   H809    1.081   .     S
C776   H810    1.082   .     S
C776   N816    1.364   .     A
C777   N815    1.364   .     A
C777   C779    1.407   .     A
C777   H811    1.081   .     S
C778   H812    1.082   .     S
C778   C780    1.407   .     A
C778   N816    1.364   .     A
C779   C781    1.411   .     A
C779   H813    1.081   .     S
C780   C782    1.411   .     A
C780   H814    1.081   .     S
C782   C361    1.516   1_556 S
C783   O821    1.281   .     A
C783   O823    1.289   .     A
C783   C785    1.439   .     S
C784   O822    1.281   .     A
C784   O824    1.289   .     A
C784   C786    1.439   .     S
C786   C645    1.357   1_655 S
C786   O690    1.389   1_655 S
C787   C835    1.487   .     S
C787   C797    1.415   .     A
C787   C789    1.401   .     A
C788   C798    1.415   .     A
C788   C838    1.487   .     S
C788   C790    1.401   .     A
C789   H801    1.084   .     S
C789   C791    1.401   .     A
C790   C792    1.401   .     A
C790   H802    1.084   .     S
C791   C793    1.397   .     A
C792   C794    1.398   .     A
C793   C795    1.388   .     A
C793   H803    1.084   .     S
C794   H804    1.084   .     S
C794   C796    1.388   .     A
C795   H805    1.084   .     S
C795   C797    1.402   .     A
C796   C798    1.402   .     A
C796   H806    1.084   .     S
C798   C587    1.467   1_565 S
Cu799  Cu800   2.673   .     S
Cu799  N816    2.008   .     S
Cu799  O817    1.952   .     S
Cu799  O820    1.950   .     S
Cu799  O821    1.972   .     S
Cu799  O824    1.973   .     S
Cu800  N815    2.008   .     S
Cu800  O819    1.950   .     S
Cu800  O823    1.973   .     S
Cu800  O818    1.952   .     S
Cu800  O822    1.972   .     S
O825   C826    1.411   .     S
O825   C645    1.388   1_655 S
C826   H829    1.109   .     S
C826   H827    1.114   .     S
C826   H688    1.113   1_655 S
O830   C831    1.411   .     S
C831   H834    1.109   .     S
C831   H833    1.114   .     S
H832   C691    1.113   1_655 S
C835   O837    1.221   .     D
H836   C625    1.084   1_565 S
C838   O840    1.221   .     D
C838   H629    1.084   1_565 S
