data_str_m2_o10_o16_pcu_sym.119
_audit_creation_date              2020-01-03
_audit_creation_method            'Materials Studio'
_symmetry_space_group_name_H-M    'P1'
_symmetry_Int_Tables_number       1
_symmetry_cell_setting            triclinic
loop_
_symmetry_equiv_pos_as_xyz
  x,y,z
_cell_length_a                    22.3693
_cell_length_b                    26.0822
_cell_length_c                    26.7302
_cell_angle_alpha                 94.7470
_cell_angle_beta                  77.6284
_cell_angle_gamma                 103.0089
loop_
_atom_site_label
_atom_site_type_symbol
_atom_site_fract_x
_atom_site_fract_y
_atom_site_fract_z
_atom_site_U_iso_or_equiv
_atom_site_adp_type
_atom_site_occupancy
C1     C     0.18175   0.26670   0.25149   0.00000  Uiso   1.00
C2     C     0.14098   0.16837   0.48772   0.00000  Uiso   1.00
C3     C     0.15467   0.18449   0.43646   0.00000  Uiso   1.00
C4     C     0.18794   0.18327   0.01793   0.00000  Uiso   1.00
C5     C     0.24147   0.22332   0.00077   0.00000  Uiso   1.00
C6     C     0.25127   0.24263   0.45175   0.00000  Uiso   1.00
C7     C     0.20920   0.22314   0.41995   0.00000  Uiso   1.00
C8     C     0.18361   0.15970   0.06464   0.00000  Uiso   1.00
C9     C     0.27266   0.22616   0.08330   0.00000  Uiso   1.00
C10    C     0.11213   0.16318   0.40364   0.00000  Uiso   1.00
C11    C     0.19022   0.32266   0.25221   0.00000  Uiso   1.00
C12    C     0.13309   0.16521   0.34732   0.00000  Uiso   1.00
C13    C     0.14324   0.01067   0.24738   0.00000  Uiso   1.00
C14    C     0.15164   0.06664   0.24834   0.00000  Uiso   1.00
C15    C     0.20059   0.17163   0.15315   0.00000  Uiso   1.00
C16    C     0.28327   0.24504   0.03358   0.00000  Uiso   1.00
C17    C     0.22162   0.18429   0.09892   0.00000  Uiso   1.00
C18    C     0.05127   0.13524   0.42495   0.00000  Uiso   1.00
C19    C     0.03455   0.12771   0.47758   0.00000  Uiso   1.00
C20    C     0.07917   0.14184   0.00808   0.00000  Uiso   1.00
Cu21   Cu    0.10710   0.16105   0.24435   0.00000  Uiso   1.00
Cu22   Cu    0.22623   0.17228   0.25564   0.00000  Uiso   1.00
H23    H     0.21828   0.24127   0.38338   0.00000  Uiso   1.00
H24    H     0.23548   0.01306   0.25684   0.00000  Uiso   1.00
N25    N     0.31574   0.18074   0.26416   0.00000  Uiso   1.00
N26    N     0.01759   0.15259   0.23584   0.00000  Uiso   1.00
O27    O     0.12797   0.23807   0.24633   0.00000  Uiso   1.00
O28    O     0.22858   0.24755   0.25586   0.00000  Uiso   1.00
O29    O     0.09181   0.15960   0.31839   0.00000  Uiso   1.00
O30    O     0.19242   0.16908   0.32793   0.00000  Uiso   1.00
O31    O     0.10476   0.08578   0.24413   0.00000  Uiso   1.00
O32    O     0.20536   0.09526   0.25367   0.00000  Uiso   1.00
O33    O     0.14092   0.16425   0.17207   0.00000  Uiso   1.00
O34    O     0.24152   0.17373   0.18160   0.00000  Uiso   1.00
O35    O     0.30559   0.25350   0.11919   0.00000  Uiso   1.00
C36    C     0.03356   0.24434   0.10876   0.00000  Uiso   1.00
H37    H     0.03419   0.20225   0.09968   0.00000  Uiso   1.00
H38    H     0.06409   0.26888   0.07727   0.00000  Uiso   1.00
H39    H     0.05385   0.25572   0.14351   0.00000  Uiso   1.00
H40    H     0.09797   0.32024   0.24276   0.00000  Uiso   1.00
H41    H     0.00595   0.21231   0.28301   0.00000  Uiso   1.00
O42    O     0.31910   0.10750   0.21747   0.00000  Uiso   1.00
C43    C     0.01798   0.09686   0.16797   0.00000  Uiso   1.00
H44    H     0.05692   0.07762   0.16926   0.00000  Uiso   1.00
H45    H     0.03481   0.13268   0.14499   0.00000  Uiso   1.00
H46    H     0.31829   0.06881   0.14794   0.00000  Uiso   1.00
H47    H     0.29165   0.27317   0.43758   0.00000  Uiso   1.00
O48    O     0.00063   0.28551   0.01745   0.00000  Uiso   1.00
C49    C     0.31688   0.00060   0.03381   0.00000  Uiso   1.00
H50    H     0.30003   0.00337   0.07601   0.00000  Uiso   1.00
H51    H     0.28072   0.00742   0.01384   0.00000  Uiso   1.00
H52    H     0.02573   0.03240   0.02403   0.00000  Uiso   1.00
O53    O     0.14262   0.11227   0.07749   0.00000  Uiso   1.00
C54    C     0.17347   0.07115   0.05780   0.00000  Uiso   1.00
H55    H     0.21493   0.07297   0.07520   0.00000  Uiso   1.00
H56    H     0.18761   0.07168   0.01525   0.00000  Uiso   1.00
H57    H     0.14058   0.03305   0.06776   0.00000  Uiso   1.00
O58    O     0.00682   0.11829   0.39489   0.00000  Uiso   1.00
C59    C     0.33035   0.06304   0.38792   0.00000  Uiso   1.00
H60    H     0.30658   0.04318   0.42432   0.00000  Uiso   1.00
H61    H     0.04171   0.05011   0.37183   0.00000  Uiso   1.00
H62    H     0.29920   0.05030   0.36000   0.00000  Uiso   1.00
H63    H     0.06296   0.13414   0.04818   0.00000  Uiso   1.00
H64    H     0.32026   0.10931   0.49475   0.00000  Uiso   1.00
C65    C     0.51508   0.26670   0.25149   0.00000  Uiso   1.00
C66    C     0.47431   0.16837   0.48772   0.00000  Uiso   1.00
C67    C     0.48800   0.18449   0.43646   0.00000  Uiso   1.00
C68    C     0.52127   0.18327   0.01793   0.00000  Uiso   1.00
C69    C     0.57481   0.22332   0.00077   0.00000  Uiso   1.00
C70    C     0.58460   0.24263   0.45175   0.00000  Uiso   1.00
C71    C     0.54253   0.22314   0.41995   0.00000  Uiso   1.00
C72    C     0.51694   0.15970   0.06464   0.00000  Uiso   1.00
C73    C     0.60599   0.22616   0.08330   0.00000  Uiso   1.00
C74    C     0.44547   0.16318   0.40364   0.00000  Uiso   1.00
C75    C     0.52355   0.32266   0.25221   0.00000  Uiso   1.00
C76    C     0.46642   0.16521   0.34732   0.00000  Uiso   1.00
C77    C     0.47658   0.01067   0.24738   0.00000  Uiso   1.00
C78    C     0.48497   0.06664   0.24834   0.00000  Uiso   1.00
C79    C     0.53392   0.17163   0.15315   0.00000  Uiso   1.00
C80    C     0.61660   0.24504   0.03358   0.00000  Uiso   1.00
C81    C     0.55495   0.18429   0.09892   0.00000  Uiso   1.00
C82    C     0.38461   0.13524   0.42495   0.00000  Uiso   1.00
C83    C     0.36789   0.12771   0.47758   0.00000  Uiso   1.00
C84    C     0.41251   0.14184   0.00808   0.00000  Uiso   1.00
Cu85   Cu    0.44043   0.16105   0.24435   0.00000  Uiso   1.00
Cu86   Cu    0.55957   0.17228   0.25564   0.00000  Uiso   1.00
H87    H     0.55161   0.24127   0.38338   0.00000  Uiso   1.00
H88    H     0.56881   0.01306   0.25684   0.00000  Uiso   1.00
N89    N     0.64908   0.18074   0.26416   0.00000  Uiso   1.00
N90    N     0.35092   0.15259   0.23584   0.00000  Uiso   1.00
O91    O     0.46131   0.23807   0.24633   0.00000  Uiso   1.00
O92    O     0.56191   0.24755   0.25586   0.00000  Uiso   1.00
O93    O     0.42515   0.15960   0.31839   0.00000  Uiso   1.00
O94    O     0.52575   0.16908   0.32793   0.00000  Uiso   1.00
O95    O     0.43809   0.08578   0.24413   0.00000  Uiso   1.00
O96    O     0.53869   0.09526   0.25367   0.00000  Uiso   1.00
O97    O     0.47425   0.16425   0.17207   0.00000  Uiso   1.00
O98    O     0.57485   0.17373   0.18160   0.00000  Uiso   1.00
O99    O     0.63893   0.25350   0.11919   0.00000  Uiso   1.00
C100   C     0.36689   0.24434   0.10876   0.00000  Uiso   1.00
H101   H     0.36752   0.20225   0.09968   0.00000  Uiso   1.00
H102   H     0.39742   0.26888   0.07727   0.00000  Uiso   1.00
H103   H     0.38718   0.25572   0.14351   0.00000  Uiso   1.00
H104   H     0.43131   0.32024   0.24276   0.00000  Uiso   1.00
H105   H     0.33928   0.21231   0.28301   0.00000  Uiso   1.00
O106   O     0.65243   0.10750   0.21747   0.00000  Uiso   1.00
C107   C     0.35131   0.09686   0.16797   0.00000  Uiso   1.00
H108   H     0.39025   0.07762   0.16926   0.00000  Uiso   1.00
H109   H     0.36814   0.13268   0.14499   0.00000  Uiso   1.00
H110   H     0.65162   0.06881   0.14794   0.00000  Uiso   1.00
H111   H     0.62498   0.27317   0.43758   0.00000  Uiso   1.00
O112   O     0.33397   0.28551   0.01745   0.00000  Uiso   1.00
C113   C     0.65021   0.00060   0.03381   0.00000  Uiso   1.00
H114   H     0.63336   0.00337   0.07601   0.00000  Uiso   1.00
H115   H     0.61405   0.00742   0.01384   0.00000  Uiso   1.00
H116   H     0.35907   0.03240   0.02403   0.00000  Uiso   1.00
O117   O     0.47596   0.11227   0.07749   0.00000  Uiso   1.00
C118   C     0.50680   0.07115   0.05780   0.00000  Uiso   1.00
H119   H     0.54826   0.07297   0.07520   0.00000  Uiso   1.00
H120   H     0.52095   0.07168   0.01525   0.00000  Uiso   1.00
H121   H     0.47391   0.03305   0.06776   0.00000  Uiso   1.00
O122   O     0.34015   0.11829   0.39489   0.00000  Uiso   1.00
C123   C     0.66368   0.06304   0.38792   0.00000  Uiso   1.00
H124   H     0.63991   0.04318   0.42432   0.00000  Uiso   1.00
H125   H     0.37504   0.05011   0.37183   0.00000  Uiso   1.00
H126   H     0.63253   0.05030   0.36000   0.00000  Uiso   1.00
H127   H     0.39629   0.13414   0.04818   0.00000  Uiso   1.00
H128   H     0.65359   0.10931   0.49475   0.00000  Uiso   1.00
C129   C     0.84842   0.26670   0.25149   0.00000  Uiso   1.00
C130   C     0.80764   0.16837   0.48772   0.00000  Uiso   1.00
C131   C     0.82134   0.18449   0.43646   0.00000  Uiso   1.00
C132   C     0.85460   0.18327   0.01793   0.00000  Uiso   1.00
C133   C     0.90814   0.22332   0.00077   0.00000  Uiso   1.00
C134   C     0.91793   0.24263   0.45175   0.00000  Uiso   1.00
C135   C     0.87586   0.22314   0.41995   0.00000  Uiso   1.00
C136   C     0.85028   0.15970   0.06464   0.00000  Uiso   1.00
C137   C     0.93932   0.22616   0.08330   0.00000  Uiso   1.00
C138   C     0.77880   0.16318   0.40364   0.00000  Uiso   1.00
C139   C     0.85689   0.32266   0.25221   0.00000  Uiso   1.00
C140   C     0.79976   0.16521   0.34732   0.00000  Uiso   1.00
C141   C     0.80991   0.01067   0.24738   0.00000  Uiso   1.00
C142   C     0.81831   0.06664   0.24834   0.00000  Uiso   1.00
C143   C     0.86725   0.17163   0.15315   0.00000  Uiso   1.00
C144   C     0.94993   0.24504   0.03358   0.00000  Uiso   1.00
C145   C     0.88828   0.18429   0.09892   0.00000  Uiso   1.00
C146   C     0.71794   0.13524   0.42495   0.00000  Uiso   1.00
C147   C     0.70122   0.12771   0.47758   0.00000  Uiso   1.00
C148   C     0.74584   0.14184   0.00808   0.00000  Uiso   1.00
Cu149  Cu    0.77377   0.16105   0.24435   0.00000  Uiso   1.00
Cu150  Cu    0.89290   0.17228   0.25564   0.00000  Uiso   1.00
H151   H     0.88494   0.24127   0.38338   0.00000  Uiso   1.00
H152   H     0.90214   0.01306   0.25684   0.00000  Uiso   1.00
N153   N     0.98241   0.18074   0.26416   0.00000  Uiso   1.00
N154   N     0.68426   0.15259   0.23584   0.00000  Uiso   1.00
O155   O     0.79464   0.23807   0.24633   0.00000  Uiso   1.00
O156   O     0.89524   0.24755   0.25586   0.00000  Uiso   1.00
O157   O     0.75848   0.15960   0.31839   0.00000  Uiso   1.00
O158   O     0.85908   0.16908   0.32793   0.00000  Uiso   1.00
O159   O     0.77142   0.08578   0.24413   0.00000  Uiso   1.00
O160   O     0.87203   0.09526   0.25367   0.00000  Uiso   1.00
O161   O     0.80758   0.16425   0.17207   0.00000  Uiso   1.00
O162   O     0.90819   0.17373   0.18160   0.00000  Uiso   1.00
O163   O     0.97226   0.25350   0.11919   0.00000  Uiso   1.00
C164   C     0.70023   0.24434   0.10876   0.00000  Uiso   1.00
H165   H     0.70086   0.20225   0.09968   0.00000  Uiso   1.00
H166   H     0.73076   0.26888   0.07727   0.00000  Uiso   1.00
H167   H     0.72051   0.25572   0.14351   0.00000  Uiso   1.00
H168   H     0.76464   0.32024   0.24276   0.00000  Uiso   1.00
H169   H     0.67262   0.21231   0.28301   0.00000  Uiso   1.00
O170   O     0.98577   0.10750   0.21747   0.00000  Uiso   1.00
C171   C     0.68465   0.09686   0.16797   0.00000  Uiso   1.00
H172   H     0.72358   0.07762   0.16926   0.00000  Uiso   1.00
H173   H     0.70147   0.13268   0.14499   0.00000  Uiso   1.00
H174   H     0.98496   0.06881   0.14794   0.00000  Uiso   1.00
H175   H     0.95831   0.27317   0.43758   0.00000  Uiso   1.00
O176   O     0.66730   0.28551   0.01745   0.00000  Uiso   1.00
C177   C     0.98355   0.00060   0.03381   0.00000  Uiso   1.00
H178   H     0.96669   0.00337   0.07601   0.00000  Uiso   1.00
H179   H     0.94739   0.00742   0.01384   0.00000  Uiso   1.00
H180   H     0.69240   0.03240   0.02403   0.00000  Uiso   1.00
O181   O     0.80929   0.11227   0.07749   0.00000  Uiso   1.00
C182   C     0.84014   0.07115   0.05780   0.00000  Uiso   1.00
H183   H     0.88159   0.07297   0.07520   0.00000  Uiso   1.00
H184   H     0.85428   0.07168   0.01525   0.00000  Uiso   1.00
H185   H     0.80724   0.03305   0.06776   0.00000  Uiso   1.00
O186   O     0.67348   0.11829   0.39489   0.00000  Uiso   1.00
C187   C     0.99702   0.06304   0.38792   0.00000  Uiso   1.00
H188   H     0.97324   0.04318   0.42432   0.00000  Uiso   1.00
H189   H     0.70837   0.05011   0.37183   0.00000  Uiso   1.00
H190   H     0.96587   0.05030   0.36000   0.00000  Uiso   1.00
H191   H     0.72963   0.13414   0.04818   0.00000  Uiso   1.00
H192   H     0.98692   0.10931   0.49475   0.00000  Uiso   1.00
C193   C     0.18175   0.60003   0.25149   0.00000  Uiso   1.00
C194   C     0.14098   0.50170   0.48772   0.00000  Uiso   1.00
C195   C     0.15467   0.51783   0.43646   0.00000  Uiso   1.00
C196   C     0.18794   0.51661   0.01793   0.00000  Uiso   1.00
C197   C     0.24147   0.55666   0.00077   0.00000  Uiso   1.00
C198   C     0.25127   0.57597   0.45175   0.00000  Uiso   1.00
C199   C     0.20920   0.55648   0.41995   0.00000  Uiso   1.00
C200   C     0.18361   0.49303   0.06464   0.00000  Uiso   1.00
C201   C     0.27266   0.55949   0.08330   0.00000  Uiso   1.00
C202   C     0.11213   0.49652   0.40364   0.00000  Uiso   1.00
C203   C     0.19022   0.65599   0.25221   0.00000  Uiso   1.00
C204   C     0.13309   0.49854   0.34732   0.00000  Uiso   1.00
C205   C     0.14324   0.34400   0.24738   0.00000  Uiso   1.00
C206   C     0.15164   0.39997   0.24834   0.00000  Uiso   1.00
C207   C     0.20059   0.50496   0.15315   0.00000  Uiso   1.00
C208   C     0.28327   0.57837   0.03358   0.00000  Uiso   1.00
C209   C     0.22162   0.51763   0.09892   0.00000  Uiso   1.00
C210   C     0.05127   0.46857   0.42495   0.00000  Uiso   1.00
C211   C     0.03455   0.46105   0.47758   0.00000  Uiso   1.00
C212   C     0.07917   0.47517   0.00808   0.00000  Uiso   1.00
Cu213  Cu    0.10710   0.49439   0.24435   0.00000  Uiso   1.00
Cu214  Cu    0.22623   0.50561   0.25564   0.00000  Uiso   1.00
H215   H     0.21828   0.57460   0.38338   0.00000  Uiso   1.00
H216   H     0.23548   0.34640   0.25684   0.00000  Uiso   1.00
N217   N     0.31574   0.51407   0.26416   0.00000  Uiso   1.00
N218   N     0.01759   0.48593   0.23584   0.00000  Uiso   1.00
O219   O     0.12797   0.57141   0.24633   0.00000  Uiso   1.00
O220   O     0.22858   0.58089   0.25586   0.00000  Uiso   1.00
O221   O     0.09181   0.49293   0.31839   0.00000  Uiso   1.00
O222   O     0.19242   0.50241   0.32793   0.00000  Uiso   1.00
O223   O     0.10476   0.41911   0.24413   0.00000  Uiso   1.00
O224   O     0.20536   0.42859   0.25367   0.00000  Uiso   1.00
O225   O     0.14092   0.49759   0.17207   0.00000  Uiso   1.00
O226   O     0.24152   0.50707   0.18160   0.00000  Uiso   1.00
O227   O     0.30559   0.58684   0.11919   0.00000  Uiso   1.00
C228   C     0.03356   0.57767   0.10876   0.00000  Uiso   1.00
H229   H     0.03419   0.53558   0.09968   0.00000  Uiso   1.00
H230   H     0.06409   0.60221   0.07727   0.00000  Uiso   1.00
H231   H     0.05385   0.58905   0.14351   0.00000  Uiso   1.00
H232   H     0.09797   0.65357   0.24276   0.00000  Uiso   1.00
H233   H     0.00595   0.54564   0.28301   0.00000  Uiso   1.00
O234   O     0.31910   0.44083   0.21747   0.00000  Uiso   1.00
C235   C     0.01798   0.43020   0.16797   0.00000  Uiso   1.00
H236   H     0.05692   0.41095   0.16926   0.00000  Uiso   1.00
H237   H     0.03481   0.46601   0.14499   0.00000  Uiso   1.00
H238   H     0.31829   0.40214   0.14794   0.00000  Uiso   1.00
H239   H     0.29165   0.60650   0.43758   0.00000  Uiso   1.00
O240   O     0.00063   0.61884   0.01745   0.00000  Uiso   1.00
C241   C     0.31688   0.33393   0.03381   0.00000  Uiso   1.00
H242   H     0.30003   0.33670   0.07601   0.00000  Uiso   1.00
H243   H     0.28072   0.34075   0.01384   0.00000  Uiso   1.00
H244   H     0.02573   0.36573   0.02403   0.00000  Uiso   1.00
O245   O     0.14262   0.44560   0.07749   0.00000  Uiso   1.00
C246   C     0.17347   0.40449   0.05780   0.00000  Uiso   1.00
H247   H     0.21493   0.40631   0.07520   0.00000  Uiso   1.00
H248   H     0.18761   0.40501   0.01525   0.00000  Uiso   1.00
H249   H     0.14058   0.36639   0.06776   0.00000  Uiso   1.00
O250   O     0.00682   0.45162   0.39489   0.00000  Uiso   1.00
C251   C     0.33035   0.39638   0.38792   0.00000  Uiso   1.00
H252   H     0.30658   0.37652   0.42432   0.00000  Uiso   1.00
H253   H     0.04171   0.38344   0.37183   0.00000  Uiso   1.00
H254   H     0.29920   0.38364   0.36000   0.00000  Uiso   1.00
H255   H     0.06296   0.46747   0.04818   0.00000  Uiso   1.00
H256   H     0.32026   0.44265   0.49475   0.00000  Uiso   1.00
C257   C     0.51508   0.60003   0.25149   0.00000  Uiso   1.00
C258   C     0.47431   0.50170   0.48772   0.00000  Uiso   1.00
C259   C     0.48800   0.51783   0.43646   0.00000  Uiso   1.00
C260   C     0.52127   0.51661   0.01793   0.00000  Uiso   1.00
C261   C     0.57481   0.55666   0.00077   0.00000  Uiso   1.00
C262   C     0.58460   0.57597   0.45175   0.00000  Uiso   1.00
C263   C     0.54253   0.55648   0.41995   0.00000  Uiso   1.00
C264   C     0.51694   0.49303   0.06464   0.00000  Uiso   1.00
C265   C     0.60599   0.55949   0.08330   0.00000  Uiso   1.00
C266   C     0.44547   0.49652   0.40364   0.00000  Uiso   1.00
C267   C     0.52355   0.65599   0.25221   0.00000  Uiso   1.00
C268   C     0.46642   0.49854   0.34732   0.00000  Uiso   1.00
C269   C     0.47658   0.34400   0.24738   0.00000  Uiso   1.00
C270   C     0.48497   0.39997   0.24834   0.00000  Uiso   1.00
C271   C     0.53392   0.50496   0.15315   0.00000  Uiso   1.00
C272   C     0.61660   0.57837   0.03358   0.00000  Uiso   1.00
C273   C     0.55495   0.51763   0.09892   0.00000  Uiso   1.00
C274   C     0.38461   0.46857   0.42495   0.00000  Uiso   1.00
C275   C     0.36789   0.46105   0.47758   0.00000  Uiso   1.00
C276   C     0.41251   0.47517   0.00808   0.00000  Uiso   1.00
Cu277  Cu    0.44043   0.49439   0.24435   0.00000  Uiso   1.00
Cu278  Cu    0.55957   0.50561   0.25564   0.00000  Uiso   1.00
H279   H     0.55161   0.57460   0.38338   0.00000  Uiso   1.00
H280   H     0.56881   0.34640   0.25684   0.00000  Uiso   1.00
N281   N     0.64908   0.51407   0.26416   0.00000  Uiso   1.00
N282   N     0.35092   0.48593   0.23584   0.00000  Uiso   1.00
O283   O     0.46131   0.57141   0.24633   0.00000  Uiso   1.00
O284   O     0.56191   0.58089   0.25586   0.00000  Uiso   1.00
O285   O     0.42515   0.49293   0.31839   0.00000  Uiso   1.00
O286   O     0.52575   0.50241   0.32793   0.00000  Uiso   1.00
O287   O     0.43809   0.41911   0.24413   0.00000  Uiso   1.00
O288   O     0.53869   0.42859   0.25367   0.00000  Uiso   1.00
O289   O     0.47425   0.49759   0.17207   0.00000  Uiso   1.00
O290   O     0.57485   0.50707   0.18160   0.00000  Uiso   1.00
O291   O     0.63893   0.58684   0.11919   0.00000  Uiso   1.00
C292   C     0.36689   0.57767   0.10876   0.00000  Uiso   1.00
H293   H     0.36752   0.53558   0.09968   0.00000  Uiso   1.00
H294   H     0.39742   0.60221   0.07727   0.00000  Uiso   1.00
H295   H     0.38718   0.58905   0.14351   0.00000  Uiso   1.00
H296   H     0.43131   0.65357   0.24276   0.00000  Uiso   1.00
H297   H     0.33928   0.54564   0.28301   0.00000  Uiso   1.00
O298   O     0.65243   0.44083   0.21747   0.00000  Uiso   1.00
C299   C     0.35131   0.43020   0.16797   0.00000  Uiso   1.00
H300   H     0.39025   0.41095   0.16926   0.00000  Uiso   1.00
H301   H     0.36814   0.46601   0.14499   0.00000  Uiso   1.00
H302   H     0.65162   0.40214   0.14794   0.00000  Uiso   1.00
H303   H     0.62498   0.60650   0.43758   0.00000  Uiso   1.00
O304   O     0.33397   0.61884   0.01745   0.00000  Uiso   1.00
C305   C     0.65021   0.33393   0.03381   0.00000  Uiso   1.00
H306   H     0.63336   0.33670   0.07601   0.00000  Uiso   1.00
H307   H     0.61405   0.34075   0.01384   0.00000  Uiso   1.00
H308   H     0.35907   0.36573   0.02403   0.00000  Uiso   1.00
O309   O     0.47596   0.44560   0.07749   0.00000  Uiso   1.00
C310   C     0.50680   0.40449   0.05780   0.00000  Uiso   1.00
H311   H     0.54826   0.40631   0.07520   0.00000  Uiso   1.00
H312   H     0.52095   0.40501   0.01525   0.00000  Uiso   1.00
H313   H     0.47391   0.36639   0.06776   0.00000  Uiso   1.00
O314   O     0.34015   0.45162   0.39489   0.00000  Uiso   1.00
C315   C     0.66368   0.39638   0.38792   0.00000  Uiso   1.00
H316   H     0.63991   0.37652   0.42432   0.00000  Uiso   1.00
H317   H     0.37504   0.38344   0.37183   0.00000  Uiso   1.00
H318   H     0.63253   0.38364   0.36000   0.00000  Uiso   1.00
H319   H     0.39629   0.46747   0.04818   0.00000  Uiso   1.00
H320   H     0.65359   0.44265   0.49475   0.00000  Uiso   1.00
C321   C     0.84842   0.60003   0.25149   0.00000  Uiso   1.00
C322   C     0.80764   0.50170   0.48772   0.00000  Uiso   1.00
C323   C     0.82134   0.51783   0.43646   0.00000  Uiso   1.00
C324   C     0.85460   0.51661   0.01793   0.00000  Uiso   1.00
C325   C     0.90814   0.55666   0.00077   0.00000  Uiso   1.00
C326   C     0.91793   0.57597   0.45175   0.00000  Uiso   1.00
C327   C     0.87586   0.55648   0.41995   0.00000  Uiso   1.00
C328   C     0.85028   0.49303   0.06464   0.00000  Uiso   1.00
C329   C     0.93932   0.55949   0.08330   0.00000  Uiso   1.00
C330   C     0.77880   0.49652   0.40364   0.00000  Uiso   1.00
C331   C     0.85689   0.65599   0.25221   0.00000  Uiso   1.00
C332   C     0.79976   0.49854   0.34732   0.00000  Uiso   1.00
C333   C     0.80991   0.34400   0.24738   0.00000  Uiso   1.00
C334   C     0.81831   0.39997   0.24834   0.00000  Uiso   1.00
C335   C     0.86725   0.50496   0.15315   0.00000  Uiso   1.00
C336   C     0.94993   0.57837   0.03358   0.00000  Uiso   1.00
C337   C     0.88828   0.51763   0.09892   0.00000  Uiso   1.00
C338   C     0.71794   0.46857   0.42495   0.00000  Uiso   1.00
C339   C     0.70122   0.46105   0.47758   0.00000  Uiso   1.00
C340   C     0.74584   0.47517   0.00808   0.00000  Uiso   1.00
Cu341  Cu    0.77377   0.49439   0.24435   0.00000  Uiso   1.00
Cu342  Cu    0.89290   0.50561   0.25564   0.00000  Uiso   1.00
H343   H     0.88494   0.57460   0.38338   0.00000  Uiso   1.00
H344   H     0.90214   0.34640   0.25684   0.00000  Uiso   1.00
N345   N     0.98241   0.51407   0.26416   0.00000  Uiso   1.00
N346   N     0.68426   0.48593   0.23584   0.00000  Uiso   1.00
O347   O     0.79464   0.57141   0.24633   0.00000  Uiso   1.00
O348   O     0.89524   0.58089   0.25586   0.00000  Uiso   1.00
O349   O     0.75848   0.49293   0.31839   0.00000  Uiso   1.00
O350   O     0.85908   0.50241   0.32793   0.00000  Uiso   1.00
O351   O     0.77142   0.41911   0.24413   0.00000  Uiso   1.00
O352   O     0.87203   0.42859   0.25367   0.00000  Uiso   1.00
O353   O     0.80758   0.49759   0.17207   0.00000  Uiso   1.00
O354   O     0.90819   0.50707   0.18160   0.00000  Uiso   1.00
O355   O     0.97226   0.58684   0.11919   0.00000  Uiso   1.00
C356   C     0.70023   0.57767   0.10876   0.00000  Uiso   1.00
H357   H     0.70086   0.53558   0.09968   0.00000  Uiso   1.00
H358   H     0.73076   0.60221   0.07727   0.00000  Uiso   1.00
H359   H     0.72051   0.58905   0.14351   0.00000  Uiso   1.00
H360   H     0.76464   0.65357   0.24276   0.00000  Uiso   1.00
H361   H     0.67262   0.54564   0.28301   0.00000  Uiso   1.00
O362   O     0.98577   0.44083   0.21747   0.00000  Uiso   1.00
C363   C     0.68465   0.43020   0.16797   0.00000  Uiso   1.00
H364   H     0.72358   0.41095   0.16926   0.00000  Uiso   1.00
H365   H     0.70147   0.46601   0.14499   0.00000  Uiso   1.00
H366   H     0.98496   0.40214   0.14794   0.00000  Uiso   1.00
H367   H     0.95831   0.60650   0.43758   0.00000  Uiso   1.00
O368   O     0.66730   0.61884   0.01745   0.00000  Uiso   1.00
C369   C     0.98355   0.33393   0.03381   0.00000  Uiso   1.00
H370   H     0.96669   0.33670   0.07601   0.00000  Uiso   1.00
H371   H     0.94739   0.34075   0.01384   0.00000  Uiso   1.00
H372   H     0.69240   0.36573   0.02403   0.00000  Uiso   1.00
O373   O     0.80929   0.44560   0.07749   0.00000  Uiso   1.00
C374   C     0.84014   0.40449   0.05780   0.00000  Uiso   1.00
H375   H     0.88159   0.40631   0.07520   0.00000  Uiso   1.00
H376   H     0.85428   0.40501   0.01525   0.00000  Uiso   1.00
H377   H     0.80724   0.36639   0.06776   0.00000  Uiso   1.00
O378   O     0.67348   0.45162   0.39489   0.00000  Uiso   1.00
C379   C     0.99702   0.39638   0.38792   0.00000  Uiso   1.00
H380   H     0.97324   0.37652   0.42432   0.00000  Uiso   1.00
H381   H     0.70837   0.38344   0.37183   0.00000  Uiso   1.00
H382   H     0.96587   0.38364   0.36000   0.00000  Uiso   1.00
H383   H     0.72963   0.46747   0.04818   0.00000  Uiso   1.00
H384   H     0.98692   0.44265   0.49475   0.00000  Uiso   1.00
C385   C     0.18175   0.93336   0.25149   0.00000  Uiso   1.00
C386   C     0.14098   0.83503   0.48772   0.00000  Uiso   1.00
C387   C     0.15467   0.85116   0.43646   0.00000  Uiso   1.00
C388   C     0.18794   0.84994   0.01793   0.00000  Uiso   1.00
C389   C     0.24147   0.88999   0.00077   0.00000  Uiso   1.00
C390   C     0.25127   0.90930   0.45175   0.00000  Uiso   1.00
C391   C     0.20920   0.88981   0.41995   0.00000  Uiso   1.00
C392   C     0.18361   0.82637   0.06464   0.00000  Uiso   1.00
C393   C     0.27266   0.89283   0.08330   0.00000  Uiso   1.00
C394   C     0.11213   0.82985   0.40364   0.00000  Uiso   1.00
C395   C     0.19022   0.98932   0.25221   0.00000  Uiso   1.00
C396   C     0.13309   0.83188   0.34732   0.00000  Uiso   1.00
C397   C     0.14324   0.67733   0.24738   0.00000  Uiso   1.00
C398   C     0.15164   0.73330   0.24834   0.00000  Uiso   1.00
C399   C     0.20059   0.83830   0.15315   0.00000  Uiso   1.00
C400   C     0.28327   0.91171   0.03358   0.00000  Uiso   1.00
C401   C     0.22162   0.85096   0.09892   0.00000  Uiso   1.00
C402   C     0.05127   0.80191   0.42495   0.00000  Uiso   1.00
C403   C     0.03455   0.79438   0.47758   0.00000  Uiso   1.00
C404   C     0.07917   0.80850   0.00808   0.00000  Uiso   1.00
Cu405  Cu    0.10710   0.82772   0.24435   0.00000  Uiso   1.00
Cu406  Cu    0.22623   0.83895   0.25564   0.00000  Uiso   1.00
H407   H     0.21828   0.90793   0.38338   0.00000  Uiso   1.00
H408   H     0.23548   0.67973   0.25684   0.00000  Uiso   1.00
N409   N     0.31574   0.84741   0.26416   0.00000  Uiso   1.00
N410   N     0.01759   0.81926   0.23584   0.00000  Uiso   1.00
O411   O     0.12797   0.90474   0.24633   0.00000  Uiso   1.00
O412   O     0.22858   0.91422   0.25586   0.00000  Uiso   1.00
O413   O     0.09181   0.82627   0.31839   0.00000  Uiso   1.00
O414   O     0.19242   0.83575   0.32793   0.00000  Uiso   1.00
O415   O     0.10476   0.75245   0.24413   0.00000  Uiso   1.00
O416   O     0.20536   0.76193   0.25367   0.00000  Uiso   1.00
O417   O     0.14092   0.83092   0.17207   0.00000  Uiso   1.00
O418   O     0.24152   0.84040   0.18160   0.00000  Uiso   1.00
O419   O     0.30559   0.92017   0.11919   0.00000  Uiso   1.00
C420   C     0.03356   0.91101   0.10876   0.00000  Uiso   1.00
H421   H     0.03419   0.86892   0.09968   0.00000  Uiso   1.00
H422   H     0.06409   0.93554   0.07727   0.00000  Uiso   1.00
H423   H     0.05385   0.92239   0.14351   0.00000  Uiso   1.00
H424   H     0.09797   0.98690   0.24276   0.00000  Uiso   1.00
H425   H     0.00595   0.87897   0.28301   0.00000  Uiso   1.00
O426   O     0.31910   0.77416   0.21747   0.00000  Uiso   1.00
C427   C     0.01798   0.76353   0.16797   0.00000  Uiso   1.00
H428   H     0.05692   0.74429   0.16926   0.00000  Uiso   1.00
H429   H     0.03481   0.79935   0.14499   0.00000  Uiso   1.00
H430   H     0.31829   0.73547   0.14794   0.00000  Uiso   1.00
H431   H     0.29165   0.93984   0.43758   0.00000  Uiso   1.00
O432   O     0.00063   0.95218   0.01745   0.00000  Uiso   1.00
C433   C     0.31688   0.66727   0.03381   0.00000  Uiso   1.00
H434   H     0.30003   0.67004   0.07601   0.00000  Uiso   1.00
H435   H     0.28072   0.67409   0.01384   0.00000  Uiso   1.00
H436   H     0.02573   0.69907   0.02403   0.00000  Uiso   1.00
O437   O     0.14262   0.77893   0.07749   0.00000  Uiso   1.00
C438   C     0.17347   0.73782   0.05780   0.00000  Uiso   1.00
H439   H     0.21493   0.73964   0.07520   0.00000  Uiso   1.00
H440   H     0.18761   0.73835   0.01525   0.00000  Uiso   1.00
H441   H     0.14058   0.69972   0.06776   0.00000  Uiso   1.00
O442   O     0.00682   0.78496   0.39489   0.00000  Uiso   1.00
C443   C     0.33035   0.72971   0.38792   0.00000  Uiso   1.00
H444   H     0.30658   0.70985   0.42432   0.00000  Uiso   1.00
H445   H     0.04171   0.71678   0.37183   0.00000  Uiso   1.00
H446   H     0.29920   0.71697   0.36000   0.00000  Uiso   1.00
H447   H     0.06296   0.80081   0.04818   0.00000  Uiso   1.00
H448   H     0.32026   0.77598   0.49475   0.00000  Uiso   1.00
C449   C     0.51508   0.93336   0.25149   0.00000  Uiso   1.00
C450   C     0.47431   0.83503   0.48772   0.00000  Uiso   1.00
C451   C     0.48800   0.85116   0.43646   0.00000  Uiso   1.00
C452   C     0.52127   0.84994   0.01793   0.00000  Uiso   1.00
C453   C     0.57481   0.88999   0.00077   0.00000  Uiso   1.00
C454   C     0.58460   0.90930   0.45175   0.00000  Uiso   1.00
C455   C     0.54253   0.88981   0.41995   0.00000  Uiso   1.00
C456   C     0.51694   0.82637   0.06464   0.00000  Uiso   1.00
C457   C     0.60599   0.89283   0.08330   0.00000  Uiso   1.00
C458   C     0.44547   0.82985   0.40364   0.00000  Uiso   1.00
C459   C     0.52355   0.98932   0.25221   0.00000  Uiso   1.00
C460   C     0.46642   0.83188   0.34732   0.00000  Uiso   1.00
C461   C     0.47658   0.67733   0.24738   0.00000  Uiso   1.00
C462   C     0.48497   0.73330   0.24834   0.00000  Uiso   1.00
C463   C     0.53392   0.83830   0.15315   0.00000  Uiso   1.00
C464   C     0.61660   0.91171   0.03358   0.00000  Uiso   1.00
C465   C     0.55495   0.85096   0.09892   0.00000  Uiso   1.00
C466   C     0.38461   0.80191   0.42495   0.00000  Uiso   1.00
C467   C     0.36789   0.79438   0.47758   0.00000  Uiso   1.00
C468   C     0.41251   0.80850   0.00808   0.00000  Uiso   1.00
Cu469  Cu    0.44043   0.82772   0.24435   0.00000  Uiso   1.00
Cu470  Cu    0.55957   0.83895   0.25564   0.00000  Uiso   1.00
H471   H     0.55161   0.90793   0.38338   0.00000  Uiso   1.00
H472   H     0.56881   0.67973   0.25684   0.00000  Uiso   1.00
N473   N     0.64908   0.84741   0.26416   0.00000  Uiso   1.00
N474   N     0.35092   0.81926   0.23584   0.00000  Uiso   1.00
O475   O     0.46131   0.90474   0.24633   0.00000  Uiso   1.00
O476   O     0.56191   0.91422   0.25586   0.00000  Uiso   1.00
O477   O     0.42515   0.82627   0.31839   0.00000  Uiso   1.00
O478   O     0.52575   0.83575   0.32793   0.00000  Uiso   1.00
O479   O     0.43809   0.75245   0.24413   0.00000  Uiso   1.00
O480   O     0.53869   0.76193   0.25367   0.00000  Uiso   1.00
O481   O     0.47425   0.83092   0.17207   0.00000  Uiso   1.00
O482   O     0.57485   0.84040   0.18160   0.00000  Uiso   1.00
O483   O     0.63893   0.92017   0.11919   0.00000  Uiso   1.00
C484   C     0.36689   0.91101   0.10876   0.00000  Uiso   1.00
H485   H     0.36752   0.86892   0.09968   0.00000  Uiso   1.00
H486   H     0.39742   0.93554   0.07727   0.00000  Uiso   1.00
H487   H     0.38718   0.92239   0.14351   0.00000  Uiso   1.00
H488   H     0.43131   0.98690   0.24276   0.00000  Uiso   1.00
H489   H     0.33928   0.87897   0.28301   0.00000  Uiso   1.00
O490   O     0.65243   0.77416   0.21747   0.00000  Uiso   1.00
C491   C     0.35131   0.76353   0.16797   0.00000  Uiso   1.00
H492   H     0.39025   0.74429   0.16926   0.00000  Uiso   1.00
H493   H     0.36814   0.79935   0.14499   0.00000  Uiso   1.00
H494   H     0.65162   0.73547   0.14794   0.00000  Uiso   1.00
H495   H     0.62498   0.93984   0.43758   0.00000  Uiso   1.00
O496   O     0.33397   0.95218   0.01745   0.00000  Uiso   1.00
C497   C     0.65021   0.66727   0.03381   0.00000  Uiso   1.00
H498   H     0.63336   0.67004   0.07601   0.00000  Uiso   1.00
H499   H     0.61405   0.67409   0.01384   0.00000  Uiso   1.00
H500   H     0.35907   0.69907   0.02403   0.00000  Uiso   1.00
O501   O     0.47596   0.77893   0.07749   0.00000  Uiso   1.00
C502   C     0.50680   0.73782   0.05780   0.00000  Uiso   1.00
H503   H     0.54826   0.73964   0.07520   0.00000  Uiso   1.00
H504   H     0.52095   0.73835   0.01525   0.00000  Uiso   1.00
H505   H     0.47391   0.69972   0.06776   0.00000  Uiso   1.00
O506   O     0.34015   0.78496   0.39489   0.00000  Uiso   1.00
C507   C     0.66368   0.72971   0.38792   0.00000  Uiso   1.00
H508   H     0.63991   0.70985   0.42432   0.00000  Uiso   1.00
H509   H     0.37504   0.71678   0.37183   0.00000  Uiso   1.00
H510   H     0.63253   0.71697   0.36000   0.00000  Uiso   1.00
H511   H     0.39629   0.80081   0.04818   0.00000  Uiso   1.00
H512   H     0.65359   0.77598   0.49475   0.00000  Uiso   1.00
C513   C     0.84842   0.93336   0.25149   0.00000  Uiso   1.00
C514   C     0.80764   0.83503   0.48772   0.00000  Uiso   1.00
C515   C     0.82134   0.85116   0.43646   0.00000  Uiso   1.00
C516   C     0.85460   0.84994   0.01793   0.00000  Uiso   1.00
C517   C     0.90814   0.88999   0.00077   0.00000  Uiso   1.00
C518   C     0.91793   0.90930   0.45175   0.00000  Uiso   1.00
C519   C     0.87586   0.88981   0.41995   0.00000  Uiso   1.00
C520   C     0.85028   0.82637   0.06464   0.00000  Uiso   1.00
C521   C     0.93932   0.89283   0.08330   0.00000  Uiso   1.00
C522   C     0.77880   0.82985   0.40364   0.00000  Uiso   1.00
C523   C     0.85689   0.98932   0.25221   0.00000  Uiso   1.00
C524   C     0.79976   0.83188   0.34732   0.00000  Uiso   1.00
C525   C     0.80991   0.67733   0.24738   0.00000  Uiso   1.00
C526   C     0.81831   0.73330   0.24834   0.00000  Uiso   1.00
C527   C     0.86725   0.83830   0.15315   0.00000  Uiso   1.00
C528   C     0.94993   0.91171   0.03358   0.00000  Uiso   1.00
C529   C     0.88828   0.85096   0.09892   0.00000  Uiso   1.00
C530   C     0.71794   0.80191   0.42495   0.00000  Uiso   1.00
C531   C     0.70122   0.79438   0.47758   0.00000  Uiso   1.00
C532   C     0.74584   0.80850   0.00808   0.00000  Uiso   1.00
Cu533  Cu    0.77377   0.82772   0.24435   0.00000  Uiso   1.00
Cu534  Cu    0.89290   0.83895   0.25564   0.00000  Uiso   1.00
H535   H     0.88494   0.90793   0.38338   0.00000  Uiso   1.00
H536   H     0.90214   0.67973   0.25684   0.00000  Uiso   1.00
N537   N     0.98241   0.84741   0.26416   0.00000  Uiso   1.00
N538   N     0.68426   0.81926   0.23584   0.00000  Uiso   1.00
O539   O     0.79464   0.90474   0.24633   0.00000  Uiso   1.00
O540   O     0.89524   0.91422   0.25586   0.00000  Uiso   1.00
O541   O     0.75848   0.82627   0.31839   0.00000  Uiso   1.00
O542   O     0.85908   0.83575   0.32793   0.00000  Uiso   1.00
O543   O     0.77142   0.75245   0.24413   0.00000  Uiso   1.00
O544   O     0.87203   0.76193   0.25367   0.00000  Uiso   1.00
O545   O     0.80758   0.83092   0.17207   0.00000  Uiso   1.00
O546   O     0.90819   0.84040   0.18160   0.00000  Uiso   1.00
O547   O     0.97226   0.92017   0.11919   0.00000  Uiso   1.00
C548   C     0.70023   0.91101   0.10876   0.00000  Uiso   1.00
H549   H     0.70086   0.86892   0.09968   0.00000  Uiso   1.00
H550   H     0.73076   0.93554   0.07727   0.00000  Uiso   1.00
H551   H     0.72051   0.92239   0.14351   0.00000  Uiso   1.00
H552   H     0.76464   0.98690   0.24276   0.00000  Uiso   1.00
H553   H     0.67262   0.87897   0.28301   0.00000  Uiso   1.00
O554   O     0.98577   0.77416   0.21747   0.00000  Uiso   1.00
C555   C     0.68465   0.76353   0.16797   0.00000  Uiso   1.00
H556   H     0.72358   0.74429   0.16926   0.00000  Uiso   1.00
H557   H     0.70147   0.79935   0.14499   0.00000  Uiso   1.00
H558   H     0.98496   0.73547   0.14794   0.00000  Uiso   1.00
H559   H     0.95831   0.93984   0.43758   0.00000  Uiso   1.00
O560   O     0.66730   0.95218   0.01745   0.00000  Uiso   1.00
C561   C     0.98355   0.66727   0.03381   0.00000  Uiso   1.00
H562   H     0.96669   0.67004   0.07601   0.00000  Uiso   1.00
H563   H     0.94739   0.67409   0.01384   0.00000  Uiso   1.00
H564   H     0.69240   0.69907   0.02403   0.00000  Uiso   1.00
O565   O     0.80929   0.77893   0.07749   0.00000  Uiso   1.00
C566   C     0.84014   0.73782   0.05780   0.00000  Uiso   1.00
H567   H     0.88159   0.73964   0.07520   0.00000  Uiso   1.00
H568   H     0.85428   0.73835   0.01525   0.00000  Uiso   1.00
H569   H     0.80724   0.69972   0.06776   0.00000  Uiso   1.00
O570   O     0.67348   0.78496   0.39489   0.00000  Uiso   1.00
C571   C     0.99702   0.72971   0.38792   0.00000  Uiso   1.00
H572   H     0.97324   0.70985   0.42432   0.00000  Uiso   1.00
H573   H     0.70837   0.71678   0.37183   0.00000  Uiso   1.00
H574   H     0.96587   0.71697   0.36000   0.00000  Uiso   1.00
H575   H     0.72963   0.80081   0.04818   0.00000  Uiso   1.00
H576   H     0.98692   0.77598   0.49475   0.00000  Uiso   1.00
C577   C     0.18175   0.26670   0.75149   0.00000  Uiso   1.00
C578   C     0.14098   0.16837   0.98772   0.00000  Uiso   1.00
C579   C     0.15467   0.18449   0.93646   0.00000  Uiso   1.00
C580   C     0.18794   0.18327   0.51793   0.00000  Uiso   1.00
C581   C     0.24147   0.22332   0.50077   0.00000  Uiso   1.00
C582   C     0.25127   0.24263   0.95175   0.00000  Uiso   1.00
C583   C     0.20920   0.22314   0.91995   0.00000  Uiso   1.00
C584   C     0.18361   0.15970   0.56464   0.00000  Uiso   1.00
C585   C     0.27266   0.22616   0.58330   0.00000  Uiso   1.00
C586   C     0.11213   0.16318   0.90364   0.00000  Uiso   1.00
C587   C     0.19022   0.32266   0.75221   0.00000  Uiso   1.00
C588   C     0.13309   0.16521   0.84732   0.00000  Uiso   1.00
C589   C     0.14324   0.01067   0.74738   0.00000  Uiso   1.00
C590   C     0.15164   0.06664   0.74834   0.00000  Uiso   1.00
C591   C     0.20059   0.17163   0.65315   0.00000  Uiso   1.00
C592   C     0.28327   0.24504   0.53358   0.00000  Uiso   1.00
C593   C     0.22162   0.18429   0.59892   0.00000  Uiso   1.00
C594   C     0.05127   0.13524   0.92495   0.00000  Uiso   1.00
C595   C     0.03455   0.12771   0.97758   0.00000  Uiso   1.00
C596   C     0.07917   0.14184   0.50808   0.00000  Uiso   1.00
Cu597  Cu    0.10710   0.16105   0.74435   0.00000  Uiso   1.00
Cu598  Cu    0.22623   0.17228   0.75564   0.00000  Uiso   1.00
H599   H     0.21828   0.24127   0.88338   0.00000  Uiso   1.00
H600   H     0.23548   0.01306   0.75684   0.00000  Uiso   1.00
N601   N     0.31574   0.18074   0.76416   0.00000  Uiso   1.00
N602   N     0.01759   0.15259   0.73584   0.00000  Uiso   1.00
O603   O     0.12797   0.23807   0.74633   0.00000  Uiso   1.00
O604   O     0.22858   0.24755   0.75586   0.00000  Uiso   1.00
O605   O     0.09181   0.15960   0.81839   0.00000  Uiso   1.00
O606   O     0.19242   0.16908   0.82793   0.00000  Uiso   1.00
O607   O     0.10476   0.08578   0.74413   0.00000  Uiso   1.00
O608   O     0.20536   0.09526   0.75367   0.00000  Uiso   1.00
O609   O     0.14092   0.16425   0.67207   0.00000  Uiso   1.00
O610   O     0.24152   0.17373   0.68160   0.00000  Uiso   1.00
O611   O     0.30559   0.25350   0.61919   0.00000  Uiso   1.00
C612   C     0.03356   0.24434   0.60876   0.00000  Uiso   1.00
H613   H     0.03419   0.20225   0.59968   0.00000  Uiso   1.00
H614   H     0.06409   0.26888   0.57727   0.00000  Uiso   1.00
H615   H     0.05385   0.25572   0.64351   0.00000  Uiso   1.00
H616   H     0.09797   0.32024   0.74276   0.00000  Uiso   1.00
H617   H     0.00595   0.21231   0.78301   0.00000  Uiso   1.00
O618   O     0.31910   0.10750   0.71747   0.00000  Uiso   1.00
C619   C     0.01798   0.09686   0.66797   0.00000  Uiso   1.00
H620   H     0.05692   0.07762   0.66926   0.00000  Uiso   1.00
H621   H     0.03481   0.13268   0.64499   0.00000  Uiso   1.00
H622   H     0.31829   0.06881   0.64794   0.00000  Uiso   1.00
H623   H     0.29165   0.27317   0.93758   0.00000  Uiso   1.00
O624   O     0.00063   0.28551   0.51745   0.00000  Uiso   1.00
C625   C     0.31688   0.00060   0.53381   0.00000  Uiso   1.00
H626   H     0.30003   0.00337   0.57601   0.00000  Uiso   1.00
H627   H     0.28072   0.00742   0.51384   0.00000  Uiso   1.00
H628   H     0.02573   0.03240   0.52403   0.00000  Uiso   1.00
O629   O     0.14262   0.11227   0.57749   0.00000  Uiso   1.00
C630   C     0.17347   0.07115   0.55780   0.00000  Uiso   1.00
H631   H     0.21493   0.07297   0.57520   0.00000  Uiso   1.00
H632   H     0.18761   0.07168   0.51525   0.00000  Uiso   1.00
H633   H     0.14058   0.03305   0.56776   0.00000  Uiso   1.00
O634   O     0.00682   0.11829   0.89489   0.00000  Uiso   1.00
C635   C     0.33035   0.06304   0.88792   0.00000  Uiso   1.00
H636   H     0.30658   0.04318   0.92432   0.00000  Uiso   1.00
H637   H     0.04171   0.05011   0.87183   0.00000  Uiso   1.00
H638   H     0.29920   0.05030   0.86000   0.00000  Uiso   1.00
H639   H     0.06296   0.13414   0.54818   0.00000  Uiso   1.00
H640   H     0.32026   0.10931   0.99475   0.00000  Uiso   1.00
C641   C     0.51508   0.26670   0.75149   0.00000  Uiso   1.00
C642   C     0.47431   0.16837   0.98772   0.00000  Uiso   1.00
C643   C     0.48800   0.18449   0.93646   0.00000  Uiso   1.00
C644   C     0.52127   0.18327   0.51793   0.00000  Uiso   1.00
C645   C     0.57481   0.22332   0.50077   0.00000  Uiso   1.00
C646   C     0.58460   0.24263   0.95175   0.00000  Uiso   1.00
C647   C     0.54253   0.22314   0.91995   0.00000  Uiso   1.00
C648   C     0.51694   0.15970   0.56464   0.00000  Uiso   1.00
C649   C     0.60599   0.22616   0.58330   0.00000  Uiso   1.00
C650   C     0.44547   0.16318   0.90364   0.00000  Uiso   1.00
C651   C     0.52355   0.32266   0.75221   0.00000  Uiso   1.00
C652   C     0.46642   0.16521   0.84732   0.00000  Uiso   1.00
C653   C     0.47658   0.01067   0.74738   0.00000  Uiso   1.00
C654   C     0.48497   0.06664   0.74834   0.00000  Uiso   1.00
C655   C     0.53392   0.17163   0.65315   0.00000  Uiso   1.00
C656   C     0.61660   0.24504   0.53358   0.00000  Uiso   1.00
C657   C     0.55495   0.18429   0.59892   0.00000  Uiso   1.00
C658   C     0.38461   0.13524   0.92495   0.00000  Uiso   1.00
C659   C     0.36789   0.12771   0.97758   0.00000  Uiso   1.00
C660   C     0.41251   0.14184   0.50808   0.00000  Uiso   1.00
Cu661  Cu    0.44043   0.16105   0.74435   0.00000  Uiso   1.00
Cu662  Cu    0.55957   0.17228   0.75564   0.00000  Uiso   1.00
H663   H     0.55161   0.24127   0.88338   0.00000  Uiso   1.00
H664   H     0.56881   0.01306   0.75684   0.00000  Uiso   1.00
N665   N     0.64908   0.18074   0.76416   0.00000  Uiso   1.00
N666   N     0.35092   0.15259   0.73584   0.00000  Uiso   1.00
O667   O     0.46131   0.23807   0.74633   0.00000  Uiso   1.00
O668   O     0.56191   0.24755   0.75586   0.00000  Uiso   1.00
O669   O     0.42515   0.15960   0.81839   0.00000  Uiso   1.00
O670   O     0.52575   0.16908   0.82793   0.00000  Uiso   1.00
O671   O     0.43809   0.08578   0.74413   0.00000  Uiso   1.00
O672   O     0.53869   0.09526   0.75367   0.00000  Uiso   1.00
O673   O     0.47425   0.16425   0.67207   0.00000  Uiso   1.00
O674   O     0.57485   0.17373   0.68160   0.00000  Uiso   1.00
O675   O     0.63893   0.25350   0.61919   0.00000  Uiso   1.00
C676   C     0.36689   0.24434   0.60876   0.00000  Uiso   1.00
H677   H     0.36752   0.20225   0.59968   0.00000  Uiso   1.00
H678   H     0.39742   0.26888   0.57727   0.00000  Uiso   1.00
H679   H     0.38718   0.25572   0.64351   0.00000  Uiso   1.00
H680   H     0.43131   0.32024   0.74276   0.00000  Uiso   1.00
H681   H     0.33928   0.21231   0.78301   0.00000  Uiso   1.00
O682   O     0.65243   0.10750   0.71747   0.00000  Uiso   1.00
C683   C     0.35131   0.09686   0.66797   0.00000  Uiso   1.00
H684   H     0.39025   0.07762   0.66926   0.00000  Uiso   1.00
H685   H     0.36814   0.13268   0.64499   0.00000  Uiso   1.00
H686   H     0.65162   0.06881   0.64794   0.00000  Uiso   1.00
H687   H     0.62498   0.27317   0.93758   0.00000  Uiso   1.00
O688   O     0.33397   0.28551   0.51745   0.00000  Uiso   1.00
C689   C     0.65021   0.00060   0.53381   0.00000  Uiso   1.00
H690   H     0.63336   0.00337   0.57601   0.00000  Uiso   1.00
H691   H     0.61405   0.00742   0.51384   0.00000  Uiso   1.00
H692   H     0.35907   0.03240   0.52403   0.00000  Uiso   1.00
O693   O     0.47596   0.11227   0.57749   0.00000  Uiso   1.00
C694   C     0.50680   0.07115   0.55780   0.00000  Uiso   1.00
H695   H     0.54826   0.07297   0.57520   0.00000  Uiso   1.00
H696   H     0.52095   0.07168   0.51525   0.00000  Uiso   1.00
H697   H     0.47391   0.03305   0.56776   0.00000  Uiso   1.00
O698   O     0.34015   0.11829   0.89489   0.00000  Uiso   1.00
C699   C     0.66368   0.06304   0.88792   0.00000  Uiso   1.00
H700   H     0.63991   0.04318   0.92432   0.00000  Uiso   1.00
H701   H     0.37504   0.05011   0.87183   0.00000  Uiso   1.00
H702   H     0.63253   0.05030   0.86000   0.00000  Uiso   1.00
H703   H     0.39629   0.13414   0.54818   0.00000  Uiso   1.00
H704   H     0.65359   0.10931   0.99475   0.00000  Uiso   1.00
C705   C     0.84842   0.26670   0.75149   0.00000  Uiso   1.00
C706   C     0.80764   0.16837   0.98772   0.00000  Uiso   1.00
C707   C     0.82134   0.18449   0.93646   0.00000  Uiso   1.00
C708   C     0.85460   0.18327   0.51793   0.00000  Uiso   1.00
C709   C     0.90814   0.22332   0.50077   0.00000  Uiso   1.00
C710   C     0.91793   0.24263   0.95175   0.00000  Uiso   1.00
C711   C     0.87586   0.22314   0.91995   0.00000  Uiso   1.00
C712   C     0.85028   0.15970   0.56464   0.00000  Uiso   1.00
C713   C     0.93932   0.22616   0.58330   0.00000  Uiso   1.00
C714   C     0.77880   0.16318   0.90364   0.00000  Uiso   1.00
C715   C     0.85689   0.32266   0.75221   0.00000  Uiso   1.00
C716   C     0.79976   0.16521   0.84732   0.00000  Uiso   1.00
C717   C     0.80991   0.01067   0.74738   0.00000  Uiso   1.00
C718   C     0.81831   0.06664   0.74834   0.00000  Uiso   1.00
C719   C     0.86725   0.17163   0.65315   0.00000  Uiso   1.00
C720   C     0.94993   0.24504   0.53358   0.00000  Uiso   1.00
C721   C     0.88828   0.18429   0.59892   0.00000  Uiso   1.00
C722   C     0.71794   0.13524   0.92495   0.00000  Uiso   1.00
C723   C     0.70122   0.12771   0.97758   0.00000  Uiso   1.00
C724   C     0.74584   0.14184   0.50808   0.00000  Uiso   1.00
Cu725  Cu    0.77377   0.16105   0.74435   0.00000  Uiso   1.00
Cu726  Cu    0.89290   0.17228   0.75564   0.00000  Uiso   1.00
H727   H     0.88494   0.24127   0.88338   0.00000  Uiso   1.00
H728   H     0.90214   0.01306   0.75684   0.00000  Uiso   1.00
N729   N     0.98241   0.18074   0.76416   0.00000  Uiso   1.00
N730   N     0.68426   0.15259   0.73584   0.00000  Uiso   1.00
O731   O     0.79464   0.23807   0.74633   0.00000  Uiso   1.00
O732   O     0.89524   0.24755   0.75586   0.00000  Uiso   1.00
O733   O     0.75848   0.15960   0.81839   0.00000  Uiso   1.00
O734   O     0.85908   0.16908   0.82793   0.00000  Uiso   1.00
O735   O     0.77142   0.08578   0.74413   0.00000  Uiso   1.00
O736   O     0.87203   0.09526   0.75367   0.00000  Uiso   1.00
O737   O     0.80758   0.16425   0.67207   0.00000  Uiso   1.00
O738   O     0.90819   0.17373   0.68160   0.00000  Uiso   1.00
O739   O     0.97226   0.25350   0.61919   0.00000  Uiso   1.00
C740   C     0.70023   0.24434   0.60876   0.00000  Uiso   1.00
H741   H     0.70086   0.20225   0.59968   0.00000  Uiso   1.00
H742   H     0.73076   0.26888   0.57727   0.00000  Uiso   1.00
H743   H     0.72051   0.25572   0.64351   0.00000  Uiso   1.00
H744   H     0.76464   0.32024   0.74276   0.00000  Uiso   1.00
H745   H     0.67262   0.21231   0.78301   0.00000  Uiso   1.00
O746   O     0.98577   0.10750   0.71747   0.00000  Uiso   1.00
C747   C     0.68465   0.09686   0.66797   0.00000  Uiso   1.00
H748   H     0.72358   0.07762   0.66926   0.00000  Uiso   1.00
H749   H     0.70147   0.13268   0.64499   0.00000  Uiso   1.00
H750   H     0.98496   0.06881   0.64794   0.00000  Uiso   1.00
H751   H     0.95831   0.27317   0.93758   0.00000  Uiso   1.00
O752   O     0.66730   0.28551   0.51745   0.00000  Uiso   1.00
C753   C     0.98355   0.00060   0.53381   0.00000  Uiso   1.00
H754   H     0.96669   0.00337   0.57601   0.00000  Uiso   1.00
H755   H     0.94739   0.00742   0.51384   0.00000  Uiso   1.00
H756   H     0.69240   0.03240   0.52403   0.00000  Uiso   1.00
O757   O     0.80929   0.11227   0.57749   0.00000  Uiso   1.00
C758   C     0.84014   0.07115   0.55780   0.00000  Uiso   1.00
H759   H     0.88159   0.07297   0.57520   0.00000  Uiso   1.00
H760   H     0.85428   0.07168   0.51525   0.00000  Uiso   1.00
H761   H     0.80724   0.03305   0.56776   0.00000  Uiso   1.00
O762   O     0.67348   0.11829   0.89489   0.00000  Uiso   1.00
C763   C     0.99702   0.06304   0.88792   0.00000  Uiso   1.00
H764   H     0.97324   0.04318   0.92432   0.00000  Uiso   1.00
H765   H     0.70837   0.05011   0.87183   0.00000  Uiso   1.00
H766   H     0.96587   0.05030   0.86000   0.00000  Uiso   1.00
H767   H     0.72963   0.13414   0.54818   0.00000  Uiso   1.00
H768   H     0.98692   0.10931   0.99475   0.00000  Uiso   1.00
C769   C     0.18175   0.60003   0.75149   0.00000  Uiso   1.00
C770   C     0.14098   0.50170   0.98772   0.00000  Uiso   1.00
C771   C     0.15467   0.51783   0.93646   0.00000  Uiso   1.00
C772   C     0.18794   0.51661   0.51793   0.00000  Uiso   1.00
C773   C     0.24147   0.55666   0.50077   0.00000  Uiso   1.00
C774   C     0.25127   0.57597   0.95175   0.00000  Uiso   1.00
C775   C     0.20920   0.55648   0.91995   0.00000  Uiso   1.00
C776   C     0.18361   0.49303   0.56464   0.00000  Uiso   1.00
C777   C     0.27266   0.55949   0.58330   0.00000  Uiso   1.00
C778   C     0.11213   0.49652   0.90364   0.00000  Uiso   1.00
C779   C     0.19022   0.65599   0.75221   0.00000  Uiso   1.00
C780   C     0.13309   0.49854   0.84732   0.00000  Uiso   1.00
C781   C     0.14324   0.34400   0.74738   0.00000  Uiso   1.00
C782   C     0.15164   0.39997   0.74834   0.00000  Uiso   1.00
C783   C     0.20059   0.50496   0.65315   0.00000  Uiso   1.00
C784   C     0.28327   0.57837   0.53358   0.00000  Uiso   1.00
C785   C     0.22162   0.51763   0.59892   0.00000  Uiso   1.00
C786   C     0.05127   0.46857   0.92495   0.00000  Uiso   1.00
C787   C     0.03455   0.46105   0.97758   0.00000  Uiso   1.00
C788   C     0.07917   0.47517   0.50808   0.00000  Uiso   1.00
Cu789  Cu    0.10710   0.49439   0.74435   0.00000  Uiso   1.00
Cu790  Cu    0.22623   0.50561   0.75564   0.00000  Uiso   1.00
H791   H     0.21828   0.57460   0.88338   0.00000  Uiso   1.00
H792   H     0.23548   0.34640   0.75684   0.00000  Uiso   1.00
N793   N     0.31574   0.51407   0.76416   0.00000  Uiso   1.00
N794   N     0.01759   0.48593   0.73584   0.00000  Uiso   1.00
O795   O     0.12797   0.57141   0.74633   0.00000  Uiso   1.00
O796   O     0.22858   0.58089   0.75586   0.00000  Uiso   1.00
O797   O     0.09181   0.49293   0.81839   0.00000  Uiso   1.00
O798   O     0.19242   0.50241   0.82793   0.00000  Uiso   1.00
O799   O     0.10476   0.41911   0.74413   0.00000  Uiso   1.00
O800   O     0.20536   0.42859   0.75367   0.00000  Uiso   1.00
O801   O     0.14092   0.49759   0.67207   0.00000  Uiso   1.00
O802   O     0.24152   0.50707   0.68160   0.00000  Uiso   1.00
O803   O     0.30559   0.58684   0.61919   0.00000  Uiso   1.00
C804   C     0.03356   0.57767   0.60876   0.00000  Uiso   1.00
H805   H     0.03419   0.53558   0.59968   0.00000  Uiso   1.00
H806   H     0.06409   0.60221   0.57727   0.00000  Uiso   1.00
H807   H     0.05385   0.58905   0.64351   0.00000  Uiso   1.00
H808   H     0.09797   0.65357   0.74276   0.00000  Uiso   1.00
H809   H     0.00595   0.54564   0.78301   0.00000  Uiso   1.00
O810   O     0.31910   0.44083   0.71747   0.00000  Uiso   1.00
C811   C     0.01798   0.43020   0.66797   0.00000  Uiso   1.00
H812   H     0.05692   0.41095   0.66926   0.00000  Uiso   1.00
H813   H     0.03481   0.46601   0.64499   0.00000  Uiso   1.00
H814   H     0.31829   0.40214   0.64794   0.00000  Uiso   1.00
H815   H     0.29165   0.60650   0.93758   0.00000  Uiso   1.00
O816   O     0.00063   0.61884   0.51745   0.00000  Uiso   1.00
C817   C     0.31688   0.33393   0.53381   0.00000  Uiso   1.00
H818   H     0.30003   0.33670   0.57601   0.00000  Uiso   1.00
H819   H     0.28072   0.34075   0.51384   0.00000  Uiso   1.00
H820   H     0.02573   0.36573   0.52403   0.00000  Uiso   1.00
O821   O     0.14262   0.44560   0.57749   0.00000  Uiso   1.00
C822   C     0.17347   0.40449   0.55780   0.00000  Uiso   1.00
H823   H     0.21493   0.40631   0.57520   0.00000  Uiso   1.00
H824   H     0.18761   0.40501   0.51525   0.00000  Uiso   1.00
H825   H     0.14058   0.36639   0.56776   0.00000  Uiso   1.00
O826   O     0.00682   0.45162   0.89489   0.00000  Uiso   1.00
C827   C     0.33035   0.39638   0.88792   0.00000  Uiso   1.00
H828   H     0.30658   0.37652   0.92432   0.00000  Uiso   1.00
H829   H     0.04171   0.38344   0.87183   0.00000  Uiso   1.00
H830   H     0.29920   0.38364   0.86000   0.00000  Uiso   1.00
H831   H     0.06296   0.46747   0.54818   0.00000  Uiso   1.00
H832   H     0.32026   0.44265   0.99475   0.00000  Uiso   1.00
C833   C     0.51508   0.60003   0.75149   0.00000  Uiso   1.00
C834   C     0.47431   0.50170   0.98772   0.00000  Uiso   1.00
C835   C     0.48800   0.51783   0.93646   0.00000  Uiso   1.00
C836   C     0.52127   0.51661   0.51793   0.00000  Uiso   1.00
C837   C     0.57481   0.55666   0.50077   0.00000  Uiso   1.00
C838   C     0.58460   0.57597   0.95175   0.00000  Uiso   1.00
C839   C     0.54253   0.55648   0.91995   0.00000  Uiso   1.00
C840   C     0.51694   0.49303   0.56464   0.00000  Uiso   1.00
C841   C     0.60599   0.55949   0.58330   0.00000  Uiso   1.00
C842   C     0.44547   0.49652   0.90364   0.00000  Uiso   1.00
C843   C     0.52355   0.65599   0.75221   0.00000  Uiso   1.00
C844   C     0.46642   0.49854   0.84732   0.00000  Uiso   1.00
C845   C     0.47658   0.34400   0.74738   0.00000  Uiso   1.00
C846   C     0.48497   0.39997   0.74834   0.00000  Uiso   1.00
C847   C     0.53392   0.50496   0.65315   0.00000  Uiso   1.00
C848   C     0.61660   0.57837   0.53358   0.00000  Uiso   1.00
C849   C     0.55495   0.51763   0.59892   0.00000  Uiso   1.00
C850   C     0.38461   0.46857   0.92495   0.00000  Uiso   1.00
C851   C     0.36789   0.46105   0.97758   0.00000  Uiso   1.00
C852   C     0.41251   0.47517   0.50808   0.00000  Uiso   1.00
Cu853  Cu    0.44043   0.49439   0.74435   0.00000  Uiso   1.00
Cu854  Cu    0.55957   0.50561   0.75564   0.00000  Uiso   1.00
H855   H     0.55161   0.57460   0.88338   0.00000  Uiso   1.00
H856   H     0.56881   0.34640   0.75684   0.00000  Uiso   1.00
N857   N     0.64908   0.51407   0.76416   0.00000  Uiso   1.00
N858   N     0.35092   0.48593   0.73584   0.00000  Uiso   1.00
O859   O     0.46131   0.57141   0.74633   0.00000  Uiso   1.00
O860   O     0.56191   0.58089   0.75586   0.00000  Uiso   1.00
O861   O     0.42515   0.49293   0.81839   0.00000  Uiso   1.00
O862   O     0.52575   0.50241   0.82793   0.00000  Uiso   1.00
O863   O     0.43809   0.41911   0.74413   0.00000  Uiso   1.00
O864   O     0.53869   0.42859   0.75367   0.00000  Uiso   1.00
O865   O     0.47425   0.49759   0.67207   0.00000  Uiso   1.00
O866   O     0.57485   0.50707   0.68160   0.00000  Uiso   1.00
O867   O     0.63893   0.58684   0.61919   0.00000  Uiso   1.00
C868   C     0.36689   0.57767   0.60876   0.00000  Uiso   1.00
H869   H     0.36752   0.53558   0.59968   0.00000  Uiso   1.00
H870   H     0.39742   0.60221   0.57727   0.00000  Uiso   1.00
H871   H     0.38718   0.58905   0.64351   0.00000  Uiso   1.00
H872   H     0.43131   0.65357   0.74276   0.00000  Uiso   1.00
H873   H     0.33928   0.54564   0.78301   0.00000  Uiso   1.00
O874   O     0.65243   0.44083   0.71747   0.00000  Uiso   1.00
C875   C     0.35131   0.43020   0.66797   0.00000  Uiso   1.00
H876   H     0.39025   0.41095   0.66926   0.00000  Uiso   1.00
H877   H     0.36814   0.46601   0.64499   0.00000  Uiso   1.00
H878   H     0.65162   0.40214   0.64794   0.00000  Uiso   1.00
H879   H     0.62498   0.60650   0.93758   0.00000  Uiso   1.00
O880   O     0.33397   0.61884   0.51745   0.00000  Uiso   1.00
C881   C     0.65021   0.33393   0.53381   0.00000  Uiso   1.00
H882   H     0.63336   0.33670   0.57601   0.00000  Uiso   1.00
H883   H     0.61405   0.34075   0.51384   0.00000  Uiso   1.00
H884   H     0.35907   0.36573   0.52403   0.00000  Uiso   1.00
O885   O     0.47596   0.44560   0.57749   0.00000  Uiso   1.00
C886   C     0.50680   0.40449   0.55780   0.00000  Uiso   1.00
H887   H     0.54826   0.40631   0.57520   0.00000  Uiso   1.00
H888   H     0.52095   0.40501   0.51525   0.00000  Uiso   1.00
H889   H     0.47391   0.36639   0.56776   0.00000  Uiso   1.00
O890   O     0.34015   0.45162   0.89489   0.00000  Uiso   1.00
C891   C     0.66368   0.39638   0.88792   0.00000  Uiso   1.00
H892   H     0.63991   0.37652   0.92432   0.00000  Uiso   1.00
H893   H     0.37504   0.38344   0.87183   0.00000  Uiso   1.00
H894   H     0.63253   0.38364   0.86000   0.00000  Uiso   1.00
H895   H     0.39629   0.46747   0.54818   0.00000  Uiso   1.00
H896   H     0.65359   0.44265   0.99475   0.00000  Uiso   1.00
C897   C     0.84842   0.60003   0.75149   0.00000  Uiso   1.00
C898   C     0.80764   0.50170   0.98772   0.00000  Uiso   1.00
C899   C     0.82134   0.51783   0.93646   0.00000  Uiso   1.00
C900   C     0.85460   0.51661   0.51793   0.00000  Uiso   1.00
C901   C     0.90814   0.55666   0.50077   0.00000  Uiso   1.00
C902   C     0.91793   0.57597   0.95175   0.00000  Uiso   1.00
C903   C     0.87586   0.55648   0.91995   0.00000  Uiso   1.00
C904   C     0.85028   0.49303   0.56464   0.00000  Uiso   1.00
C905   C     0.93932   0.55949   0.58330   0.00000  Uiso   1.00
C906   C     0.77880   0.49652   0.90364   0.00000  Uiso   1.00
C907   C     0.85689   0.65599   0.75221   0.00000  Uiso   1.00
C908   C     0.79976   0.49854   0.84732   0.00000  Uiso   1.00
C909   C     0.80991   0.34400   0.74738   0.00000  Uiso   1.00
C910   C     0.81831   0.39997   0.74834   0.00000  Uiso   1.00
C911   C     0.86725   0.50496   0.65315   0.00000  Uiso   1.00
C912   C     0.94993   0.57837   0.53358   0.00000  Uiso   1.00
C913   C     0.88828   0.51763   0.59892   0.00000  Uiso   1.00
C914   C     0.71794   0.46857   0.92495   0.00000  Uiso   1.00
C915   C     0.70122   0.46105   0.97758   0.00000  Uiso   1.00
C916   C     0.74584   0.47517   0.50808   0.00000  Uiso   1.00
Cu917  Cu    0.77377   0.49439   0.74435   0.00000  Uiso   1.00
Cu918  Cu    0.89290   0.50561   0.75564   0.00000  Uiso   1.00
H919   H     0.88494   0.57460   0.88338   0.00000  Uiso   1.00
H920   H     0.90214   0.34640   0.75684   0.00000  Uiso   1.00
N921   N     0.98241   0.51407   0.76416   0.00000  Uiso   1.00
N922   N     0.68426   0.48593   0.73584   0.00000  Uiso   1.00
O923   O     0.79464   0.57141   0.74633   0.00000  Uiso   1.00
O924   O     0.89524   0.58089   0.75586   0.00000  Uiso   1.00
O925   O     0.75848   0.49293   0.81839   0.00000  Uiso   1.00
O926   O     0.85908   0.50241   0.82793   0.00000  Uiso   1.00
O927   O     0.77142   0.41911   0.74413   0.00000  Uiso   1.00
O928   O     0.87203   0.42859   0.75367   0.00000  Uiso   1.00
O929   O     0.80758   0.49759   0.67207   0.00000  Uiso   1.00
O930   O     0.90819   0.50707   0.68160   0.00000  Uiso   1.00
O931   O     0.97226   0.58684   0.61919   0.00000  Uiso   1.00
C932   C     0.70023   0.57767   0.60876   0.00000  Uiso   1.00
H933   H     0.70086   0.53558   0.59968   0.00000  Uiso   1.00
H934   H     0.73076   0.60221   0.57727   0.00000  Uiso   1.00
H935   H     0.72051   0.58905   0.64351   0.00000  Uiso   1.00
H936   H     0.76464   0.65357   0.74276   0.00000  Uiso   1.00
H937   H     0.67262   0.54564   0.78301   0.00000  Uiso   1.00
O938   O     0.98577   0.44083   0.71747   0.00000  Uiso   1.00
C939   C     0.68465   0.43020   0.66797   0.00000  Uiso   1.00
H940   H     0.72358   0.41095   0.66926   0.00000  Uiso   1.00
H941   H     0.70147   0.46601   0.64499   0.00000  Uiso   1.00
H942   H     0.98496   0.40214   0.64794   0.00000  Uiso   1.00
H943   H     0.95831   0.60650   0.93758   0.00000  Uiso   1.00
O944   O     0.66730   0.61884   0.51745   0.00000  Uiso   1.00
C945   C     0.98355   0.33393   0.53381   0.00000  Uiso   1.00
H946   H     0.96669   0.33670   0.57601   0.00000  Uiso   1.00
H947   H     0.94739   0.34075   0.51384   0.00000  Uiso   1.00
H948   H     0.69240   0.36573   0.52403   0.00000  Uiso   1.00
O949   O     0.80929   0.44560   0.57749   0.00000  Uiso   1.00
C950   C     0.84014   0.40449   0.55780   0.00000  Uiso   1.00
H951   H     0.88159   0.40631   0.57520   0.00000  Uiso   1.00
H952   H     0.85428   0.40501   0.51525   0.00000  Uiso   1.00
H953   H     0.80724   0.36639   0.56776   0.00000  Uiso   1.00
O954   O     0.67348   0.45162   0.89489   0.00000  Uiso   1.00
C955   C     0.99702   0.39638   0.88792   0.00000  Uiso   1.00
H956   H     0.97324   0.37652   0.92432   0.00000  Uiso   1.00
H957   H     0.70837   0.38344   0.87183   0.00000  Uiso   1.00
H958   H     0.96587   0.38364   0.86000   0.00000  Uiso   1.00
H959   H     0.72963   0.46747   0.54818   0.00000  Uiso   1.00
H960   H     0.98692   0.44265   0.99475   0.00000  Uiso   1.00
C961   C     0.18175   0.93336   0.75149   0.00000  Uiso   1.00
C962   C     0.14098   0.83503   0.98772   0.00000  Uiso   1.00
C963   C     0.15467   0.85116   0.93646   0.00000  Uiso   1.00
C964   C     0.18794   0.84994   0.51793   0.00000  Uiso   1.00
C965   C     0.24147   0.88999   0.50077   0.00000  Uiso   1.00
C966   C     0.25127   0.90930   0.95175   0.00000  Uiso   1.00
C967   C     0.20920   0.88981   0.91995   0.00000  Uiso   1.00
C968   C     0.18361   0.82637   0.56464   0.00000  Uiso   1.00
C969   C     0.27266   0.89283   0.58330   0.00000  Uiso   1.00
C970   C     0.11213   0.82985   0.90364   0.00000  Uiso   1.00
C971   C     0.19022   0.98932   0.75221   0.00000  Uiso   1.00
C972   C     0.13309   0.83188   0.84732   0.00000  Uiso   1.00
C973   C     0.14324   0.67733   0.74738   0.00000  Uiso   1.00
C974   C     0.15164   0.73330   0.74834   0.00000  Uiso   1.00
C975   C     0.20059   0.83830   0.65315   0.00000  Uiso   1.00
C976   C     0.28327   0.91171   0.53358   0.00000  Uiso   1.00
C977   C     0.22162   0.85096   0.59892   0.00000  Uiso   1.00
C978   C     0.05127   0.80191   0.92495   0.00000  Uiso   1.00
C979   C     0.03455   0.79438   0.97758   0.00000  Uiso   1.00
C980   C     0.07917   0.80850   0.50808   0.00000  Uiso   1.00
Cu981  Cu    0.10710   0.82772   0.74435   0.00000  Uiso   1.00
Cu982  Cu    0.22623   0.83895   0.75564   0.00000  Uiso   1.00
H983   H     0.21828   0.90793   0.88338   0.00000  Uiso   1.00
H984   H     0.23548   0.67973   0.75684   0.00000  Uiso   1.00
N985   N     0.31574   0.84741   0.76416   0.00000  Uiso   1.00
N986   N     0.01759   0.81926   0.73584   0.00000  Uiso   1.00
O987   O     0.12797   0.90474   0.74633   0.00000  Uiso   1.00
O988   O     0.22858   0.91422   0.75586   0.00000  Uiso   1.00
O989   O     0.09181   0.82627   0.81839   0.00000  Uiso   1.00
O990   O     0.19242   0.83575   0.82793   0.00000  Uiso   1.00
O991   O     0.10476   0.75245   0.74413   0.00000  Uiso   1.00
O992   O     0.20536   0.76193   0.75367   0.00000  Uiso   1.00
O993   O     0.14092   0.83092   0.67207   0.00000  Uiso   1.00
O994   O     0.24152   0.84040   0.68160   0.00000  Uiso   1.00
O995   O     0.30559   0.92017   0.61919   0.00000  Uiso   1.00
C996   C     0.03356   0.91101   0.60876   0.00000  Uiso   1.00
H997   H     0.03419   0.86892   0.59968   0.00000  Uiso   1.00
H998   H     0.06409   0.93554   0.57727   0.00000  Uiso   1.00
H999   H     0.05385   0.92239   0.64351   0.00000  Uiso   1.00
H1000  H     0.09797   0.98690   0.74276   0.00000  Uiso   1.00
H1001  H     0.00595   0.87897   0.78301   0.00000  Uiso   1.00
O1002  O     0.31910   0.77416   0.71747   0.00000  Uiso   1.00
C1003  C     0.01798   0.76353   0.66797   0.00000  Uiso   1.00
H1004  H     0.05692   0.74429   0.66926   0.00000  Uiso   1.00
H1005  H     0.03481   0.79935   0.64499   0.00000  Uiso   1.00
H1006  H     0.31829   0.73547   0.64794   0.00000  Uiso   1.00
H1007  H     0.29165   0.93984   0.93758   0.00000  Uiso   1.00
O1008  O     0.00063   0.95218   0.51745   0.00000  Uiso   1.00
C1009  C     0.31688   0.66727   0.53381   0.00000  Uiso   1.00
H1010  H     0.30003   0.67004   0.57601   0.00000  Uiso   1.00
H1011  H     0.28072   0.67409   0.51384   0.00000  Uiso   1.00
H1012  H     0.02573   0.69907   0.52403   0.00000  Uiso   1.00
O1013  O     0.14262   0.77893   0.57749   0.00000  Uiso   1.00
C1014  C     0.17347   0.73782   0.55780   0.00000  Uiso   1.00
H1015  H     0.21493   0.73964   0.57520   0.00000  Uiso   1.00
H1016  H     0.18761   0.73835   0.51525   0.00000  Uiso   1.00
H1017  H     0.14058   0.69972   0.56776   0.00000  Uiso   1.00
O1018  O     0.00682   0.78496   0.89489   0.00000  Uiso   1.00
C1019  C     0.33035   0.72971   0.88792   0.00000  Uiso   1.00
H1020  H     0.30658   0.70985   0.92432   0.00000  Uiso   1.00
H1021  H     0.04171   0.71678   0.87183   0.00000  Uiso   1.00
H1022  H     0.29920   0.71697   0.86000   0.00000  Uiso   1.00
H1023  H     0.06296   0.80081   0.54818   0.00000  Uiso   1.00
H1024  H     0.32026   0.77598   0.99475   0.00000  Uiso   1.00
C1025  C     0.51508   0.93336   0.75149   0.00000  Uiso   1.00
C1026  C     0.47431   0.83503   0.98772   0.00000  Uiso   1.00
C1027  C     0.48800   0.85116   0.93646   0.00000  Uiso   1.00
C1028  C     0.52127   0.84994   0.51793   0.00000  Uiso   1.00
C1029  C     0.57481   0.88999   0.50077   0.00000  Uiso   1.00
C1030  C     0.58460   0.90930   0.95175   0.00000  Uiso   1.00
C1031  C     0.54253   0.88981   0.91995   0.00000  Uiso   1.00
C1032  C     0.51694   0.82637   0.56464   0.00000  Uiso   1.00
C1033  C     0.60599   0.89283   0.58330   0.00000  Uiso   1.00
C1034  C     0.44547   0.82985   0.90364   0.00000  Uiso   1.00
C1035  C     0.52355   0.98932   0.75221   0.00000  Uiso   1.00
C1036  C     0.46642   0.83188   0.84732   0.00000  Uiso   1.00
C1037  C     0.47658   0.67733   0.74738   0.00000  Uiso   1.00
C1038  C     0.48497   0.73330   0.74834   0.00000  Uiso   1.00
C1039  C     0.53392   0.83830   0.65315   0.00000  Uiso   1.00
C1040  C     0.61660   0.91171   0.53358   0.00000  Uiso   1.00
C1041  C     0.55495   0.85096   0.59892   0.00000  Uiso   1.00
C1042  C     0.38461   0.80191   0.92495   0.00000  Uiso   1.00
C1043  C     0.36789   0.79438   0.97758   0.00000  Uiso   1.00
C1044  C     0.41251   0.80850   0.50808   0.00000  Uiso   1.00
Cu1045 Cu    0.44043   0.82772   0.74435   0.00000  Uiso   1.00
Cu1046 Cu    0.55957   0.83895   0.75564   0.00000  Uiso   1.00
H1047  H     0.55161   0.90793   0.88338   0.00000  Uiso   1.00
H1048  H     0.56881   0.67973   0.75684   0.00000  Uiso   1.00
N1049  N     0.64908   0.84741   0.76416   0.00000  Uiso   1.00
N1050  N     0.35092   0.81926   0.73584   0.00000  Uiso   1.00
O1051  O     0.46131   0.90474   0.74633   0.00000  Uiso   1.00
O1052  O     0.56191   0.91422   0.75586   0.00000  Uiso   1.00
O1053  O     0.42515   0.82627   0.81839   0.00000  Uiso   1.00
O1054  O     0.52575   0.83575   0.82793   0.00000  Uiso   1.00
O1055  O     0.43809   0.75245   0.74413   0.00000  Uiso   1.00
O1056  O     0.53869   0.76193   0.75367   0.00000  Uiso   1.00
O1057  O     0.47425   0.83092   0.67207   0.00000  Uiso   1.00
O1058  O     0.57485   0.84040   0.68160   0.00000  Uiso   1.00
O1059  O     0.63893   0.92017   0.61919   0.00000  Uiso   1.00
C1060  C     0.36689   0.91101   0.60876   0.00000  Uiso   1.00
H1061  H     0.36752   0.86892   0.59968   0.00000  Uiso   1.00
H1062  H     0.39742   0.93554   0.57727   0.00000  Uiso   1.00
H1063  H     0.38718   0.92239   0.64351   0.00000  Uiso   1.00
H1064  H     0.43131   0.98690   0.74276   0.00000  Uiso   1.00
H1065  H     0.33928   0.87897   0.78301   0.00000  Uiso   1.00
O1066  O     0.65243   0.77416   0.71747   0.00000  Uiso   1.00
C1067  C     0.35131   0.76353   0.66797   0.00000  Uiso   1.00
H1068  H     0.39025   0.74429   0.66926   0.00000  Uiso   1.00
H1069  H     0.36814   0.79935   0.64499   0.00000  Uiso   1.00
H1070  H     0.65162   0.73547   0.64794   0.00000  Uiso   1.00
H1071  H     0.62498   0.93984   0.93758   0.00000  Uiso   1.00
O1072  O     0.33397   0.95218   0.51745   0.00000  Uiso   1.00
C1073  C     0.65021   0.66727   0.53381   0.00000  Uiso   1.00
H1074  H     0.63336   0.67004   0.57601   0.00000  Uiso   1.00
H1075  H     0.61405   0.67409   0.51384   0.00000  Uiso   1.00
H1076  H     0.35907   0.69907   0.52403   0.00000  Uiso   1.00
O1077  O     0.47596   0.77893   0.57749   0.00000  Uiso   1.00
C1078  C     0.50680   0.73782   0.55780   0.00000  Uiso   1.00
H1079  H     0.54826   0.73964   0.57520   0.00000  Uiso   1.00
H1080  H     0.52095   0.73835   0.51525   0.00000  Uiso   1.00
H1081  H     0.47391   0.69972   0.56776   0.00000  Uiso   1.00
O1082  O     0.34015   0.78496   0.89489   0.00000  Uiso   1.00
C1083  C     0.66368   0.72971   0.88792   0.00000  Uiso   1.00
H1084  H     0.63991   0.70985   0.92432   0.00000  Uiso   1.00
H1085  H     0.37504   0.71678   0.87183   0.00000  Uiso   1.00
H1086  H     0.63253   0.71697   0.86000   0.00000  Uiso   1.00
H1087  H     0.39629   0.80081   0.54818   0.00000  Uiso   1.00
H1088  H     0.65359   0.77598   0.99475   0.00000  Uiso   1.00
C1089  C     0.84842   0.93336   0.75149   0.00000  Uiso   1.00
C1090  C     0.80764   0.83503   0.98772   0.00000  Uiso   1.00
C1091  C     0.82134   0.85116   0.93646   0.00000  Uiso   1.00
C1092  C     0.85460   0.84994   0.51793   0.00000  Uiso   1.00
C1093  C     0.90814   0.88999   0.50077   0.00000  Uiso   1.00
C1094  C     0.91793   0.90930   0.95175   0.00000  Uiso   1.00
C1095  C     0.87586   0.88981   0.91995   0.00000  Uiso   1.00
C1096  C     0.85028   0.82637   0.56464   0.00000  Uiso   1.00
C1097  C     0.93932   0.89283   0.58330   0.00000  Uiso   1.00
C1098  C     0.77880   0.82985   0.90364   0.00000  Uiso   1.00
C1099  C     0.85689   0.98932   0.75221   0.00000  Uiso   1.00
C1100  C     0.79976   0.83188   0.84732   0.00000  Uiso   1.00
C1101  C     0.80991   0.67733   0.74738   0.00000  Uiso   1.00
C1102  C     0.81831   0.73330   0.74834   0.00000  Uiso   1.00
C1103  C     0.86725   0.83830   0.65315   0.00000  Uiso   1.00
C1104  C     0.94993   0.91171   0.53358   0.00000  Uiso   1.00
C1105  C     0.88828   0.85096   0.59892   0.00000  Uiso   1.00
C1106  C     0.71794   0.80191   0.92495   0.00000  Uiso   1.00
C1107  C     0.70122   0.79438   0.97758   0.00000  Uiso   1.00
C1108  C     0.74584   0.80850   0.50808   0.00000  Uiso   1.00
Cu1109 Cu    0.77377   0.82772   0.74435   0.00000  Uiso   1.00
Cu1110 Cu    0.89290   0.83895   0.75564   0.00000  Uiso   1.00
H1111  H     0.88494   0.90793   0.88338   0.00000  Uiso   1.00
H1112  H     0.90214   0.67973   0.75684   0.00000  Uiso   1.00
N1113  N     0.98241   0.84741   0.76416   0.00000  Uiso   1.00
N1114  N     0.68426   0.81926   0.73584   0.00000  Uiso   1.00
O1115  O     0.79464   0.90474   0.74633   0.00000  Uiso   1.00
O1116  O     0.89524   0.91422   0.75586   0.00000  Uiso   1.00
O1117  O     0.75848   0.82627   0.81839   0.00000  Uiso   1.00
O1118  O     0.85908   0.83575   0.82793   0.00000  Uiso   1.00
O1119  O     0.77142   0.75245   0.74413   0.00000  Uiso   1.00
O1120  O     0.87203   0.76193   0.75367   0.00000  Uiso   1.00
O1121  O     0.80758   0.83092   0.67207   0.00000  Uiso   1.00
O1122  O     0.90819   0.84040   0.68160   0.00000  Uiso   1.00
O1123  O     0.97226   0.92017   0.61919   0.00000  Uiso   1.00
C1124  C     0.70023   0.91101   0.60876   0.00000  Uiso   1.00
H1125  H     0.70086   0.86892   0.59968   0.00000  Uiso   1.00
H1126  H     0.73076   0.93554   0.57727   0.00000  Uiso   1.00
H1127  H     0.72051   0.92239   0.64351   0.00000  Uiso   1.00
H1128  H     0.76464   0.98690   0.74276   0.00000  Uiso   1.00
H1129  H     0.67262   0.87897   0.78301   0.00000  Uiso   1.00
O1130  O     0.98577   0.77416   0.71747   0.00000  Uiso   1.00
C1131  C     0.68465   0.76353   0.66797   0.00000  Uiso   1.00
H1132  H     0.72358   0.74429   0.66926   0.00000  Uiso   1.00
H1133  H     0.70147   0.79935   0.64499   0.00000  Uiso   1.00
H1134  H     0.98496   0.73547   0.64794   0.00000  Uiso   1.00
H1135  H     0.95831   0.93984   0.93758   0.00000  Uiso   1.00
O1136  O     0.66730   0.95218   0.51745   0.00000  Uiso   1.00
C1137  C     0.98355   0.66727   0.53381   0.00000  Uiso   1.00
H1138  H     0.96669   0.67004   0.57601   0.00000  Uiso   1.00
H1139  H     0.94739   0.67409   0.51384   0.00000  Uiso   1.00
H1140  H     0.69240   0.69907   0.52403   0.00000  Uiso   1.00
O1141  O     0.80929   0.77893   0.57749   0.00000  Uiso   1.00
C1142  C     0.84014   0.73782   0.55780   0.00000  Uiso   1.00
H1143  H     0.88159   0.73964   0.57520   0.00000  Uiso   1.00
H1144  H     0.85428   0.73835   0.51525   0.00000  Uiso   1.00
H1145  H     0.80724   0.69972   0.56776   0.00000  Uiso   1.00
O1146  O     0.67348   0.78496   0.89489   0.00000  Uiso   1.00
C1147  C     0.99702   0.72971   0.88792   0.00000  Uiso   1.00
H1148  H     0.97324   0.70985   0.92432   0.00000  Uiso   1.00
H1149  H     0.70837   0.71678   0.87183   0.00000  Uiso   1.00
H1150  H     0.96587   0.71697   0.86000   0.00000  Uiso   1.00
H1151  H     0.72963   0.80081   0.54818   0.00000  Uiso   1.00
H1152  H     0.98692   0.77598   0.99475   0.00000  Uiso   1.00
loop_
_geom_bond_atom_site_label_1
_geom_bond_atom_site_label_2
_geom_bond_distance
_geom_bond_site_symmetry_2
_ccdc_geom_bond_type
C1     O28     1.288   .     A
C1     C11     1.428   .     S
C1     O27     1.294   .     A
C2     C3      1.416   .     A
C2     C580    1.426   .     S
C2     C596    1.413   .     S
C3     C10     1.422   .     A
C3     C7      1.410   .     A
C4     C8      1.412   .     A
C4     C5      1.420   .     A
C4     C578    1.426   1_554 S
C5     C16     1.412   .     A
C5     C582    1.398   1_554 S
C6     C7      1.386   .     A
C6     H47     1.083   .     S
C6     C581    1.398   .     S
C7     H23     1.081   .     S
C8     O53     1.383   .     S
C8     C17     1.402   .     A
C9     C17     1.407   .     A
C9     C16     1.409   .     A
C9     O35     1.387   .     S
C10    C12     1.479   .     S
C10    C18     1.414   .     A
C11    C205    1.328   .     S
C11    H216    1.087   .     S
C12    O29     1.303   .     A
C12    O30     1.301   .     A
C13    C14     1.428   .     S
C13    C395    1.328   1_545 S
C13    H424    1.088   1_545 S
C14    O31     1.287   .     A
C14    O32     1.294   .     A
C15    O34     1.300   .     A
C15    C17     1.466   .     S
C15    O33     1.298   .     A
C16    O112    1.383   .     S
C18    O58     1.384   .     S
C18    C19     1.395   .     A
C19    C596    1.389   .     S
C19    H192    1.083   1_455 S
C20    H63     1.076   .     S
C20    C595    1.389   1_554 S
C20    C578    1.413   1_554 S
Cu21   N26     2.024   .     S
Cu21   Cu22    2.694   .     S
Cu21   O27     1.956   .     S
Cu21   O31     1.952   .     S
Cu21   O33     1.920   .     S
Cu21   O29     1.937   .     S
Cu22   O28     1.952   .     S
Cu22   O34     1.937   .     S
Cu22   O32     1.956   .     S
Cu22   O30     1.920   .     S
Cu22   N25     2.024   .     S
H24    C395    1.087   1_545 S
N25    N90     1.282   .     S
N25    H105    1.029   .     S
N26    N153    1.282   1_455 S
N26    O170    1.345   1_455 S
O35    C100    1.410   .     S
C36    H38     1.109   .     S
C36    H37     1.107   .     S
C36    H39     1.110   .     S
C36    O163    1.410   1_455 S
H40    C205    1.088   .     S
H41    N153    1.029   1_455 S
O42    N90     1.345   .     S
O42    C107    1.403   .     S
C43    H45     1.109   .     S
C43    H44     1.107   .     S
C43    O170    1.403   1_455 S
C43    H174    1.109   1_455 S
H46    C107    1.109   .     S
O48    C144    1.383   1_455 S
O48    C369    1.410   1_455 S
C49    H50     1.112   .     S
C49    H51     1.112   .     S
C49    O496    1.410   1_545 S
C49    H116    1.107   .     S
H52    C177    1.107   1_455 S
O53    C54     1.410   .     S
C54    H56     1.114   .     S
C54    H55     1.114   .     S
C54    H57     1.109   .     S
O58    C187    1.411   1_455 S
C59    H60     1.111   .     S
C59    H62     1.110   .     S
C59    O122    1.411   .     S
C59    H125    1.114   .     S
H61    C187    1.114   1_455 S
H64    C83     1.083   .     S
C65    O92     1.288   .     A
C65    C75     1.428   .     S
C65    O91     1.294   .     A
C66    C67     1.416   .     A
C66    C644    1.426   .     S
C66    C660    1.413   .     S
C67    C74     1.422   .     A
C67    C71     1.410   .     A
C68    C72     1.412   .     A
C68    C69     1.420   .     A
C68    C642    1.426   1_554 S
C69    C80     1.412   .     A
C69    C646    1.398   1_554 S
C70    C71     1.386   .     A
C70    H111    1.083   .     S
C70    C645    1.398   .     S
C71    H87     1.081   .     S
C72    O117    1.383   .     S
C72    C81     1.402   .     A
C73    C81     1.407   .     A
C73    C80     1.409   .     A
C73    O99     1.387   .     S
C74    C76     1.479   .     S
C74    C82     1.414   .     A
C75    C269    1.328   .     S
C75    H280    1.087   .     S
C76    O93     1.303   .     A
C76    O94     1.301   .     A
C77    C78     1.428   .     S
C77    C459    1.328   1_545 S
C77    H488    1.088   1_545 S
C78    O95     1.287   .     A
C78    O96     1.294   .     A
C79    O98     1.300   .     A
C79    C81     1.466   .     S
C79    O97     1.298   .     A
C80    O176    1.383   .     S
C82    O122    1.384   .     S
C82    C83     1.395   .     A
C83    C660    1.389   .     S
C84    H127    1.076   .     S
C84    C659    1.389   1_554 S
C84    C642    1.413   1_554 S
Cu85   N90     2.024   .     S
Cu85   Cu86    2.694   .     S
Cu85   O91     1.956   .     S
Cu85   O95     1.952   .     S
Cu85   O97     1.920   .     S
Cu85   O93     1.937   .     S
Cu86   O92     1.952   .     S
Cu86   O98     1.937   .     S
Cu86   O96     1.956   .     S
Cu86   O94     1.920   .     S
Cu86   N89     2.024   .     S
H88    C459    1.087   1_545 S
N89    N154    1.282   .     S
N89    H169    1.029   .     S
O99    C164    1.410   .     S
C100   H102    1.109   .     S
C100   H101    1.107   .     S
C100   H103    1.110   .     S
H104   C269    1.088   .     S
O106   N154    1.345   .     S
O106   C171    1.403   .     S
C107   H109    1.109   .     S
C107   H108    1.107   .     S
H110   C171    1.109   .     S
O112   C241    1.410   .     S
C113   H114    1.112   .     S
C113   H115    1.112   .     S
C113   O560    1.410   1_545 S
C113   H180    1.107   .     S
O117   C118    1.410   .     S
C118   H120    1.114   .     S
C118   H119    1.114   .     S
C118   H121    1.109   .     S
C123   H124    1.111   .     S
C123   H126    1.110   .     S
C123   O186    1.411   .     S
C123   H189    1.114   .     S
H128   C147    1.083   .     S
C129   O156    1.288   .     A
C129   C139    1.428   .     S
C129   O155    1.294   .     A
C130   C131    1.416   .     A
C130   C708    1.426   .     S
C130   C724    1.413   .     S
C131   C138    1.422   .     A
C131   C135    1.410   .     A
C132   C136    1.412   .     A
C132   C133    1.420   .     A
C132   C706    1.426   1_554 S
C133   C144    1.412   .     A
C133   C710    1.398   1_554 S
C134   C135    1.386   .     A
C134   H175    1.083   .     S
C134   C709    1.398   .     S
C135   H151    1.081   .     S
C136   O181    1.383   .     S
C136   C145    1.402   .     A
C137   C145    1.407   .     A
C137   C144    1.409   .     A
C137   O163    1.387   .     S
C138   C140    1.479   .     S
C138   C146    1.414   .     A
C139   C333    1.328   .     S
C139   H344    1.087   .     S
C140   O157    1.303   .     A
C140   O158    1.301   .     A
C141   C142    1.428   .     S
C141   C523    1.328   1_545 S
C141   H552    1.088   1_545 S
C142   O159    1.287   .     A
C142   O160    1.294   .     A
C143   O162    1.300   .     A
C143   C145    1.466   .     S
C143   O161    1.298   .     A
C144   O48     1.383   1_655 S
C146   O186    1.384   .     S
C146   C147    1.395   .     A
C147   C724    1.389   .     S
C148   H191    1.076   .     S
C148   C723    1.389   1_554 S
C148   C706    1.413   1_554 S
Cu149  N154    2.024   .     S
Cu149  Cu150   2.694   .     S
Cu149  O155    1.956   .     S
Cu149  O159    1.952   .     S
Cu149  O161    1.920   .     S
Cu149  O157    1.937   .     S
Cu150  O156    1.952   .     S
Cu150  O162    1.937   .     S
Cu150  O160    1.956   .     S
Cu150  O158    1.920   .     S
Cu150  N153    2.024   .     S
H152   C523    1.087   1_545 S
N153   N26     1.282   1_655 S
N153   H41     1.029   1_655 S
O163   C36     1.410   1_655 S
C164   H166    1.109   .     S
C164   H165    1.107   .     S
C164   H167    1.110   .     S
H168   C333    1.088   .     S
O170   N26     1.345   1_655 S
O170   C43     1.403   1_655 S
C171   H173    1.109   .     S
C171   H172    1.107   .     S
H174   C43     1.109   1_655 S
O176   C305    1.410   .     S
C177   H178    1.112   .     S
C177   H179    1.112   .     S
C177   O432    1.410   1_645 S
C177   H52     1.107   1_655 S
O181   C182    1.410   .     S
C182   H184    1.114   .     S
C182   H183    1.114   .     S
C182   H185    1.109   .     S
C187   H188    1.111   .     S
C187   H190    1.110   .     S
C187   O58     1.411   1_655 S
C187   H61     1.114   1_655 S
H192   C19     1.083   1_655 S
C193   O220    1.288   .     A
C193   C203    1.428   .     S
C193   O219    1.294   .     A
C194   C195    1.416   .     A
C194   C772    1.426   .     S
C194   C788    1.413   .     S
C195   C202    1.422   .     A
C195   C199    1.410   .     A
C196   C200    1.412   .     A
C196   C197    1.420   .     A
C196   C770    1.426   1_554 S
C197   C208    1.412   .     A
C197   C774    1.398   1_554 S
C198   C199    1.386   .     A
C198   H239    1.083   .     S
C198   C773    1.398   .     S
C199   H215    1.081   .     S
C200   O245    1.383   .     S
C200   C209    1.402   .     A
C201   C209    1.407   .     A
C201   C208    1.409   .     A
C201   O227    1.387   .     S
C202   C204    1.479   .     S
C202   C210    1.414   .     A
C203   C397    1.328   .     S
C203   H408    1.087   .     S
C204   O221    1.303   .     A
C204   O222    1.301   .     A
C205   C206    1.428   .     S
C206   O223    1.287   .     A
C206   O224    1.294   .     A
C207   O226    1.300   .     A
C207   C209    1.466   .     S
C207   O225    1.298   .     A
C208   O304    1.383   .     S
C210   O250    1.384   .     S
C210   C211    1.395   .     A
C211   C788    1.389   .     S
C211   H384    1.083   1_455 S
C212   H255    1.076   .     S
C212   C787    1.389   1_554 S
C212   C770    1.413   1_554 S
Cu213  N218    2.024   .     S
Cu213  Cu214   2.694   .     S
Cu213  O219    1.956   .     S
Cu213  O223    1.952   .     S
Cu213  O225    1.920   .     S
Cu213  O221    1.937   .     S
Cu214  O220    1.952   .     S
Cu214  O226    1.937   .     S
Cu214  O224    1.956   .     S
Cu214  O222    1.920   .     S
Cu214  N217    2.024   .     S
N217   N282    1.282   .     S
N217   H297    1.029   .     S
N218   N345    1.282   1_455 S
N218   O362    1.345   1_455 S
O227   C292    1.410   .     S
C228   H230    1.109   .     S
C228   H229    1.107   .     S
C228   H231    1.110   .     S
C228   O355    1.410   1_455 S
H232   C397    1.088   .     S
H233   N345    1.029   1_455 S
O234   N282    1.345   .     S
O234   C299    1.403   .     S
C235   H237    1.109   .     S
C235   H236    1.107   .     S
C235   O362    1.403   1_455 S
C235   H366    1.109   1_455 S
H238   C299    1.109   .     S
O240   C336    1.383   1_455 S
O240   C561    1.410   1_455 S
C241   H242    1.112   .     S
C241   H243    1.112   .     S
C241   H308    1.107   .     S
H244   C369    1.107   1_455 S
O245   C246    1.410   .     S
C246   H248    1.114   .     S
C246   H247    1.114   .     S
C246   H249    1.109   .     S
O250   C379    1.411   1_455 S
C251   H252    1.111   .     S
C251   H254    1.110   .     S
C251   O314    1.411   .     S
C251   H317    1.114   .     S
H253   C379    1.114   1_455 S
H256   C275    1.083   .     S
C257   O284    1.288   .     A
C257   C267    1.428   .     S
C257   O283    1.294   .     A
C258   C259    1.416   .     A
C258   C836    1.426   .     S
C258   C852    1.413   .     S
C259   C266    1.422   .     A
C259   C263    1.410   .     A
C260   C264    1.412   .     A
C260   C261    1.420   .     A
C260   C834    1.426   1_554 S
C261   C272    1.412   .     A
C261   C838    1.398   1_554 S
C262   C263    1.386   .     A
C262   H303    1.083   .     S
C262   C837    1.398   .     S
C263   H279    1.081   .     S
C264   O309    1.383   .     S
C264   C273    1.402   .     A
C265   C273    1.407   .     A
C265   C272    1.409   .     A
C265   O291    1.387   .     S
C266   C268    1.479   .     S
C266   C274    1.414   .     A
C267   C461    1.328   .     S
C267   H472    1.087   .     S
C268   O285    1.303   .     A
C268   O286    1.301   .     A
C269   C270    1.428   .     S
C270   O287    1.287   .     A
C270   O288    1.294   .     A
C271   O290    1.300   .     A
C271   C273    1.466   .     S
C271   O289    1.298   .     A
C272   O368    1.383   .     S
C274   O314    1.384   .     S
C274   C275    1.395   .     A
C275   C852    1.389   .     S
C276   H319    1.076   .     S
C276   C851    1.389   1_554 S
C276   C834    1.413   1_554 S
Cu277  N282    2.024   .     S
Cu277  Cu278   2.694   .     S
Cu277  O283    1.956   .     S
Cu277  O287    1.952   .     S
Cu277  O289    1.920   .     S
Cu277  O285    1.937   .     S
Cu278  O284    1.952   .     S
Cu278  O290    1.937   .     S
Cu278  O288    1.956   .     S
Cu278  O286    1.920   .     S
Cu278  N281    2.024   .     S
N281   N346    1.282   .     S
N281   H361    1.029   .     S
O291   C356    1.410   .     S
C292   H294    1.109   .     S
C292   H293    1.107   .     S
C292   H295    1.110   .     S
H296   C461    1.088   .     S
O298   N346    1.345   .     S
O298   C363    1.403   .     S
C299   H301    1.109   .     S
C299   H300    1.107   .     S
H302   C363    1.109   .     S
O304   C433    1.410   .     S
C305   H306    1.112   .     S
C305   H307    1.112   .     S
C305   H372    1.107   .     S
O309   C310    1.410   .     S
C310   H312    1.114   .     S
C310   H311    1.114   .     S
C310   H313    1.109   .     S
C315   H316    1.111   .     S
C315   H318    1.110   .     S
C315   O378    1.411   .     S
C315   H381    1.114   .     S
H320   C339    1.083   .     S
C321   O348    1.288   .     A
C321   C331    1.428   .     S
C321   O347    1.294   .     A
C322   C323    1.416   .     A
C322   C900    1.426   .     S
C322   C916    1.413   .     S
C323   C330    1.422   .     A
C323   C327    1.410   .     A
C324   C328    1.412   .     A
C324   C325    1.420   .     A
C324   C898    1.426   1_554 S
C325   C336    1.412   .     A
C325   C902    1.398   1_554 S
C326   C327    1.386   .     A
C326   H367    1.083   .     S
C326   C901    1.398   .     S
C327   H343    1.081   .     S
C328   O373    1.383   .     S
C328   C337    1.402   .     A
C329   C337    1.407   .     A
C329   C336    1.409   .     A
C329   O355    1.387   .     S
C330   C332    1.479   .     S
C330   C338    1.414   .     A
C331   C525    1.328   .     S
C331   H536    1.087   .     S
C332   O349    1.303   .     A
C332   O350    1.301   .     A
C333   C334    1.428   .     S
C334   O351    1.287   .     A
C334   O352    1.294   .     A
C335   O354    1.300   .     A
C335   C337    1.466   .     S
C335   O353    1.298   .     A
C336   O240    1.383   1_655 S
C338   O378    1.384   .     S
C338   C339    1.395   .     A
C339   C916    1.389   .     S
C340   H383    1.076   .     S
C340   C915    1.389   1_554 S
C340   C898    1.413   1_554 S
Cu341  N346    2.024   .     S
Cu341  Cu342   2.694   .     S
Cu341  O347    1.956   .     S
Cu341  O351    1.952   .     S
Cu341  O353    1.920   .     S
Cu341  O349    1.937   .     S
Cu342  O348    1.952   .     S
Cu342  O354    1.937   .     S
Cu342  O352    1.956   .     S
Cu342  O350    1.920   .     S
Cu342  N345    2.024   .     S
N345   N218    1.282   1_655 S
N345   H233    1.029   1_655 S
O355   C228    1.410   1_655 S
C356   H358    1.109   .     S
C356   H357    1.107   .     S
C356   H359    1.110   .     S
H360   C525    1.088   .     S
O362   N218    1.345   1_655 S
O362   C235    1.403   1_655 S
C363   H365    1.109   .     S
C363   H364    1.107   .     S
H366   C235    1.109   1_655 S
O368   C497    1.410   .     S
C369   H370    1.112   .     S
C369   H371    1.112   .     S
C369   O48     1.410   1_655 S
C369   H244    1.107   1_655 S
O373   C374    1.410   .     S
C374   H376    1.114   .     S
C374   H375    1.114   .     S
C374   H377    1.109   .     S
C379   H380    1.111   .     S
C379   H382    1.110   .     S
C379   O250    1.411   1_655 S
C379   H253    1.114   1_655 S
H384   C211    1.083   1_655 S
C385   O412    1.288   .     A
C385   C395    1.428   .     S
C385   O411    1.294   .     A
C386   C387    1.416   .     A
C386   C964    1.426   .     S
C386   C980    1.413   .     S
C387   C394    1.422   .     A
C387   C391    1.410   .     A
C388   C392    1.412   .     A
C388   C389    1.420   .     A
C388   C962    1.426   1_554 S
C389   C400    1.412   .     A
C389   C966    1.398   1_554 S
C390   C391    1.386   .     A
C390   H431    1.083   .     S
C390   C965    1.398   .     S
C391   H407    1.081   .     S
C392   O437    1.383   .     S
C392   C401    1.402   .     A
C393   C401    1.407   .     A
C393   C400    1.409   .     A
C393   O419    1.387   .     S
C394   C396    1.479   .     S
C394   C402    1.414   .     A
C395   C13     1.328   1_565 S
C395   H24     1.087   1_565 S
C396   O413    1.303   .     A
C396   O414    1.301   .     A
C397   C398    1.428   .     S
C398   O415    1.287   .     A
C398   O416    1.294   .     A
C399   O418    1.300   .     A
C399   C401    1.466   .     S
C399   O417    1.298   .     A
C400   O496    1.383   .     S
C402   O442    1.384   .     S
C402   C403    1.395   .     A
C403   C980    1.389   .     S
C403   H576    1.083   1_455 S
C404   H447    1.076   .     S
C404   C979    1.389   1_554 S
C404   C962    1.413   1_554 S
Cu405  N410    2.024   .     S
Cu405  Cu406   2.694   .     S
Cu405  O411    1.956   .     S
Cu405  O415    1.952   .     S
Cu405  O417    1.920   .     S
Cu405  O413    1.937   .     S
Cu406  O412    1.952   .     S
Cu406  O418    1.937   .     S
Cu406  O416    1.956   .     S
Cu406  O414    1.920   .     S
Cu406  N409    2.024   .     S
N409   N474    1.282   .     S
N409   H489    1.029   .     S
N410   N537    1.282   1_455 S
N410   O554    1.345   1_455 S
O419   C484    1.410   .     S
C420   H422    1.109   .     S
C420   H421    1.107   .     S
C420   H423    1.110   .     S
C420   O547    1.410   1_455 S
H424   C13     1.088   1_565 S
H425   N537    1.029   1_455 S
O426   N474    1.345   .     S
O426   C491    1.403   .     S
C427   H429    1.109   .     S
C427   H428    1.107   .     S
C427   O554    1.403   1_455 S
C427   H558    1.109   1_455 S
H430   C491    1.109   .     S
O432   C528    1.383   1_455 S
O432   C177    1.410   1_465 S
C433   H434    1.112   .     S
C433   H435    1.112   .     S
C433   H500    1.107   .     S
H436   C561    1.107   1_455 S
O437   C438    1.410   .     S
C438   H440    1.114   .     S
C438   H439    1.114   .     S
C438   H441    1.109   .     S
O442   C571    1.411   1_455 S
C443   H444    1.111   .     S
C443   H446    1.110   .     S
C443   O506    1.411   .     S
C443   H509    1.114   .     S
H445   C571    1.114   1_455 S
H448   C467    1.083   .     S
C449   O476    1.288   .     A
C449   C459    1.428   .     S
C449   O475    1.294   .     A
C450   C451    1.416   .     A
C450   C1028   1.426   .     S
C450   C1044   1.413   .     S
C451   C458    1.422   .     A
C451   C455    1.410   .     A
C452   C456    1.412   .     A
C452   C453    1.420   .     A
C452   C1026   1.426   1_554 S
C453   C464    1.412   .     A
C453   C1030   1.398   1_554 S
C454   C455    1.386   .     A
C454   H495    1.083   .     S
C454   C1029   1.398   .     S
C455   H471    1.081   .     S
C456   O501    1.383   .     S
C456   C465    1.402   .     A
C457   C465    1.407   .     A
C457   C464    1.409   .     A
C457   O483    1.387   .     S
C458   C460    1.479   .     S
C458   C466    1.414   .     A
C459   C77     1.328   1_565 S
C459   H88     1.087   1_565 S
C460   O477    1.303   .     A
C460   O478    1.301   .     A
C461   C462    1.428   .     S
C462   O479    1.287   .     A
C462   O480    1.294   .     A
C463   O482    1.300   .     A
C463   C465    1.466   .     S
C463   O481    1.298   .     A
C464   O560    1.383   .     S
C466   O506    1.384   .     S
C466   C467    1.395   .     A
C467   C1044   1.389   .     S
C468   H511    1.076   .     S
C468   C1043   1.389   1_554 S
C468   C1026   1.413   1_554 S
Cu469  N474    2.024   .     S
Cu469  Cu470   2.694   .     S
Cu469  O475    1.956   .     S
Cu469  O479    1.952   .     S
Cu469  O481    1.920   .     S
Cu469  O477    1.937   .     S
Cu470  O476    1.952   .     S
Cu470  O482    1.937   .     S
Cu470  O480    1.956   .     S
Cu470  O478    1.920   .     S
Cu470  N473    2.024   .     S
N473   N538    1.282   .     S
N473   H553    1.029   .     S
O483   C548    1.410   .     S
C484   H486    1.109   .     S
C484   H485    1.107   .     S
C484   H487    1.110   .     S
H488   C77     1.088   1_565 S
O490   N538    1.345   .     S
O490   C555    1.403   .     S
C491   H493    1.109   .     S
C491   H492    1.107   .     S
H494   C555    1.109   .     S
O496   C49     1.410   1_565 S
C497   H498    1.112   .     S
C497   H499    1.112   .     S
C497   H564    1.107   .     S
O501   C502    1.410   .     S
C502   H504    1.114   .     S
C502   H503    1.114   .     S
C502   H505    1.109   .     S
C507   H508    1.111   .     S
C507   H510    1.110   .     S
C507   O570    1.411   .     S
C507   H573    1.114   .     S
H512   C531    1.083   .     S
C513   O540    1.288   .     A
C513   C523    1.428   .     S
C513   O539    1.294   .     A
C514   C515    1.416   .     A
C514   C1092   1.426   .     S
C514   C1108   1.413   .     S
C515   C522    1.422   .     A
C515   C519    1.410   .     A
C516   C520    1.412   .     A
C516   C517    1.420   .     A
C516   C1090   1.426   1_554 S
C517   C528    1.412   .     A
C517   C1094   1.398   1_554 S
C518   C519    1.386   .     A
C518   H559    1.083   .     S
C518   C1093   1.398   .     S
C519   H535    1.081   .     S
C520   O565    1.383   .     S
C520   C529    1.402   .     A
C521   C529    1.407   .     A
C521   C528    1.409   .     A
C521   O547    1.387   .     S
C522   C524    1.479   .     S
C522   C530    1.414   .     A
C523   C141    1.328   1_565 S
C523   H152    1.087   1_565 S
C524   O541    1.303   .     A
C524   O542    1.301   .     A
C525   C526    1.428   .     S
C526   O543    1.287   .     A
C526   O544    1.294   .     A
C527   O546    1.300   .     A
C527   C529    1.466   .     S
C527   O545    1.298   .     A
C528   O432    1.383   1_655 S
C530   O570    1.384   .     S
C530   C531    1.395   .     A
C531   C1108   1.389   .     S
C532   H575    1.076   .     S
C532   C1107   1.389   1_554 S
C532   C1090   1.413   1_554 S
Cu533  N538    2.024   .     S
Cu533  Cu534   2.694   .     S
Cu533  O539    1.956   .     S
Cu533  O543    1.952   .     S
Cu533  O545    1.920   .     S
Cu533  O541    1.937   .     S
Cu534  O540    1.952   .     S
Cu534  O546    1.937   .     S
Cu534  O544    1.956   .     S
Cu534  O542    1.920   .     S
Cu534  N537    2.024   .     S
N537   N410    1.282   1_655 S
N537   H425    1.029   1_655 S
O547   C420    1.410   1_655 S
C548   H550    1.109   .     S
C548   H549    1.107   .     S
C548   H551    1.110   .     S
H552   C141    1.088   1_565 S
O554   N410    1.345   1_655 S
O554   C427    1.403   1_655 S
C555   H557    1.109   .     S
C555   H556    1.107   .     S
H558   C427    1.109   1_655 S
O560   C113    1.410   1_565 S
C561   H562    1.112   .     S
C561   H563    1.112   .     S
C561   O240    1.410   1_655 S
C561   H436    1.107   1_655 S
O565   C566    1.410   .     S
C566   H568    1.114   .     S
C566   H567    1.114   .     S
C566   H569    1.109   .     S
C571   H572    1.111   .     S
C571   H574    1.110   .     S
C571   O442    1.411   1_655 S
C571   H445    1.114   1_655 S
H576   C403    1.083   1_655 S
C577   O604    1.288   .     A
C577   C587    1.428   .     S
C577   O603    1.294   .     A
C578   C579    1.416   .     A
C578   C4      1.426   1_556 S
C578   C20     1.413   1_556 S
C579   C586    1.422   .     A
C579   C583    1.410   .     A
C580   C584    1.412   .     A
C580   C581    1.420   .     A
C581   C592    1.412   .     A
C582   C583    1.386   .     A
C582   H623    1.083   .     S
C582   C5      1.398   1_556 S
C583   H599    1.081   .     S
C584   O629    1.383   .     S
C584   C593    1.402   .     A
C585   C593    1.407   .     A
C585   C592    1.409   .     A
C585   O611    1.387   .     S
C586   C588    1.479   .     S
C586   C594    1.414   .     A
C587   C781    1.328   .     S
C587   H792    1.087   .     S
C588   O605    1.303   .     A
C588   O606    1.301   .     A
C589   C590    1.428   .     S
C589   C971    1.328   1_545 S
C589   H1000   1.088   1_545 S
C590   O607    1.287   .     A
C590   O608    1.294   .     A
C591   O610    1.300   .     A
C591   C593    1.466   .     S
C591   O609    1.298   .     A
C592   O688    1.383   .     S
C594   O634    1.384   .     S
C594   C595    1.395   .     A
C595   C20     1.389   1_556 S
C595   H768    1.083   1_455 S
C596   H639    1.076   .     S
Cu597  N602    2.024   .     S
Cu597  Cu598   2.694   .     S
Cu597  O603    1.956   .     S
Cu597  O607    1.952   .     S
Cu597  O609    1.920   .     S
Cu597  O605    1.937   .     S
Cu598  O604    1.952   .     S
Cu598  O610    1.937   .     S
Cu598  O608    1.956   .     S
Cu598  O606    1.920   .     S
Cu598  N601    2.024   .     S
H600   C971    1.087   1_545 S
N601   N666    1.282   .     S
N601   H681    1.029   .     S
N602   N729    1.282   1_455 S
N602   O746    1.345   1_455 S
O611   C676    1.410   .     S
C612   H614    1.109   .     S
C612   H613    1.107   .     S
C612   H615    1.110   .     S
C612   O739    1.410   1_455 S
H616   C781    1.088   .     S
H617   N729    1.029   1_455 S
O618   N666    1.345   .     S
O618   C683    1.403   .     S
C619   H621    1.109   .     S
C619   H620    1.107   .     S
C619   O746    1.403   1_455 S
C619   H750    1.109   1_455 S
H622   C683    1.109   .     S
O624   C720    1.383   1_455 S
O624   C945    1.410   1_455 S
C625   H626    1.112   .     S
C625   H627    1.112   .     S
C625   O1072   1.410   1_545 S
C625   H692    1.107   .     S
H628   C753    1.107   1_455 S
O629   C630    1.410   .     S
C630   H632    1.114   .     S
C630   H631    1.114   .     S
C630   H633    1.109   .     S
O634   C763    1.411   1_455 S
C635   H636    1.111   .     S
C635   H638    1.110   .     S
C635   O698    1.411   .     S
C635   H701    1.114   .     S
H637   C763    1.114   1_455 S
H640   C659    1.083   .     S
C641   O668    1.288   .     A
C641   C651    1.428   .     S
C641   O667    1.294   .     A
C642   C643    1.416   .     A
C642   C68     1.426   1_556 S
C642   C84     1.413   1_556 S
C643   C650    1.422   .     A
C643   C647    1.410   .     A
C644   C648    1.412   .     A
C644   C645    1.420   .     A
C645   C656    1.412   .     A
C646   C647    1.386   .     A
C646   H687    1.083   .     S
C646   C69     1.398   1_556 S
C647   H663    1.081   .     S
C648   O693    1.383   .     S
C648   C657    1.402   .     A
C649   C657    1.407   .     A
C649   C656    1.409   .     A
C649   O675    1.387   .     S
C650   C652    1.479   .     S
C650   C658    1.414   .     A
C651   C845    1.328   .     S
C651   H856    1.087   .     S
C652   O669    1.303   .     A
C652   O670    1.301   .     A
C653   C654    1.428   .     S
C653   C1035   1.328   1_545 S
C653   H1064   1.088   1_545 S
C654   O671    1.287   .     A
C654   O672    1.294   .     A
C655   O674    1.300   .     A
C655   C657    1.466   .     S
C655   O673    1.298   .     A
C656   O752    1.383   .     S
C658   O698    1.384   .     S
C658   C659    1.395   .     A
C659   C84     1.389   1_556 S
C660   H703    1.076   .     S
Cu661  N666    2.024   .     S
Cu661  Cu662   2.694   .     S
Cu661  O667    1.956   .     S
Cu661  O671    1.952   .     S
Cu661  O673    1.920   .     S
Cu661  O669    1.937   .     S
Cu662  O668    1.952   .     S
Cu662  O674    1.937   .     S
Cu662  O672    1.956   .     S
Cu662  O670    1.920   .     S
Cu662  N665    2.024   .     S
H664   C1035   1.087   1_545 S
N665   N730    1.282   .     S
N665   H745    1.029   .     S
O675   C740    1.410   .     S
C676   H678    1.109   .     S
C676   H677    1.107   .     S
C676   H679    1.110   .     S
H680   C845    1.088   .     S
O682   N730    1.345   .     S
O682   C747    1.403   .     S
C683   H685    1.109   .     S
C683   H684    1.107   .     S
H686   C747    1.109   .     S
O688   C817    1.410   .     S
C689   H690    1.112   .     S
C689   H691    1.112   .     S
C689   O1136   1.410   1_545 S
C689   H756    1.107   .     S
O693   C694    1.410   .     S
C694   H696    1.114   .     S
C694   H695    1.114   .     S
C694   H697    1.109   .     S
C699   H700    1.111   .     S
C699   H702    1.110   .     S
C699   O762    1.411   .     S
C699   H765    1.114   .     S
H704   C723    1.083   .     S
C705   O732    1.288   .     A
C705   C715    1.428   .     S
C705   O731    1.294   .     A
C706   C707    1.416   .     A
C706   C132    1.426   1_556 S
C706   C148    1.413   1_556 S
C707   C714    1.422   .     A
C707   C711    1.410   .     A
C708   C712    1.412   .     A
C708   C709    1.420   .     A
C709   C720    1.412   .     A
C710   C711    1.386   .     A
C710   H751    1.083   .     S
C710   C133    1.398   1_556 S
C711   H727    1.081   .     S
C712   O757    1.383   .     S
C712   C721    1.402   .     A
C713   C721    1.407   .     A
C713   C720    1.409   .     A
C713   O739    1.387   .     S
C714   C716    1.479   .     S
C714   C722    1.414   .     A
C715   C909    1.328   .     S
C715   H920    1.087   .     S
C716   O733    1.303   .     A
C716   O734    1.301   .     A
C717   C718    1.428   .     S
C717   C1099   1.328   1_545 S
C717   H1128   1.088   1_545 S
C718   O735    1.287   .     A
C718   O736    1.294   .     A
C719   O738    1.300   .     A
C719   C721    1.466   .     S
C719   O737    1.298   .     A
C720   O624    1.383   1_655 S
C722   O762    1.384   .     S
C722   C723    1.395   .     A
C723   C148    1.389   1_556 S
C724   H767    1.076   .     S
Cu725  N730    2.024   .     S
Cu725  Cu726   2.694   .     S
Cu725  O731    1.956   .     S
Cu725  O735    1.952   .     S
Cu725  O737    1.920   .     S
Cu725  O733    1.937   .     S
Cu726  O732    1.952   .     S
Cu726  O738    1.937   .     S
Cu726  O736    1.956   .     S
Cu726  O734    1.920   .     S
Cu726  N729    2.024   .     S
H728   C1099   1.087   1_545 S
N729   N602    1.282   1_655 S
N729   H617    1.029   1_655 S
O739   C612    1.410   1_655 S
C740   H742    1.109   .     S
C740   H741    1.107   .     S
C740   H743    1.110   .     S
H744   C909    1.088   .     S
O746   N602    1.345   1_655 S
O746   C619    1.403   1_655 S
C747   H749    1.109   .     S
C747   H748    1.107   .     S
H750   C619    1.109   1_655 S
O752   C881    1.410   .     S
C753   H754    1.112   .     S
C753   H755    1.112   .     S
C753   O1008   1.410   1_645 S
C753   H628    1.107   1_655 S
O757   C758    1.410   .     S
C758   H760    1.114   .     S
C758   H759    1.114   .     S
C758   H761    1.109   .     S
C763   H764    1.111   .     S
C763   H766    1.110   .     S
C763   O634    1.411   1_655 S
C763   H637    1.114   1_655 S
H768   C595    1.083   1_655 S
C769   O796    1.288   .     A
C769   C779    1.428   .     S
C769   O795    1.294   .     A
C770   C771    1.416   .     A
C770   C196    1.426   1_556 S
C770   C212    1.413   1_556 S
C771   C778    1.422   .     A
C771   C775    1.410   .     A
C772   C776    1.412   .     A
C772   C773    1.420   .     A
C773   C784    1.412   .     A
C774   C775    1.386   .     A
C774   H815    1.083   .     S
C774   C197    1.398   1_556 S
C775   H791    1.081   .     S
C776   O821    1.383   .     S
C776   C785    1.402   .     A
C777   C785    1.407   .     A
C777   C784    1.409   .     A
C777   O803    1.387   .     S
C778   C780    1.479   .     S
C778   C786    1.414   .     A
C779   C973    1.328   .     S
C779   H984    1.087   .     S
C780   O797    1.303   .     A
C780   O798    1.301   .     A
C781   C782    1.428   .     S
C782   O799    1.287   .     A
C782   O800    1.294   .     A
C783   O802    1.300   .     A
C783   C785    1.466   .     S
C783   O801    1.298   .     A
C784   O880    1.383   .     S
C786   O826    1.384   .     S
C786   C787    1.395   .     A
C787   C212    1.389   1_556 S
C787   H960    1.083   1_455 S
C788   H831    1.076   .     S
Cu789  N794    2.024   .     S
Cu789  Cu790   2.694   .     S
Cu789  O795    1.956   .     S
Cu789  O799    1.952   .     S
Cu789  O801    1.920   .     S
Cu789  O797    1.937   .     S
Cu790  O796    1.952   .     S
Cu790  O802    1.937   .     S
Cu790  O800    1.956   .     S
Cu790  O798    1.920   .     S
Cu790  N793    2.024   .     S
N793   N858    1.282   .     S
N793   H873    1.029   .     S
N794   N921    1.282   1_455 S
N794   O938    1.345   1_455 S
O803   C868    1.410   .     S
C804   H806    1.109   .     S
C804   H805    1.107   .     S
C804   H807    1.110   .     S
C804   O931    1.410   1_455 S
H808   C973    1.088   .     S
H809   N921    1.029   1_455 S
O810   N858    1.345   .     S
O810   C875    1.403   .     S
C811   H813    1.109   .     S
C811   H812    1.107   .     S
C811   O938    1.403   1_455 S
C811   H942    1.109   1_455 S
H814   C875    1.109   .     S
O816   C912    1.383   1_455 S
O816   C1137   1.410   1_455 S
C817   H818    1.112   .     S
C817   H819    1.112   .     S
C817   H884    1.107   .     S
H820   C945    1.107   1_455 S
O821   C822    1.410   .     S
C822   H824    1.114   .     S
C822   H823    1.114   .     S
C822   H825    1.109   .     S
O826   C955    1.411   1_455 S
C827   H828    1.111   .     S
C827   H830    1.110   .     S
C827   O890    1.411   .     S
C827   H893    1.114   .     S
H829   C955    1.114   1_455 S
H832   C851    1.083   .     S
C833   O860    1.288   .     A
C833   C843    1.428   .     S
C833   O859    1.294   .     A
C834   C835    1.416   .     A
C834   C260    1.426   1_556 S
C834   C276    1.413   1_556 S
C835   C842    1.422   .     A
C835   C839    1.410   .     A
C836   C840    1.412   .     A
C836   C837    1.420   .     A
C837   C848    1.412   .     A
C838   C839    1.386   .     A
C838   H879    1.083   .     S
C838   C261    1.398   1_556 S
C839   H855    1.081   .     S
C840   O885    1.383   .     S
C840   C849    1.402   .     A
C841   C849    1.407   .     A
C841   C848    1.409   .     A
C841   O867    1.387   .     S
C842   C844    1.479   .     S
C842   C850    1.414   .     A
C843   C1037   1.328   .     S
C843   H1048   1.087   .     S
C844   O861    1.303   .     A
C844   O862    1.301   .     A
C845   C846    1.428   .     S
C846   O863    1.287   .     A
C846   O864    1.294   .     A
C847   O866    1.300   .     A
C847   C849    1.466   .     S
C847   O865    1.298   .     A
C848   O944    1.383   .     S
C850   O890    1.384   .     S
C850   C851    1.395   .     A
C851   C276    1.389   1_556 S
C852   H895    1.076   .     S
Cu853  N858    2.024   .     S
Cu853  Cu854   2.694   .     S
Cu853  O859    1.956   .     S
Cu853  O863    1.952   .     S
Cu853  O865    1.920   .     S
Cu853  O861    1.937   .     S
Cu854  O860    1.952   .     S
Cu854  O866    1.937   .     S
Cu854  O864    1.956   .     S
Cu854  O862    1.920   .     S
Cu854  N857    2.024   .     S
N857   N922    1.282   .     S
N857   H937    1.029   .     S
O867   C932    1.410   .     S
C868   H870    1.109   .     S
C868   H869    1.107   .     S
C868   H871    1.110   .     S
H872   C1037   1.088   .     S
O874   N922    1.345   .     S
O874   C939    1.403   .     S
C875   H877    1.109   .     S
C875   H876    1.107   .     S
H878   C939    1.109   .     S
O880   C1009   1.410   .     S
C881   H882    1.112   .     S
C881   H883    1.112   .     S
C881   H948    1.107   .     S
O885   C886    1.410   .     S
C886   H888    1.114   .     S
C886   H887    1.114   .     S
C886   H889    1.109   .     S
C891   H892    1.111   .     S
C891   H894    1.110   .     S
C891   O954    1.411   .     S
C891   H957    1.114   .     S
H896   C915    1.083   .     S
C897   O924    1.288   .     A
C897   C907    1.428   .     S
C897   O923    1.294   .     A
C898   C899    1.416   .     A
C898   C324    1.426   1_556 S
C898   C340    1.413   1_556 S
C899   C906    1.422   .     A
C899   C903    1.410   .     A
C900   C904    1.412   .     A
C900   C901    1.420   .     A
C901   C912    1.412   .     A
C902   C903    1.386   .     A
C902   H943    1.083   .     S
C902   C325    1.398   1_556 S
C903   H919    1.081   .     S
C904   O949    1.383   .     S
C904   C913    1.402   .     A
C905   C913    1.407   .     A
C905   C912    1.409   .     A
C905   O931    1.387   .     S
C906   C908    1.479   .     S
C906   C914    1.414   .     A
C907   C1101   1.328   .     S
C907   H1112   1.087   .     S
C908   O925    1.303   .     A
C908   O926    1.301   .     A
C909   C910    1.428   .     S
C910   O927    1.287   .     A
C910   O928    1.294   .     A
C911   O930    1.300   .     A
C911   C913    1.466   .     S
C911   O929    1.298   .     A
C912   O816    1.383   1_655 S
C914   O954    1.384   .     S
C914   C915    1.395   .     A
C915   C340    1.389   1_556 S
C916   H959    1.076   .     S
Cu917  N922    2.024   .     S
Cu917  Cu918   2.694   .     S
Cu917  O923    1.956   .     S
Cu917  O927    1.952   .     S
Cu917  O929    1.920   .     S
Cu917  O925    1.937   .     S
Cu918  O924    1.952   .     S
Cu918  O930    1.937   .     S
Cu918  O928    1.956   .     S
Cu918  O926    1.920   .     S
Cu918  N921    2.024   .     S
N921   N794    1.282   1_655 S
N921   H809    1.029   1_655 S
O931   C804    1.410   1_655 S
C932   H934    1.109   .     S
C932   H933    1.107   .     S
C932   H935    1.110   .     S
H936   C1101   1.088   .     S
O938   N794    1.345   1_655 S
O938   C811    1.403   1_655 S
C939   H941    1.109   .     S
C939   H940    1.107   .     S
H942   C811    1.109   1_655 S
O944   C1073   1.410   .     S
C945   H946    1.112   .     S
C945   H947    1.112   .     S
C945   O624    1.410   1_655 S
C945   H820    1.107   1_655 S
O949   C950    1.410   .     S
C950   H952    1.114   .     S
C950   H951    1.114   .     S
C950   H953    1.109   .     S
C955   H956    1.111   .     S
C955   H958    1.110   .     S
C955   O826    1.411   1_655 S
C955   H829    1.114   1_655 S
H960   C787    1.083   1_655 S
C961   O988    1.288   .     A
C961   C971    1.428   .     S
C961   O987    1.294   .     A
C962   C963    1.416   .     A
C962   C388    1.426   1_556 S
C962   C404    1.413   1_556 S
C963   C970    1.422   .     A
C963   C967    1.410   .     A
C964   C968    1.412   .     A
C964   C965    1.420   .     A
C965   C976    1.412   .     A
C966   C967    1.386   .     A
C966   H1007   1.083   .     S
C966   C389    1.398   1_556 S
C967   H983    1.081   .     S
C968   O1013   1.383   .     S
C968   C977    1.402   .     A
C969   C977    1.407   .     A
C969   C976    1.409   .     A
C969   O995    1.387   .     S
C970   C972    1.479   .     S
C970   C978    1.414   .     A
C971   C589    1.328   1_565 S
C971   H600    1.087   1_565 S
C972   O989    1.303   .     A
C972   O990    1.301   .     A
C973   C974    1.428   .     S
C974   O991    1.287   .     A
C974   O992    1.294   .     A
C975   O994    1.300   .     A
C975   C977    1.466   .     S
C975   O993    1.298   .     A
C976   O1072   1.383   .     S
C978   O1018   1.384   .     S
C978   C979    1.395   .     A
C979   C404    1.389   1_556 S
C979   H1152   1.083   1_455 S
C980   H1023   1.076   .     S
Cu981  N986    2.024   .     S
Cu981  Cu982   2.694   .     S
Cu981  O987    1.956   .     S
Cu981  O991    1.952   .     S
Cu981  O993    1.920   .     S
Cu981  O989    1.937   .     S
Cu982  O988    1.952   .     S
Cu982  O994    1.937   .     S
Cu982  O992    1.956   .     S
Cu982  O990    1.920   .     S
Cu982  N985    2.024   .     S
N985   N1050   1.282   .     S
N985   H1065   1.029   .     S
N986   N1113   1.282   1_455 S
N986   O1130   1.345   1_455 S
O995   C1060   1.410   .     S
C996   H998    1.109   .     S
C996   H997    1.107   .     S
C996   H999    1.110   .     S
C996   O1123   1.410   1_455 S
H1000  C589    1.088   1_565 S
H1001  N1113   1.029   1_455 S
O1002  N1050   1.345   .     S
O1002  C1067   1.403   .     S
C1003  H1005   1.109   .     S
C1003  H1004   1.107   .     S
C1003  O1130   1.403   1_455 S
C1003  H1134   1.109   1_455 S
H1006  C1067   1.109   .     S
O1008  C1104   1.383   1_455 S
O1008  C753    1.410   1_465 S
C1009  H1010   1.112   .     S
C1009  H1011   1.112   .     S
C1009  H1076   1.107   .     S
H1012  C1137   1.107   1_455 S
O1013  C1014   1.410   .     S
C1014  H1016   1.114   .     S
C1014  H1015   1.114   .     S
C1014  H1017   1.109   .     S
O1018  C1147   1.411   1_455 S
C1019  H1020   1.111   .     S
C1019  H1022   1.110   .     S
C1019  O1082   1.411   .     S
C1019  H1085   1.114   .     S
H1021  C1147   1.114   1_455 S
H1024  C1043   1.083   .     S
C1025  O1052   1.288   .     A
C1025  C1035   1.428   .     S
C1025  O1051   1.294   .     A
C1026  C1027   1.416   .     A
C1026  C452    1.426   1_556 S
C1026  C468    1.413   1_556 S
C1027  C1034   1.422   .     A
C1027  C1031   1.410   .     A
C1028  C1032   1.412   .     A
C1028  C1029   1.420   .     A
C1029  C1040   1.412   .     A
C1030  C1031   1.386   .     A
C1030  H1071   1.083   .     S
C1030  C453    1.398   1_556 S
C1031  H1047   1.081   .     S
C1032  O1077   1.383   .     S
C1032  C1041   1.402   .     A
C1033  C1041   1.407   .     A
C1033  C1040   1.409   .     A
C1033  O1059   1.387   .     S
C1034  C1036   1.479   .     S
C1034  C1042   1.414   .     A
C1035  C653    1.328   1_565 S
C1035  H664    1.087   1_565 S
C1036  O1053   1.303   .     A
C1036  O1054   1.301   .     A
C1037  C1038   1.428   .     S
C1038  O1055   1.287   .     A
C1038  O1056   1.294   .     A
C1039  O1058   1.300   .     A
C1039  C1041   1.466   .     S
C1039  O1057   1.298   .     A
C1040  O1136   1.383   .     S
C1042  O1082   1.384   .     S
C1042  C1043   1.395   .     A
C1043  C468    1.389   1_556 S
C1044  H1087   1.076   .     S
Cu1045 N1050   2.024   .     S
Cu1045 Cu1046  2.694   .     S
Cu1045 O1051   1.956   .     S
Cu1045 O1055   1.952   .     S
Cu1045 O1057   1.920   .     S
Cu1045 O1053   1.937   .     S
Cu1046 O1052   1.952   .     S
Cu1046 O1058   1.937   .     S
Cu1046 O1056   1.956   .     S
Cu1046 O1054   1.920   .     S
Cu1046 N1049   2.024   .     S
N1049  N1114   1.282   .     S
N1049  H1129   1.029   .     S
O1059  C1124   1.410   .     S
C1060  H1062   1.109   .     S
C1060  H1061   1.107   .     S
C1060  H1063   1.110   .     S
H1064  C653    1.088   1_565 S
O1066  N1114   1.345   .     S
O1066  C1131   1.403   .     S
C1067  H1069   1.109   .     S
C1067  H1068   1.107   .     S
H1070  C1131   1.109   .     S
O1072  C625    1.410   1_565 S
C1073  H1074   1.112   .     S
C1073  H1075   1.112   .     S
C1073  H1140   1.107   .     S
O1077  C1078   1.410   .     S
C1078  H1080   1.114   .     S
C1078  H1079   1.114   .     S
C1078  H1081   1.109   .     S
C1083  H1084   1.111   .     S
C1083  H1086   1.110   .     S
C1083  O1146   1.411   .     S
C1083  H1149   1.114   .     S
H1088  C1107   1.083   .     S
C1089  O1116   1.288   .     A
C1089  C1099   1.428   .     S
C1089  O1115   1.294   .     A
C1090  C1091   1.416   .     A
C1090  C516    1.426   1_556 S
C1090  C532    1.413   1_556 S
C1091  C1098   1.422   .     A
C1091  C1095   1.410   .     A
C1092  C1096   1.412   .     A
C1092  C1093   1.420   .     A
C1093  C1104   1.412   .     A
C1094  C1095   1.386   .     A
C1094  H1135   1.083   .     S
C1094  C517    1.398   1_556 S
C1095  H1111   1.081   .     S
C1096  O1141   1.383   .     S
C1096  C1105   1.402   .     A
C1097  C1105   1.407   .     A
C1097  C1104   1.409   .     A
C1097  O1123   1.387   .     S
C1098  C1100   1.479   .     S
C1098  C1106   1.414   .     A
C1099  C717    1.328   1_565 S
C1099  H728    1.087   1_565 S
C1100  O1117   1.303   .     A
C1100  O1118   1.301   .     A
C1101  C1102   1.428   .     S
C1102  O1119   1.287   .     A
C1102  O1120   1.294   .     A
C1103  O1122   1.300   .     A
C1103  C1105   1.466   .     S
C1103  O1121   1.298   .     A
C1104  O1008   1.383   1_655 S
C1106  O1146   1.384   .     S
C1106  C1107   1.395   .     A
C1107  C532    1.389   1_556 S
C1108  H1151   1.076   .     S
Cu1109 N1114   2.024   .     S
Cu1109 Cu1110  2.694   .     S
Cu1109 O1115   1.956   .     S
Cu1109 O1119   1.952   .     S
Cu1109 O1121   1.920   .     S
Cu1109 O1117   1.937   .     S
Cu1110 O1116   1.952   .     S
Cu1110 O1122   1.937   .     S
Cu1110 O1120   1.956   .     S
Cu1110 O1118   1.920   .     S
Cu1110 N1113   2.024   .     S
N1113  N986    1.282   1_655 S
N1113  H1001   1.029   1_655 S
O1123  C996    1.410   1_655 S
C1124  H1126   1.109   .     S
C1124  H1125   1.107   .     S
C1124  H1127   1.110   .     S
H1128  C717    1.088   1_565 S
O1130  N986    1.345   1_655 S
O1130  C1003   1.403   1_655 S
C1131  H1133   1.109   .     S
C1131  H1132   1.107   .     S
H1134  C1003   1.109   1_655 S
O1136  C689    1.410   1_565 S
C1137  H1138   1.112   .     S
C1137  H1139   1.112   .     S
C1137  O816    1.410   1_655 S
C1137  H1012   1.107   1_655 S
O1141  C1142   1.410   .     S
C1142  H1144   1.114   .     S
C1142  H1143   1.114   .     S
C1142  H1145   1.109   .     S
C1147  H1148   1.111   .     S
C1147  H1150   1.110   .     S
C1147  O1018   1.411   1_655 S
C1147  H1021   1.114   1_655 S
H1152  C979    1.083   1_655 S
