data_str_m2_o10_o18_pcu_sym.29
_audit_creation_date              2020-01-03
_audit_creation_method            'Materials Studio'
_symmetry_space_group_name_H-M    'P1'
_symmetry_Int_Tables_number       1
_symmetry_cell_setting            triclinic
loop_
_symmetry_equiv_pos_as_xyz
  x,y,z
_cell_length_a                    22.4464
_cell_length_b                    26.3753
_cell_length_c                    31.5054
_cell_angle_alpha                 95.4807
_cell_angle_beta                  76.3682
_cell_angle_gamma                 101.4974
loop_
_atom_site_label
_atom_site_type_symbol
_atom_site_fract_x
_atom_site_fract_y
_atom_site_fract_z
_atom_site_U_iso_or_equiv
_atom_site_adp_type
_atom_site_occupancy
C1     C     0.18111   0.26634   0.25131   0.00000  Uiso   1.00
C2     C     0.20471   0.17350   0.16732   0.00000  Uiso   1.00
C3     C     0.10283   0.15787   0.38209   0.00000  Uiso   1.00
C4     C     0.22604   0.18999   0.12175   0.00000  Uiso   1.00
C5     C     0.02156   0.12361   0.44465   0.00000  Uiso   1.00
C6     C     0.26900   0.26301   0.07527   0.00000  Uiso   1.00
C7     C     0.04186   0.12939   0.39951   0.00000  Uiso   1.00
C8     C     0.26750   0.23789   0.11258   0.00000  Uiso   1.00
C9     C     0.13972   0.18198   0.41220   0.00000  Uiso   1.00
C10    C     0.19105   0.16615   0.09069   0.00000  Uiso   1.00
C11    C     0.11666   0.17809   0.45815   0.00000  Uiso   1.00
C12    C     0.15230   0.06721   0.24970   0.00000  Uiso   1.00
C13    C     0.18591   0.19585   0.05664   0.00000  Uiso   1.00
C14    C     0.05958   0.14488   0.47341   0.00000  Uiso   1.00
C15    C     0.22827   0.24322   0.04796   0.00000  Uiso   1.00
C16    C     0.15103   0.20285   0.48959   0.00000  Uiso   1.00
C17    C     0.14101   0.18032   0.03024   0.00000  Uiso   1.00
C18    C     0.16951   0.10867   0.08961   0.00000  Uiso   1.00
C19    C     0.20556   0.20462   0.39577   0.00000  Uiso   1.00
C20    C     0.30856   0.26504   0.14138   0.00000  Uiso   1.00
C21    C     0.33115   0.10107   0.37305   0.00000  Uiso   1.00
C22    C     0.28828   0.01840   0.26112   0.00000  Uiso   1.00
C23    C     0.08348   0.14739   0.04470   0.00000  Uiso   1.00
C24    C     0.09965   0.00267   0.33057   0.00000  Uiso   1.00
C25    C     0.33180   0.22987   0.31976   0.00000  Uiso   1.00
C26    C     0.01650   0.10169   0.17737   0.00000  Uiso   1.00
C27    C     0.19188   0.25082   0.48297   0.00000  Uiso   1.00
C28    C     0.04200   0.13182   0.01725   0.00000  Uiso   1.00
C29    C     0.22931   0.27102   0.01211   0.00000  Uiso   1.00
C30    C     0.19126   0.32150   0.24734   0.00000  Uiso   1.00
C31    C     0.14321   0.01364   0.25879   0.00000  Uiso   1.00
C32    C     0.12811   0.16214   0.33347   0.00000  Uiso   1.00
Cu33   Cu    0.10737   0.16108   0.24517   0.00000  Uiso   1.00
Cu34   Cu    0.22596   0.17225   0.25484   0.00000  Uiso   1.00
H35    H     0.33102   0.10706   0.02966   0.00000  Uiso   1.00
H36    H     0.28131   0.09739   0.38618   0.00000  Uiso   1.00
H37    H     0.32629   0.32928   0.24880   0.00000  Uiso   1.00
H38    H     0.26282   0.00589   0.29449   0.00000  Uiso   1.00
H39    H     0.30959   0.05955   0.26516   0.00000  Uiso   1.00
H40    H     0.12027   0.04379   0.33760   0.00000  Uiso   1.00
H41    H     0.13020   0.31008   0.33622   0.00000  Uiso   1.00
H42    H     0.05453   0.32695   0.35451   0.00000  Uiso   1.00
H43    H     0.04772   0.24277   0.30616   0.00000  Uiso   1.00
H44    H     0.30289   0.25610   0.31228   0.00000  Uiso   1.00
H45    H     0.32899   0.23148   0.35523   0.00000  Uiso   1.00
H46    H     0.26029   0.30803   0.00597   0.00000  Uiso   1.00
H47    H     0.04325   0.10366   0.14322   0.00000  Uiso   1.00
H48    H     0.30152   0.08226   0.17664   0.00000  Uiso   1.00
H49    H     0.03873   0.07784   0.19388   0.00000  Uiso   1.00
H50    H     0.30995   0.09971   0.45735   0.00000  Uiso   1.00
H51    H     0.30096   0.29947   0.06825   0.00000  Uiso   1.00
H52    H     0.06894   0.13553   0.07785   0.00000  Uiso   1.00
H53    H     0.19376   0.27392   0.45594   0.00000  Uiso   1.00
H54    H     0.15368   0.08857   0.06152   0.00000  Uiso   1.00
H55    H     0.21790   0.23568   0.37339   0.00000  Uiso   1.00
H56    H     0.31421   0.30684   0.14668   0.00000  Uiso   1.00
N57    N     0.31506   0.18068   0.26212   0.00000  Uiso   1.00
N58    N     0.01827   0.15265   0.23788   0.00000  Uiso   1.00
O59    O     0.12815   0.23809   0.24686   0.00000  Uiso   1.00
O60    O     0.24594   0.18884   0.40805   0.00000  Uiso   1.00
O61    O     0.00681   0.24201   0.15654   0.00000  Uiso   1.00
O62    O     0.01559   0.07824   0.33835   0.00000  Uiso   1.00
O63    O     0.25110   0.01352   0.22977   0.00000  Uiso   1.00
O64    O     0.08881   0.32721   0.28766   0.00000  Uiso   1.00
O65    O     0.31485   0.17877   0.30455   0.00000  Uiso   1.00
O66    O     0.01588   0.15240   0.19564   0.00000  Uiso   1.00
O67    O     0.20518   0.09524   0.25314   0.00000  Uiso   1.00
O68    O     0.22829   0.24753   0.25503   0.00000  Uiso   1.00
O69    O     0.10504   0.08580   0.24498   0.00000  Uiso   1.00
O70    O     0.08851   0.15930   0.30855   0.00000  Uiso   1.00
O71    O     0.24482   0.17403   0.19146   0.00000  Uiso   1.00
O72    O     0.18866   0.16874   0.31671   0.00000  Uiso   1.00
O73    O     0.14468   0.16460   0.18329   0.00000  Uiso   1.00
O74    O     0.17224   0.08245   0.11878   0.00000  Uiso   1.00
C75    C     0.51445   0.26634   0.25131   0.00000  Uiso   1.00
C76    C     0.53805   0.17350   0.16732   0.00000  Uiso   1.00
C77    C     0.43617   0.15787   0.38209   0.00000  Uiso   1.00
C78    C     0.55938   0.18999   0.12175   0.00000  Uiso   1.00
C79    C     0.35490   0.12361   0.44465   0.00000  Uiso   1.00
C80    C     0.60233   0.26301   0.07527   0.00000  Uiso   1.00
C81    C     0.37519   0.12939   0.39951   0.00000  Uiso   1.00
C82    C     0.60083   0.23789   0.11258   0.00000  Uiso   1.00
C83    C     0.47305   0.18198   0.41220   0.00000  Uiso   1.00
C84    C     0.52439   0.16615   0.09069   0.00000  Uiso   1.00
C85    C     0.44999   0.17809   0.45815   0.00000  Uiso   1.00
C86    C     0.48563   0.06721   0.24970   0.00000  Uiso   1.00
C87    C     0.51925   0.19585   0.05664   0.00000  Uiso   1.00
C88    C     0.39291   0.14488   0.47341   0.00000  Uiso   1.00
C89    C     0.56160   0.24322   0.04796   0.00000  Uiso   1.00
C90    C     0.48436   0.20285   0.48959   0.00000  Uiso   1.00
C91    C     0.47435   0.18032   0.03024   0.00000  Uiso   1.00
C92    C     0.50284   0.10867   0.08961   0.00000  Uiso   1.00
C93    C     0.53889   0.20462   0.39577   0.00000  Uiso   1.00
C94    C     0.64189   0.26504   0.14138   0.00000  Uiso   1.00
C95    C     0.66448   0.10107   0.37305   0.00000  Uiso   1.00
C96    C     0.62161   0.01840   0.26112   0.00000  Uiso   1.00
C97    C     0.41682   0.14739   0.04470   0.00000  Uiso   1.00
C98    C     0.43298   0.00267   0.33057   0.00000  Uiso   1.00
C99    C     0.66513   0.22987   0.31976   0.00000  Uiso   1.00
C100   C     0.34983   0.10169   0.17737   0.00000  Uiso   1.00
C101   C     0.52522   0.25082   0.48297   0.00000  Uiso   1.00
C102   C     0.37533   0.13182   0.01725   0.00000  Uiso   1.00
C103   C     0.56264   0.27102   0.01211   0.00000  Uiso   1.00
C104   C     0.52460   0.32150   0.24734   0.00000  Uiso   1.00
C105   C     0.47654   0.01364   0.25879   0.00000  Uiso   1.00
C106   C     0.46145   0.16214   0.33347   0.00000  Uiso   1.00
Cu107  Cu    0.44071   0.16108   0.24517   0.00000  Uiso   1.00
Cu108  Cu    0.55929   0.17225   0.25484   0.00000  Uiso   1.00
H109   H     0.66435   0.10706   0.02966   0.00000  Uiso   1.00
H110   H     0.61465   0.09739   0.38618   0.00000  Uiso   1.00
H111   H     0.65962   0.32928   0.24880   0.00000  Uiso   1.00
H112   H     0.59615   0.00589   0.29449   0.00000  Uiso   1.00
H113   H     0.64292   0.05955   0.26516   0.00000  Uiso   1.00
H114   H     0.45361   0.04379   0.33760   0.00000  Uiso   1.00
H115   H     0.46353   0.31008   0.33622   0.00000  Uiso   1.00
H116   H     0.38786   0.32695   0.35451   0.00000  Uiso   1.00
H117   H     0.38105   0.24277   0.30616   0.00000  Uiso   1.00
H118   H     0.63623   0.25610   0.31228   0.00000  Uiso   1.00
H119   H     0.66232   0.23148   0.35523   0.00000  Uiso   1.00
H120   H     0.59363   0.30803   0.00597   0.00000  Uiso   1.00
H121   H     0.37658   0.10366   0.14322   0.00000  Uiso   1.00
H122   H     0.63485   0.08226   0.17664   0.00000  Uiso   1.00
H123   H     0.37207   0.07784   0.19388   0.00000  Uiso   1.00
H124   H     0.64329   0.09971   0.45735   0.00000  Uiso   1.00
H125   H     0.63429   0.29947   0.06825   0.00000  Uiso   1.00
H126   H     0.40227   0.13553   0.07785   0.00000  Uiso   1.00
H127   H     0.52709   0.27392   0.45594   0.00000  Uiso   1.00
H128   H     0.48702   0.08857   0.06152   0.00000  Uiso   1.00
H129   H     0.55124   0.23568   0.37339   0.00000  Uiso   1.00
H130   H     0.64754   0.30684   0.14668   0.00000  Uiso   1.00
N131   N     0.64839   0.18068   0.26212   0.00000  Uiso   1.00
N132   N     0.35161   0.15265   0.23788   0.00000  Uiso   1.00
O133   O     0.46148   0.23809   0.24686   0.00000  Uiso   1.00
O134   O     0.57927   0.18884   0.40805   0.00000  Uiso   1.00
O135   O     0.34014   0.24201   0.15654   0.00000  Uiso   1.00
O136   O     0.34892   0.07824   0.33835   0.00000  Uiso   1.00
O137   O     0.58443   0.01352   0.22977   0.00000  Uiso   1.00
O138   O     0.42215   0.32721   0.28766   0.00000  Uiso   1.00
O139   O     0.64818   0.17877   0.30455   0.00000  Uiso   1.00
O140   O     0.34921   0.15240   0.19564   0.00000  Uiso   1.00
O141   O     0.53852   0.09524   0.25314   0.00000  Uiso   1.00
O142   O     0.56163   0.24753   0.25503   0.00000  Uiso   1.00
O143   O     0.43837   0.08580   0.24498   0.00000  Uiso   1.00
O144   O     0.42185   0.15930   0.30855   0.00000  Uiso   1.00
O145   O     0.57815   0.17403   0.19146   0.00000  Uiso   1.00
O146   O     0.52199   0.16874   0.31671   0.00000  Uiso   1.00
O147   O     0.47801   0.16460   0.18329   0.00000  Uiso   1.00
O148   O     0.50557   0.08245   0.11878   0.00000  Uiso   1.00
C149   C     0.84778   0.26634   0.25131   0.00000  Uiso   1.00
C150   C     0.87138   0.17350   0.16732   0.00000  Uiso   1.00
C151   C     0.76950   0.15787   0.38209   0.00000  Uiso   1.00
C152   C     0.89271   0.18999   0.12175   0.00000  Uiso   1.00
C153   C     0.68823   0.12361   0.44465   0.00000  Uiso   1.00
C154   C     0.93566   0.26301   0.07527   0.00000  Uiso   1.00
C155   C     0.70852   0.12939   0.39951   0.00000  Uiso   1.00
C156   C     0.93416   0.23789   0.11258   0.00000  Uiso   1.00
C157   C     0.80639   0.18198   0.41220   0.00000  Uiso   1.00
C158   C     0.85772   0.16615   0.09069   0.00000  Uiso   1.00
C159   C     0.78332   0.17809   0.45815   0.00000  Uiso   1.00
C160   C     0.81896   0.06721   0.24970   0.00000  Uiso   1.00
C161   C     0.85258   0.19585   0.05664   0.00000  Uiso   1.00
C162   C     0.72624   0.14488   0.47341   0.00000  Uiso   1.00
C163   C     0.89493   0.24322   0.04796   0.00000  Uiso   1.00
C164   C     0.81769   0.20285   0.48959   0.00000  Uiso   1.00
C165   C     0.80768   0.18032   0.03024   0.00000  Uiso   1.00
C166   C     0.83617   0.10867   0.08961   0.00000  Uiso   1.00
C167   C     0.87223   0.20462   0.39577   0.00000  Uiso   1.00
C168   C     0.97523   0.26504   0.14138   0.00000  Uiso   1.00
C169   C     0.99781   0.10107   0.37305   0.00000  Uiso   1.00
C170   C     0.95494   0.01840   0.26112   0.00000  Uiso   1.00
C171   C     0.75015   0.14739   0.04470   0.00000  Uiso   1.00
C172   C     0.76631   0.00267   0.33057   0.00000  Uiso   1.00
C173   C     0.99847   0.22987   0.31976   0.00000  Uiso   1.00
C174   C     0.68317   0.10169   0.17737   0.00000  Uiso   1.00
C175   C     0.85855   0.25082   0.48297   0.00000  Uiso   1.00
C176   C     0.70867   0.13182   0.01725   0.00000  Uiso   1.00
C177   C     0.89597   0.27102   0.01211   0.00000  Uiso   1.00
C178   C     0.85793   0.32150   0.24734   0.00000  Uiso   1.00
C179   C     0.80987   0.01364   0.25879   0.00000  Uiso   1.00
C180   C     0.79478   0.16214   0.33347   0.00000  Uiso   1.00
Cu181  Cu    0.77404   0.16108   0.24517   0.00000  Uiso   1.00
Cu182  Cu    0.89263   0.17225   0.25484   0.00000  Uiso   1.00
H183   H     0.99768   0.10706   0.02966   0.00000  Uiso   1.00
H184   H     0.94798   0.09739   0.38618   0.00000  Uiso   1.00
H185   H     0.99295   0.32928   0.24880   0.00000  Uiso   1.00
H186   H     0.92948   0.00589   0.29449   0.00000  Uiso   1.00
H187   H     0.97625   0.05955   0.26516   0.00000  Uiso   1.00
H188   H     0.78694   0.04379   0.33760   0.00000  Uiso   1.00
H189   H     0.79687   0.31008   0.33622   0.00000  Uiso   1.00
H190   H     0.72120   0.32695   0.35451   0.00000  Uiso   1.00
H191   H     0.71438   0.24277   0.30616   0.00000  Uiso   1.00
H192   H     0.96956   0.25610   0.31228   0.00000  Uiso   1.00
H193   H     0.99565   0.23148   0.35523   0.00000  Uiso   1.00
H194   H     0.92696   0.30803   0.00597   0.00000  Uiso   1.00
H195   H     0.70991   0.10366   0.14322   0.00000  Uiso   1.00
H196   H     0.96819   0.08226   0.17664   0.00000  Uiso   1.00
H197   H     0.70540   0.07784   0.19388   0.00000  Uiso   1.00
H198   H     0.97662   0.09971   0.45735   0.00000  Uiso   1.00
H199   H     0.96763   0.29947   0.06825   0.00000  Uiso   1.00
H200   H     0.73561   0.13553   0.07785   0.00000  Uiso   1.00
H201   H     0.86042   0.27392   0.45594   0.00000  Uiso   1.00
H202   H     0.82035   0.08857   0.06152   0.00000  Uiso   1.00
H203   H     0.88457   0.23568   0.37339   0.00000  Uiso   1.00
H204   H     0.98087   0.30684   0.14668   0.00000  Uiso   1.00
N205   N     0.98173   0.18068   0.26212   0.00000  Uiso   1.00
N206   N     0.68494   0.15265   0.23788   0.00000  Uiso   1.00
O207   O     0.79482   0.23809   0.24686   0.00000  Uiso   1.00
O208   O     0.91260   0.18884   0.40805   0.00000  Uiso   1.00
O209   O     0.67348   0.24201   0.15654   0.00000  Uiso   1.00
O210   O     0.68226   0.07824   0.33835   0.00000  Uiso   1.00
O211   O     0.91777   0.01352   0.22977   0.00000  Uiso   1.00
O212   O     0.75548   0.32721   0.28766   0.00000  Uiso   1.00
O213   O     0.98152   0.17877   0.30455   0.00000  Uiso   1.00
O214   O     0.68255   0.15240   0.19564   0.00000  Uiso   1.00
O215   O     0.87185   0.09524   0.25314   0.00000  Uiso   1.00
O216   O     0.89496   0.24753   0.25503   0.00000  Uiso   1.00
O217   O     0.77171   0.08580   0.24498   0.00000  Uiso   1.00
O218   O     0.75518   0.15930   0.30855   0.00000  Uiso   1.00
O219   O     0.91149   0.17403   0.19146   0.00000  Uiso   1.00
O220   O     0.85532   0.16874   0.31671   0.00000  Uiso   1.00
O221   O     0.81134   0.16460   0.18329   0.00000  Uiso   1.00
O222   O     0.83890   0.08245   0.11878   0.00000  Uiso   1.00
C223   C     0.18111   0.59967   0.25131   0.00000  Uiso   1.00
C224   C     0.20471   0.50683   0.16732   0.00000  Uiso   1.00
C225   C     0.10283   0.49120   0.38209   0.00000  Uiso   1.00
C226   C     0.22604   0.52333   0.12175   0.00000  Uiso   1.00
C227   C     0.02156   0.45694   0.44465   0.00000  Uiso   1.00
C228   C     0.26900   0.59634   0.07527   0.00000  Uiso   1.00
C229   C     0.04186   0.46272   0.39951   0.00000  Uiso   1.00
C230   C     0.26750   0.57122   0.11258   0.00000  Uiso   1.00
C231   C     0.13972   0.51532   0.41220   0.00000  Uiso   1.00
C232   C     0.19105   0.49948   0.09069   0.00000  Uiso   1.00
C233   C     0.11666   0.51143   0.45815   0.00000  Uiso   1.00
C234   C     0.15230   0.40054   0.24970   0.00000  Uiso   1.00
C235   C     0.18591   0.52918   0.05664   0.00000  Uiso   1.00
C236   C     0.05958   0.47821   0.47341   0.00000  Uiso   1.00
C237   C     0.22827   0.57656   0.04796   0.00000  Uiso   1.00
C238   C     0.15103   0.53618   0.48959   0.00000  Uiso   1.00
C239   C     0.14101   0.51365   0.03024   0.00000  Uiso   1.00
C240   C     0.16951   0.44200   0.08961   0.00000  Uiso   1.00
C241   C     0.20556   0.53795   0.39577   0.00000  Uiso   1.00
C242   C     0.30856   0.59837   0.14138   0.00000  Uiso   1.00
C243   C     0.33115   0.43441   0.37305   0.00000  Uiso   1.00
C244   C     0.28828   0.35173   0.26112   0.00000  Uiso   1.00
C245   C     0.08348   0.48073   0.04470   0.00000  Uiso   1.00
C246   C     0.09965   0.33601   0.33057   0.00000  Uiso   1.00
C247   C     0.33180   0.56320   0.31976   0.00000  Uiso   1.00
C248   C     0.01650   0.43503   0.17737   0.00000  Uiso   1.00
C249   C     0.19188   0.58415   0.48297   0.00000  Uiso   1.00
C250   C     0.04200   0.46516   0.01725   0.00000  Uiso   1.00
C251   C     0.22931   0.60436   0.01211   0.00000  Uiso   1.00
C252   C     0.19126   0.65483   0.24734   0.00000  Uiso   1.00
C253   C     0.14321   0.34697   0.25879   0.00000  Uiso   1.00
C254   C     0.12811   0.49547   0.33347   0.00000  Uiso   1.00
Cu255  Cu    0.10737   0.49441   0.24517   0.00000  Uiso   1.00
Cu256  Cu    0.22596   0.50559   0.25484   0.00000  Uiso   1.00
H257   H     0.33102   0.44039   0.02966   0.00000  Uiso   1.00
H258   H     0.28131   0.43072   0.38618   0.00000  Uiso   1.00
H259   H     0.32629   0.66261   0.24880   0.00000  Uiso   1.00
H260   H     0.26282   0.33923   0.29449   0.00000  Uiso   1.00
H261   H     0.30959   0.39289   0.26516   0.00000  Uiso   1.00
H262   H     0.12027   0.37712   0.33760   0.00000  Uiso   1.00
H263   H     0.13020   0.64342   0.33622   0.00000  Uiso   1.00
H264   H     0.05453   0.66029   0.35451   0.00000  Uiso   1.00
H265   H     0.04772   0.57610   0.30616   0.00000  Uiso   1.00
H266   H     0.30289   0.58943   0.31228   0.00000  Uiso   1.00
H267   H     0.32899   0.56481   0.35523   0.00000  Uiso   1.00
H268   H     0.26029   0.64136   0.00597   0.00000  Uiso   1.00
H269   H     0.04325   0.43699   0.14322   0.00000  Uiso   1.00
H270   H     0.30152   0.41560   0.17664   0.00000  Uiso   1.00
H271   H     0.03873   0.41118   0.19388   0.00000  Uiso   1.00
H272   H     0.30995   0.43305   0.45735   0.00000  Uiso   1.00
H273   H     0.30096   0.63280   0.06825   0.00000  Uiso   1.00
H274   H     0.06894   0.46886   0.07785   0.00000  Uiso   1.00
H275   H     0.19376   0.60725   0.45594   0.00000  Uiso   1.00
H276   H     0.15368   0.42191   0.06152   0.00000  Uiso   1.00
H277   H     0.21790   0.56901   0.37339   0.00000  Uiso   1.00
H278   H     0.31421   0.64017   0.14668   0.00000  Uiso   1.00
N279   N     0.31506   0.51401   0.26212   0.00000  Uiso   1.00
N280   N     0.01827   0.48599   0.23788   0.00000  Uiso   1.00
O281   O     0.12815   0.57142   0.24686   0.00000  Uiso   1.00
O282   O     0.24594   0.52217   0.40805   0.00000  Uiso   1.00
O283   O     0.00681   0.57535   0.15654   0.00000  Uiso   1.00
O284   O     0.01559   0.41157   0.33835   0.00000  Uiso   1.00
O285   O     0.25110   0.34685   0.22977   0.00000  Uiso   1.00
O286   O     0.08881   0.66054   0.28766   0.00000  Uiso   1.00
O287   O     0.31485   0.51211   0.30455   0.00000  Uiso   1.00
O288   O     0.01588   0.48574   0.19564   0.00000  Uiso   1.00
O289   O     0.20518   0.42858   0.25314   0.00000  Uiso   1.00
O290   O     0.22829   0.58086   0.25503   0.00000  Uiso   1.00
O291   O     0.10504   0.41914   0.24498   0.00000  Uiso   1.00
O292   O     0.08851   0.49263   0.30855   0.00000  Uiso   1.00
O293   O     0.24482   0.50737   0.19146   0.00000  Uiso   1.00
O294   O     0.18866   0.50207   0.31671   0.00000  Uiso   1.00
O295   O     0.14468   0.49793   0.18329   0.00000  Uiso   1.00
O296   O     0.17224   0.41579   0.11878   0.00000  Uiso   1.00
C297   C     0.51445   0.59967   0.25131   0.00000  Uiso   1.00
C298   C     0.53805   0.50683   0.16732   0.00000  Uiso   1.00
C299   C     0.43617   0.49120   0.38209   0.00000  Uiso   1.00
C300   C     0.55938   0.52333   0.12175   0.00000  Uiso   1.00
C301   C     0.35490   0.45694   0.44465   0.00000  Uiso   1.00
C302   C     0.60233   0.59634   0.07527   0.00000  Uiso   1.00
C303   C     0.37519   0.46272   0.39951   0.00000  Uiso   1.00
C304   C     0.60083   0.57122   0.11258   0.00000  Uiso   1.00
C305   C     0.47305   0.51532   0.41220   0.00000  Uiso   1.00
C306   C     0.52439   0.49948   0.09069   0.00000  Uiso   1.00
C307   C     0.44999   0.51143   0.45815   0.00000  Uiso   1.00
C308   C     0.48563   0.40054   0.24970   0.00000  Uiso   1.00
C309   C     0.51925   0.52918   0.05664   0.00000  Uiso   1.00
C310   C     0.39291   0.47821   0.47341   0.00000  Uiso   1.00
C311   C     0.56160   0.57656   0.04796   0.00000  Uiso   1.00
C312   C     0.48436   0.53618   0.48959   0.00000  Uiso   1.00
C313   C     0.47435   0.51365   0.03024   0.00000  Uiso   1.00
C314   C     0.50284   0.44200   0.08961   0.00000  Uiso   1.00
C315   C     0.53889   0.53795   0.39577   0.00000  Uiso   1.00
C316   C     0.64189   0.59837   0.14138   0.00000  Uiso   1.00
C317   C     0.66448   0.43441   0.37305   0.00000  Uiso   1.00
C318   C     0.62161   0.35173   0.26112   0.00000  Uiso   1.00
C319   C     0.41682   0.48073   0.04470   0.00000  Uiso   1.00
C320   C     0.43298   0.33601   0.33057   0.00000  Uiso   1.00
C321   C     0.66513   0.56320   0.31976   0.00000  Uiso   1.00
C322   C     0.34983   0.43503   0.17737   0.00000  Uiso   1.00
C323   C     0.52522   0.58415   0.48297   0.00000  Uiso   1.00
C324   C     0.37533   0.46516   0.01725   0.00000  Uiso   1.00
C325   C     0.56264   0.60436   0.01211   0.00000  Uiso   1.00
C326   C     0.52460   0.65483   0.24734   0.00000  Uiso   1.00
C327   C     0.47654   0.34697   0.25879   0.00000  Uiso   1.00
C328   C     0.46145   0.49547   0.33347   0.00000  Uiso   1.00
Cu329  Cu    0.44071   0.49441   0.24517   0.00000  Uiso   1.00
Cu330  Cu    0.55929   0.50559   0.25484   0.00000  Uiso   1.00
H331   H     0.66435   0.44039   0.02966   0.00000  Uiso   1.00
H332   H     0.61465   0.43072   0.38618   0.00000  Uiso   1.00
H333   H     0.65962   0.66261   0.24880   0.00000  Uiso   1.00
H334   H     0.59615   0.33923   0.29449   0.00000  Uiso   1.00
H335   H     0.64292   0.39289   0.26516   0.00000  Uiso   1.00
H336   H     0.45361   0.37712   0.33760   0.00000  Uiso   1.00
H337   H     0.46353   0.64342   0.33622   0.00000  Uiso   1.00
H338   H     0.38786   0.66029   0.35451   0.00000  Uiso   1.00
H339   H     0.38105   0.57610   0.30616   0.00000  Uiso   1.00
H340   H     0.63623   0.58943   0.31228   0.00000  Uiso   1.00
H341   H     0.66232   0.56481   0.35523   0.00000  Uiso   1.00
H342   H     0.59363   0.64136   0.00597   0.00000  Uiso   1.00
H343   H     0.37658   0.43699   0.14322   0.00000  Uiso   1.00
H344   H     0.63485   0.41560   0.17664   0.00000  Uiso   1.00
H345   H     0.37207   0.41118   0.19388   0.00000  Uiso   1.00
H346   H     0.64329   0.43305   0.45735   0.00000  Uiso   1.00
H347   H     0.63429   0.63280   0.06825   0.00000  Uiso   1.00
H348   H     0.40227   0.46886   0.07785   0.00000  Uiso   1.00
H349   H     0.52709   0.60725   0.45594   0.00000  Uiso   1.00
H350   H     0.48702   0.42191   0.06152   0.00000  Uiso   1.00
H351   H     0.55124   0.56901   0.37339   0.00000  Uiso   1.00
H352   H     0.64754   0.64017   0.14668   0.00000  Uiso   1.00
N353   N     0.64839   0.51401   0.26212   0.00000  Uiso   1.00
N354   N     0.35161   0.48599   0.23788   0.00000  Uiso   1.00
O355   O     0.46148   0.57142   0.24686   0.00000  Uiso   1.00
O356   O     0.57927   0.52217   0.40805   0.00000  Uiso   1.00
O357   O     0.34014   0.57535   0.15654   0.00000  Uiso   1.00
O358   O     0.34892   0.41157   0.33835   0.00000  Uiso   1.00
O359   O     0.58443   0.34685   0.22977   0.00000  Uiso   1.00
O360   O     0.42215   0.66054   0.28766   0.00000  Uiso   1.00
O361   O     0.64818   0.51211   0.30455   0.00000  Uiso   1.00
O362   O     0.34921   0.48574   0.19564   0.00000  Uiso   1.00
O363   O     0.53852   0.42858   0.25314   0.00000  Uiso   1.00
O364   O     0.56163   0.58086   0.25503   0.00000  Uiso   1.00
O365   O     0.43837   0.41914   0.24498   0.00000  Uiso   1.00
O366   O     0.42185   0.49263   0.30855   0.00000  Uiso   1.00
O367   O     0.57815   0.50737   0.19146   0.00000  Uiso   1.00
O368   O     0.52199   0.50207   0.31671   0.00000  Uiso   1.00
O369   O     0.47801   0.49793   0.18329   0.00000  Uiso   1.00
O370   O     0.50557   0.41579   0.11878   0.00000  Uiso   1.00
C371   C     0.84778   0.59967   0.25131   0.00000  Uiso   1.00
C372   C     0.87138   0.50683   0.16732   0.00000  Uiso   1.00
C373   C     0.76950   0.49120   0.38209   0.00000  Uiso   1.00
C374   C     0.89271   0.52333   0.12175   0.00000  Uiso   1.00
C375   C     0.68823   0.45694   0.44465   0.00000  Uiso   1.00
C376   C     0.93566   0.59634   0.07527   0.00000  Uiso   1.00
C377   C     0.70852   0.46272   0.39951   0.00000  Uiso   1.00
C378   C     0.93416   0.57122   0.11258   0.00000  Uiso   1.00
C379   C     0.80639   0.51532   0.41220   0.00000  Uiso   1.00
C380   C     0.85772   0.49948   0.09069   0.00000  Uiso   1.00
C381   C     0.78332   0.51143   0.45815   0.00000  Uiso   1.00
C382   C     0.81896   0.40054   0.24970   0.00000  Uiso   1.00
C383   C     0.85258   0.52918   0.05664   0.00000  Uiso   1.00
C384   C     0.72624   0.47821   0.47341   0.00000  Uiso   1.00
C385   C     0.89493   0.57656   0.04796   0.00000  Uiso   1.00
C386   C     0.81769   0.53618   0.48959   0.00000  Uiso   1.00
C387   C     0.80768   0.51365   0.03024   0.00000  Uiso   1.00
C388   C     0.83617   0.44200   0.08961   0.00000  Uiso   1.00
C389   C     0.87223   0.53795   0.39577   0.00000  Uiso   1.00
C390   C     0.97523   0.59837   0.14138   0.00000  Uiso   1.00
C391   C     0.99781   0.43441   0.37305   0.00000  Uiso   1.00
C392   C     0.95494   0.35173   0.26112   0.00000  Uiso   1.00
C393   C     0.75015   0.48073   0.04470   0.00000  Uiso   1.00
C394   C     0.76631   0.33601   0.33057   0.00000  Uiso   1.00
C395   C     0.99847   0.56320   0.31976   0.00000  Uiso   1.00
C396   C     0.68317   0.43503   0.17737   0.00000  Uiso   1.00
C397   C     0.85855   0.58415   0.48297   0.00000  Uiso   1.00
C398   C     0.70867   0.46516   0.01725   0.00000  Uiso   1.00
C399   C     0.89597   0.60436   0.01211   0.00000  Uiso   1.00
C400   C     0.85793   0.65483   0.24734   0.00000  Uiso   1.00
C401   C     0.80987   0.34697   0.25879   0.00000  Uiso   1.00
C402   C     0.79478   0.49547   0.33347   0.00000  Uiso   1.00
Cu403  Cu    0.77404   0.49441   0.24517   0.00000  Uiso   1.00
Cu404  Cu    0.89263   0.50559   0.25484   0.00000  Uiso   1.00
H405   H     0.99768   0.44039   0.02966   0.00000  Uiso   1.00
H406   H     0.94798   0.43072   0.38618   0.00000  Uiso   1.00
H407   H     0.99295   0.66261   0.24880   0.00000  Uiso   1.00
H408   H     0.92948   0.33923   0.29449   0.00000  Uiso   1.00
H409   H     0.97625   0.39289   0.26516   0.00000  Uiso   1.00
H410   H     0.78694   0.37712   0.33760   0.00000  Uiso   1.00
H411   H     0.79687   0.64342   0.33622   0.00000  Uiso   1.00
H412   H     0.72120   0.66029   0.35451   0.00000  Uiso   1.00
H413   H     0.71438   0.57610   0.30616   0.00000  Uiso   1.00
H414   H     0.96956   0.58943   0.31228   0.00000  Uiso   1.00
H415   H     0.99565   0.56481   0.35523   0.00000  Uiso   1.00
H416   H     0.92696   0.64136   0.00597   0.00000  Uiso   1.00
H417   H     0.70991   0.43699   0.14322   0.00000  Uiso   1.00
H418   H     0.96819   0.41560   0.17664   0.00000  Uiso   1.00
H419   H     0.70540   0.41118   0.19388   0.00000  Uiso   1.00
H420   H     0.97662   0.43305   0.45735   0.00000  Uiso   1.00
H421   H     0.96763   0.63280   0.06825   0.00000  Uiso   1.00
H422   H     0.73561   0.46886   0.07785   0.00000  Uiso   1.00
H423   H     0.86042   0.60725   0.45594   0.00000  Uiso   1.00
H424   H     0.82035   0.42191   0.06152   0.00000  Uiso   1.00
H425   H     0.88457   0.56901   0.37339   0.00000  Uiso   1.00
H426   H     0.98087   0.64017   0.14668   0.00000  Uiso   1.00
N427   N     0.98173   0.51401   0.26212   0.00000  Uiso   1.00
N428   N     0.68494   0.48599   0.23788   0.00000  Uiso   1.00
O429   O     0.79482   0.57142   0.24686   0.00000  Uiso   1.00
O430   O     0.91260   0.52217   0.40805   0.00000  Uiso   1.00
O431   O     0.67348   0.57535   0.15654   0.00000  Uiso   1.00
O432   O     0.68226   0.41157   0.33835   0.00000  Uiso   1.00
O433   O     0.91777   0.34685   0.22977   0.00000  Uiso   1.00
O434   O     0.75548   0.66054   0.28766   0.00000  Uiso   1.00
O435   O     0.98152   0.51211   0.30455   0.00000  Uiso   1.00
O436   O     0.68255   0.48574   0.19564   0.00000  Uiso   1.00
O437   O     0.87185   0.42858   0.25314   0.00000  Uiso   1.00
O438   O     0.89496   0.58086   0.25503   0.00000  Uiso   1.00
O439   O     0.77171   0.41914   0.24498   0.00000  Uiso   1.00
O440   O     0.75518   0.49263   0.30855   0.00000  Uiso   1.00
O441   O     0.91149   0.50737   0.19146   0.00000  Uiso   1.00
O442   O     0.85532   0.50207   0.31671   0.00000  Uiso   1.00
O443   O     0.81134   0.49793   0.18329   0.00000  Uiso   1.00
O444   O     0.83890   0.41579   0.11878   0.00000  Uiso   1.00
C445   C     0.18111   0.93301   0.25131   0.00000  Uiso   1.00
C446   C     0.20471   0.84017   0.16732   0.00000  Uiso   1.00
C447   C     0.10283   0.82454   0.38209   0.00000  Uiso   1.00
C448   C     0.22604   0.85666   0.12175   0.00000  Uiso   1.00
C449   C     0.02156   0.79027   0.44465   0.00000  Uiso   1.00
C450   C     0.26900   0.92968   0.07527   0.00000  Uiso   1.00
C451   C     0.04186   0.79605   0.39951   0.00000  Uiso   1.00
C452   C     0.26750   0.90456   0.11258   0.00000  Uiso   1.00
C453   C     0.13972   0.84865   0.41220   0.00000  Uiso   1.00
C454   C     0.19105   0.83281   0.09069   0.00000  Uiso   1.00
C455   C     0.11666   0.84476   0.45815   0.00000  Uiso   1.00
C456   C     0.15230   0.73387   0.24970   0.00000  Uiso   1.00
C457   C     0.18591   0.86251   0.05664   0.00000  Uiso   1.00
C458   C     0.05958   0.81155   0.47341   0.00000  Uiso   1.00
C459   C     0.22827   0.90989   0.04796   0.00000  Uiso   1.00
C460   C     0.15103   0.86952   0.48959   0.00000  Uiso   1.00
C461   C     0.14101   0.84699   0.03024   0.00000  Uiso   1.00
C462   C     0.16951   0.77533   0.08961   0.00000  Uiso   1.00
C463   C     0.20556   0.87128   0.39577   0.00000  Uiso   1.00
C464   C     0.30856   0.93170   0.14138   0.00000  Uiso   1.00
C465   C     0.33115   0.76774   0.37305   0.00000  Uiso   1.00
C466   C     0.28828   0.68507   0.26112   0.00000  Uiso   1.00
C467   C     0.08348   0.81406   0.04470   0.00000  Uiso   1.00
C468   C     0.09965   0.66934   0.33057   0.00000  Uiso   1.00
C469   C     0.33180   0.89653   0.31976   0.00000  Uiso   1.00
C470   C     0.01650   0.76836   0.17737   0.00000  Uiso   1.00
C471   C     0.19188   0.91749   0.48297   0.00000  Uiso   1.00
C472   C     0.04200   0.79849   0.01725   0.00000  Uiso   1.00
C473   C     0.22931   0.93769   0.01211   0.00000  Uiso   1.00
C474   C     0.19126   0.98816   0.24734   0.00000  Uiso   1.00
C475   C     0.14321   0.68030   0.25879   0.00000  Uiso   1.00
C476   C     0.12811   0.82881   0.33347   0.00000  Uiso   1.00
Cu477  Cu    0.10737   0.82775   0.24517   0.00000  Uiso   1.00
Cu478  Cu    0.22596   0.83892   0.25484   0.00000  Uiso   1.00
H479   H     0.33102   0.77372   0.02966   0.00000  Uiso   1.00
H480   H     0.28131   0.76405   0.38618   0.00000  Uiso   1.00
H481   H     0.32629   0.99595   0.24880   0.00000  Uiso   1.00
H482   H     0.26282   0.67256   0.29449   0.00000  Uiso   1.00
H483   H     0.30959   0.72622   0.26516   0.00000  Uiso   1.00
H484   H     0.12027   0.71046   0.33760   0.00000  Uiso   1.00
H485   H     0.13020   0.97675   0.33622   0.00000  Uiso   1.00
H486   H     0.05453   0.99362   0.35451   0.00000  Uiso   1.00
H487   H     0.04772   0.90944   0.30616   0.00000  Uiso   1.00
H488   H     0.30289   0.92277   0.31228   0.00000  Uiso   1.00
H489   H     0.32899   0.89814   0.35523   0.00000  Uiso   1.00
H490   H     0.26029   0.97469   0.00597   0.00000  Uiso   1.00
H491   H     0.04325   0.77032   0.14322   0.00000  Uiso   1.00
H492   H     0.30152   0.74893   0.17664   0.00000  Uiso   1.00
H493   H     0.03873   0.74451   0.19388   0.00000  Uiso   1.00
H494   H     0.30995   0.76638   0.45735   0.00000  Uiso   1.00
H495   H     0.30096   0.96613   0.06825   0.00000  Uiso   1.00
H496   H     0.06894   0.80219   0.07785   0.00000  Uiso   1.00
H497   H     0.19376   0.94058   0.45594   0.00000  Uiso   1.00
H498   H     0.15368   0.75524   0.06152   0.00000  Uiso   1.00
H499   H     0.21790   0.90235   0.37339   0.00000  Uiso   1.00
H500   H     0.31421   0.97351   0.14668   0.00000  Uiso   1.00
N501   N     0.31506   0.84735   0.26212   0.00000  Uiso   1.00
N502   N     0.01827   0.81932   0.23788   0.00000  Uiso   1.00
O503   O     0.12815   0.90476   0.24686   0.00000  Uiso   1.00
O504   O     0.24594   0.85550   0.40805   0.00000  Uiso   1.00
O505   O     0.00681   0.90868   0.15654   0.00000  Uiso   1.00
O506   O     0.01559   0.74491   0.33835   0.00000  Uiso   1.00
O507   O     0.25110   0.68018   0.22977   0.00000  Uiso   1.00
O508   O     0.08881   0.99387   0.28766   0.00000  Uiso   1.00
O509   O     0.31485   0.84544   0.30455   0.00000  Uiso   1.00
O510   O     0.01588   0.81907   0.19564   0.00000  Uiso   1.00
O511   O     0.20518   0.76191   0.25314   0.00000  Uiso   1.00
O512   O     0.22829   0.91420   0.25503   0.00000  Uiso   1.00
O513   O     0.10504   0.75247   0.24498   0.00000  Uiso   1.00
O514   O     0.08851   0.82597   0.30855   0.00000  Uiso   1.00
O515   O     0.24482   0.84070   0.19146   0.00000  Uiso   1.00
O516   O     0.18866   0.83540   0.31671   0.00000  Uiso   1.00
O517   O     0.14468   0.83126   0.18329   0.00000  Uiso   1.00
O518   O     0.17224   0.74912   0.11878   0.00000  Uiso   1.00
C519   C     0.51445   0.93301   0.25131   0.00000  Uiso   1.00
C520   C     0.53805   0.84017   0.16732   0.00000  Uiso   1.00
C521   C     0.43617   0.82454   0.38209   0.00000  Uiso   1.00
C522   C     0.55938   0.85666   0.12175   0.00000  Uiso   1.00
C523   C     0.35490   0.79027   0.44465   0.00000  Uiso   1.00
C524   C     0.60233   0.92968   0.07527   0.00000  Uiso   1.00
C525   C     0.37519   0.79605   0.39951   0.00000  Uiso   1.00
C526   C     0.60083   0.90456   0.11258   0.00000  Uiso   1.00
C527   C     0.47305   0.84865   0.41220   0.00000  Uiso   1.00
C528   C     0.52439   0.83281   0.09069   0.00000  Uiso   1.00
C529   C     0.44999   0.84476   0.45815   0.00000  Uiso   1.00
C530   C     0.48563   0.73387   0.24970   0.00000  Uiso   1.00
C531   C     0.51925   0.86251   0.05664   0.00000  Uiso   1.00
C532   C     0.39291   0.81155   0.47341   0.00000  Uiso   1.00
C533   C     0.56160   0.90989   0.04796   0.00000  Uiso   1.00
C534   C     0.48436   0.86952   0.48959   0.00000  Uiso   1.00
C535   C     0.47435   0.84699   0.03024   0.00000  Uiso   1.00
C536   C     0.50284   0.77533   0.08961   0.00000  Uiso   1.00
C537   C     0.53889   0.87128   0.39577   0.00000  Uiso   1.00
C538   C     0.64189   0.93170   0.14138   0.00000  Uiso   1.00
C539   C     0.66448   0.76774   0.37305   0.00000  Uiso   1.00
C540   C     0.62161   0.68507   0.26112   0.00000  Uiso   1.00
C541   C     0.41682   0.81406   0.04470   0.00000  Uiso   1.00
C542   C     0.43298   0.66934   0.33057   0.00000  Uiso   1.00
C543   C     0.66513   0.89653   0.31976   0.00000  Uiso   1.00
C544   C     0.34983   0.76836   0.17737   0.00000  Uiso   1.00
C545   C     0.52522   0.91749   0.48297   0.00000  Uiso   1.00
C546   C     0.37533   0.79849   0.01725   0.00000  Uiso   1.00
C547   C     0.56264   0.93769   0.01211   0.00000  Uiso   1.00
C548   C     0.52460   0.98816   0.24734   0.00000  Uiso   1.00
C549   C     0.47654   0.68030   0.25879   0.00000  Uiso   1.00
C550   C     0.46145   0.82881   0.33347   0.00000  Uiso   1.00
Cu551  Cu    0.44071   0.82775   0.24517   0.00000  Uiso   1.00
Cu552  Cu    0.55929   0.83892   0.25484   0.00000  Uiso   1.00
H553   H     0.66435   0.77372   0.02966   0.00000  Uiso   1.00
H554   H     0.61465   0.76405   0.38618   0.00000  Uiso   1.00
H555   H     0.65962   0.99595   0.24880   0.00000  Uiso   1.00
H556   H     0.59615   0.67256   0.29449   0.00000  Uiso   1.00
H557   H     0.64292   0.72622   0.26516   0.00000  Uiso   1.00
H558   H     0.45361   0.71046   0.33760   0.00000  Uiso   1.00
H559   H     0.46353   0.97675   0.33622   0.00000  Uiso   1.00
H560   H     0.38786   0.99362   0.35451   0.00000  Uiso   1.00
H561   H     0.38105   0.90944   0.30616   0.00000  Uiso   1.00
H562   H     0.63623   0.92277   0.31228   0.00000  Uiso   1.00
H563   H     0.66232   0.89814   0.35523   0.00000  Uiso   1.00
H564   H     0.59363   0.97469   0.00597   0.00000  Uiso   1.00
H565   H     0.37658   0.77032   0.14322   0.00000  Uiso   1.00
H566   H     0.63485   0.74893   0.17664   0.00000  Uiso   1.00
H567   H     0.37207   0.74451   0.19388   0.00000  Uiso   1.00
H568   H     0.64329   0.76638   0.45735   0.00000  Uiso   1.00
H569   H     0.63429   0.96613   0.06825   0.00000  Uiso   1.00
H570   H     0.40227   0.80219   0.07785   0.00000  Uiso   1.00
H571   H     0.52709   0.94058   0.45594   0.00000  Uiso   1.00
H572   H     0.48702   0.75524   0.06152   0.00000  Uiso   1.00
H573   H     0.55124   0.90235   0.37339   0.00000  Uiso   1.00
H574   H     0.64754   0.97351   0.14668   0.00000  Uiso   1.00
N575   N     0.64839   0.84735   0.26212   0.00000  Uiso   1.00
N576   N     0.35161   0.81932   0.23788   0.00000  Uiso   1.00
O577   O     0.46148   0.90476   0.24686   0.00000  Uiso   1.00
O578   O     0.57927   0.85550   0.40805   0.00000  Uiso   1.00
O579   O     0.34014   0.90868   0.15654   0.00000  Uiso   1.00
O580   O     0.34892   0.74491   0.33835   0.00000  Uiso   1.00
O581   O     0.58443   0.68018   0.22977   0.00000  Uiso   1.00
O582   O     0.42215   0.99387   0.28766   0.00000  Uiso   1.00
O583   O     0.64818   0.84544   0.30455   0.00000  Uiso   1.00
O584   O     0.34921   0.81907   0.19564   0.00000  Uiso   1.00
O585   O     0.53852   0.76191   0.25314   0.00000  Uiso   1.00
O586   O     0.56163   0.91420   0.25503   0.00000  Uiso   1.00
O587   O     0.43837   0.75247   0.24498   0.00000  Uiso   1.00
O588   O     0.42185   0.82597   0.30855   0.00000  Uiso   1.00
O589   O     0.57815   0.84070   0.19146   0.00000  Uiso   1.00
O590   O     0.52199   0.83540   0.31671   0.00000  Uiso   1.00
O591   O     0.47801   0.83126   0.18329   0.00000  Uiso   1.00
O592   O     0.50557   0.74912   0.11878   0.00000  Uiso   1.00
C593   C     0.84778   0.93301   0.25131   0.00000  Uiso   1.00
C594   C     0.87138   0.84017   0.16732   0.00000  Uiso   1.00
C595   C     0.76950   0.82454   0.38209   0.00000  Uiso   1.00
C596   C     0.89271   0.85666   0.12175   0.00000  Uiso   1.00
C597   C     0.68823   0.79027   0.44465   0.00000  Uiso   1.00
C598   C     0.93566   0.92968   0.07527   0.00000  Uiso   1.00
C599   C     0.70852   0.79605   0.39951   0.00000  Uiso   1.00
C600   C     0.93416   0.90456   0.11258   0.00000  Uiso   1.00
C601   C     0.80639   0.84865   0.41220   0.00000  Uiso   1.00
C602   C     0.85772   0.83281   0.09069   0.00000  Uiso   1.00
C603   C     0.78332   0.84476   0.45815   0.00000  Uiso   1.00
C604   C     0.81896   0.73387   0.24970   0.00000  Uiso   1.00
C605   C     0.85258   0.86251   0.05664   0.00000  Uiso   1.00
C606   C     0.72624   0.81155   0.47341   0.00000  Uiso   1.00
C607   C     0.89493   0.90989   0.04796   0.00000  Uiso   1.00
C608   C     0.81769   0.86952   0.48959   0.00000  Uiso   1.00
C609   C     0.80768   0.84699   0.03024   0.00000  Uiso   1.00
C610   C     0.83617   0.77533   0.08961   0.00000  Uiso   1.00
C611   C     0.87223   0.87128   0.39577   0.00000  Uiso   1.00
C612   C     0.97523   0.93170   0.14138   0.00000  Uiso   1.00
C613   C     0.99781   0.76774   0.37305   0.00000  Uiso   1.00
C614   C     0.95494   0.68507   0.26112   0.00000  Uiso   1.00
C615   C     0.75015   0.81406   0.04470   0.00000  Uiso   1.00
C616   C     0.76631   0.66934   0.33057   0.00000  Uiso   1.00
C617   C     0.99847   0.89653   0.31976   0.00000  Uiso   1.00
C618   C     0.68317   0.76836   0.17737   0.00000  Uiso   1.00
C619   C     0.85855   0.91749   0.48297   0.00000  Uiso   1.00
C620   C     0.70867   0.79849   0.01725   0.00000  Uiso   1.00
C621   C     0.89597   0.93769   0.01211   0.00000  Uiso   1.00
C622   C     0.85793   0.98816   0.24734   0.00000  Uiso   1.00
C623   C     0.80987   0.68030   0.25879   0.00000  Uiso   1.00
C624   C     0.79478   0.82881   0.33347   0.00000  Uiso   1.00
Cu625  Cu    0.77404   0.82775   0.24517   0.00000  Uiso   1.00
Cu626  Cu    0.89263   0.83892   0.25484   0.00000  Uiso   1.00
H627   H     0.99768   0.77372   0.02966   0.00000  Uiso   1.00
H628   H     0.94798   0.76405   0.38618   0.00000  Uiso   1.00
H629   H     0.99295   0.99595   0.24880   0.00000  Uiso   1.00
H630   H     0.92948   0.67256   0.29449   0.00000  Uiso   1.00
H631   H     0.97625   0.72622   0.26516   0.00000  Uiso   1.00
H632   H     0.78694   0.71046   0.33760   0.00000  Uiso   1.00
H633   H     0.79687   0.97675   0.33622   0.00000  Uiso   1.00
H634   H     0.72120   0.99362   0.35451   0.00000  Uiso   1.00
H635   H     0.71438   0.90944   0.30616   0.00000  Uiso   1.00
H636   H     0.96956   0.92277   0.31228   0.00000  Uiso   1.00
H637   H     0.99565   0.89814   0.35523   0.00000  Uiso   1.00
H638   H     0.92696   0.97469   0.00597   0.00000  Uiso   1.00
H639   H     0.70991   0.77032   0.14322   0.00000  Uiso   1.00
H640   H     0.96819   0.74893   0.17664   0.00000  Uiso   1.00
H641   H     0.70540   0.74451   0.19388   0.00000  Uiso   1.00
H642   H     0.97662   0.76638   0.45735   0.00000  Uiso   1.00
H643   H     0.96763   0.96613   0.06825   0.00000  Uiso   1.00
H644   H     0.73561   0.80219   0.07785   0.00000  Uiso   1.00
H645   H     0.86042   0.94058   0.45594   0.00000  Uiso   1.00
H646   H     0.82035   0.75524   0.06152   0.00000  Uiso   1.00
H647   H     0.88457   0.90235   0.37339   0.00000  Uiso   1.00
H648   H     0.98087   0.97351   0.14668   0.00000  Uiso   1.00
N649   N     0.98173   0.84735   0.26212   0.00000  Uiso   1.00
N650   N     0.68494   0.81932   0.23788   0.00000  Uiso   1.00
O651   O     0.79482   0.90476   0.24686   0.00000  Uiso   1.00
O652   O     0.91260   0.85550   0.40805   0.00000  Uiso   1.00
O653   O     0.67348   0.90868   0.15654   0.00000  Uiso   1.00
O654   O     0.68226   0.74491   0.33835   0.00000  Uiso   1.00
O655   O     0.91777   0.68018   0.22977   0.00000  Uiso   1.00
O656   O     0.75548   0.99387   0.28766   0.00000  Uiso   1.00
O657   O     0.98152   0.84544   0.30455   0.00000  Uiso   1.00
O658   O     0.68255   0.81907   0.19564   0.00000  Uiso   1.00
O659   O     0.87185   0.76191   0.25314   0.00000  Uiso   1.00
O660   O     0.89496   0.91420   0.25503   0.00000  Uiso   1.00
O661   O     0.77171   0.75247   0.24498   0.00000  Uiso   1.00
O662   O     0.75518   0.82597   0.30855   0.00000  Uiso   1.00
O663   O     0.91149   0.84070   0.19146   0.00000  Uiso   1.00
O664   O     0.85532   0.83540   0.31671   0.00000  Uiso   1.00
O665   O     0.81134   0.83126   0.18329   0.00000  Uiso   1.00
O666   O     0.83890   0.74912   0.11878   0.00000  Uiso   1.00
C667   C     0.18111   0.26634   0.75131   0.00000  Uiso   1.00
C668   C     0.20471   0.17350   0.66732   0.00000  Uiso   1.00
C669   C     0.10283   0.15787   0.88209   0.00000  Uiso   1.00
C670   C     0.22604   0.18999   0.62175   0.00000  Uiso   1.00
C671   C     0.02156   0.12361   0.94465   0.00000  Uiso   1.00
C672   C     0.26900   0.26301   0.57527   0.00000  Uiso   1.00
C673   C     0.04186   0.12939   0.89951   0.00000  Uiso   1.00
C674   C     0.26750   0.23789   0.61258   0.00000  Uiso   1.00
C675   C     0.13972   0.18198   0.91220   0.00000  Uiso   1.00
C676   C     0.19105   0.16615   0.59069   0.00000  Uiso   1.00
C677   C     0.11666   0.17809   0.95815   0.00000  Uiso   1.00
C678   C     0.15230   0.06721   0.74970   0.00000  Uiso   1.00
C679   C     0.18591   0.19585   0.55664   0.00000  Uiso   1.00
C680   C     0.05958   0.14488   0.97341   0.00000  Uiso   1.00
C681   C     0.22827   0.24322   0.54796   0.00000  Uiso   1.00
C682   C     0.15103   0.20285   0.98959   0.00000  Uiso   1.00
C683   C     0.14101   0.18032   0.53024   0.00000  Uiso   1.00
C684   C     0.16951   0.10867   0.58961   0.00000  Uiso   1.00
C685   C     0.20556   0.20462   0.89577   0.00000  Uiso   1.00
C686   C     0.30856   0.26504   0.64138   0.00000  Uiso   1.00
C687   C     0.33115   0.10107   0.87305   0.00000  Uiso   1.00
C688   C     0.28828   0.01840   0.76112   0.00000  Uiso   1.00
C689   C     0.08348   0.14739   0.54470   0.00000  Uiso   1.00
C690   C     0.09965   0.00267   0.83057   0.00000  Uiso   1.00
C691   C     0.33180   0.22987   0.81976   0.00000  Uiso   1.00
C692   C     0.01650   0.10169   0.67737   0.00000  Uiso   1.00
C693   C     0.19188   0.25082   0.98297   0.00000  Uiso   1.00
C694   C     0.04200   0.13182   0.51725   0.00000  Uiso   1.00
C695   C     0.22931   0.27102   0.51211   0.00000  Uiso   1.00
C696   C     0.19126   0.32150   0.74734   0.00000  Uiso   1.00
C697   C     0.14321   0.01364   0.75879   0.00000  Uiso   1.00
C698   C     0.12811   0.16214   0.83347   0.00000  Uiso   1.00
Cu699  Cu    0.10737   0.16108   0.74517   0.00000  Uiso   1.00
Cu700  Cu    0.22596   0.17225   0.75484   0.00000  Uiso   1.00
H701   H     0.33102   0.10706   0.52966   0.00000  Uiso   1.00
H702   H     0.28131   0.09739   0.88618   0.00000  Uiso   1.00
H703   H     0.32629   0.32928   0.74880   0.00000  Uiso   1.00
H704   H     0.26282   0.00589   0.79449   0.00000  Uiso   1.00
H705   H     0.30959   0.05955   0.76516   0.00000  Uiso   1.00
H706   H     0.12027   0.04379   0.83760   0.00000  Uiso   1.00
H707   H     0.13020   0.31008   0.83622   0.00000  Uiso   1.00
H708   H     0.05453   0.32695   0.85451   0.00000  Uiso   1.00
H709   H     0.04772   0.24277   0.80616   0.00000  Uiso   1.00
H710   H     0.30289   0.25610   0.81228   0.00000  Uiso   1.00
H711   H     0.32899   0.23148   0.85523   0.00000  Uiso   1.00
H712   H     0.26029   0.30803   0.50597   0.00000  Uiso   1.00
H713   H     0.04325   0.10366   0.64322   0.00000  Uiso   1.00
H714   H     0.30152   0.08226   0.67664   0.00000  Uiso   1.00
H715   H     0.03873   0.07784   0.69388   0.00000  Uiso   1.00
H716   H     0.30995   0.09971   0.95735   0.00000  Uiso   1.00
H717   H     0.30096   0.29947   0.56825   0.00000  Uiso   1.00
H718   H     0.06894   0.13553   0.57785   0.00000  Uiso   1.00
H719   H     0.19376   0.27392   0.95594   0.00000  Uiso   1.00
H720   H     0.15368   0.08857   0.56152   0.00000  Uiso   1.00
H721   H     0.21790   0.23568   0.87339   0.00000  Uiso   1.00
H722   H     0.31421   0.30684   0.64668   0.00000  Uiso   1.00
N723   N     0.31506   0.18068   0.76212   0.00000  Uiso   1.00
N724   N     0.01827   0.15265   0.73788   0.00000  Uiso   1.00
O725   O     0.12815   0.23809   0.74686   0.00000  Uiso   1.00
O726   O     0.24594   0.18884   0.90805   0.00000  Uiso   1.00
O727   O     0.00681   0.24201   0.65654   0.00000  Uiso   1.00
O728   O     0.01559   0.07824   0.83835   0.00000  Uiso   1.00
O729   O     0.25110   0.01352   0.72977   0.00000  Uiso   1.00
O730   O     0.08881   0.32721   0.78766   0.00000  Uiso   1.00
O731   O     0.31485   0.17877   0.80455   0.00000  Uiso   1.00
O732   O     0.01588   0.15240   0.69564   0.00000  Uiso   1.00
O733   O     0.20518   0.09524   0.75314   0.00000  Uiso   1.00
O734   O     0.22829   0.24753   0.75503   0.00000  Uiso   1.00
O735   O     0.10504   0.08580   0.74498   0.00000  Uiso   1.00
O736   O     0.08851   0.15930   0.80855   0.00000  Uiso   1.00
O737   O     0.24482   0.17403   0.69146   0.00000  Uiso   1.00
O738   O     0.18866   0.16874   0.81671   0.00000  Uiso   1.00
O739   O     0.14468   0.16460   0.68329   0.00000  Uiso   1.00
O740   O     0.17224   0.08245   0.61878   0.00000  Uiso   1.00
C741   C     0.51445   0.26634   0.75131   0.00000  Uiso   1.00
C742   C     0.53805   0.17350   0.66732   0.00000  Uiso   1.00
C743   C     0.43617   0.15787   0.88209   0.00000  Uiso   1.00
C744   C     0.55938   0.18999   0.62175   0.00000  Uiso   1.00
C745   C     0.35490   0.12361   0.94465   0.00000  Uiso   1.00
C746   C     0.60233   0.26301   0.57527   0.00000  Uiso   1.00
C747   C     0.37519   0.12939   0.89951   0.00000  Uiso   1.00
C748   C     0.60083   0.23789   0.61258   0.00000  Uiso   1.00
C749   C     0.47305   0.18198   0.91220   0.00000  Uiso   1.00
C750   C     0.52439   0.16615   0.59069   0.00000  Uiso   1.00
C751   C     0.44999   0.17809   0.95815   0.00000  Uiso   1.00
C752   C     0.48563   0.06721   0.74970   0.00000  Uiso   1.00
C753   C     0.51925   0.19585   0.55664   0.00000  Uiso   1.00
C754   C     0.39291   0.14488   0.97341   0.00000  Uiso   1.00
C755   C     0.56160   0.24322   0.54796   0.00000  Uiso   1.00
C756   C     0.48436   0.20285   0.98959   0.00000  Uiso   1.00
C757   C     0.47435   0.18032   0.53024   0.00000  Uiso   1.00
C758   C     0.50284   0.10867   0.58961   0.00000  Uiso   1.00
C759   C     0.53889   0.20462   0.89577   0.00000  Uiso   1.00
C760   C     0.64189   0.26504   0.64138   0.00000  Uiso   1.00
C761   C     0.66448   0.10107   0.87305   0.00000  Uiso   1.00
C762   C     0.62161   0.01840   0.76112   0.00000  Uiso   1.00
C763   C     0.41682   0.14739   0.54470   0.00000  Uiso   1.00
C764   C     0.43298   0.00267   0.83057   0.00000  Uiso   1.00
C765   C     0.66513   0.22987   0.81976   0.00000  Uiso   1.00
C766   C     0.34983   0.10169   0.67737   0.00000  Uiso   1.00
C767   C     0.52522   0.25082   0.98297   0.00000  Uiso   1.00
C768   C     0.37533   0.13182   0.51725   0.00000  Uiso   1.00
C769   C     0.56264   0.27102   0.51211   0.00000  Uiso   1.00
C770   C     0.52460   0.32150   0.74734   0.00000  Uiso   1.00
C771   C     0.47654   0.01364   0.75879   0.00000  Uiso   1.00
C772   C     0.46145   0.16214   0.83347   0.00000  Uiso   1.00
Cu773  Cu    0.44071   0.16108   0.74517   0.00000  Uiso   1.00
Cu774  Cu    0.55929   0.17225   0.75484   0.00000  Uiso   1.00
H775   H     0.66435   0.10706   0.52966   0.00000  Uiso   1.00
H776   H     0.61465   0.09739   0.88618   0.00000  Uiso   1.00
H777   H     0.65962   0.32928   0.74880   0.00000  Uiso   1.00
H778   H     0.59615   0.00589   0.79449   0.00000  Uiso   1.00
H779   H     0.64292   0.05955   0.76516   0.00000  Uiso   1.00
H780   H     0.45361   0.04379   0.83760   0.00000  Uiso   1.00
H781   H     0.46353   0.31008   0.83622   0.00000  Uiso   1.00
H782   H     0.38786   0.32695   0.85451   0.00000  Uiso   1.00
H783   H     0.38105   0.24277   0.80616   0.00000  Uiso   1.00
H784   H     0.63623   0.25610   0.81228   0.00000  Uiso   1.00
H785   H     0.66232   0.23148   0.85523   0.00000  Uiso   1.00
H786   H     0.59363   0.30803   0.50597   0.00000  Uiso   1.00
H787   H     0.37658   0.10366   0.64322   0.00000  Uiso   1.00
H788   H     0.63485   0.08226   0.67664   0.00000  Uiso   1.00
H789   H     0.37207   0.07784   0.69388   0.00000  Uiso   1.00
H790   H     0.64329   0.09971   0.95735   0.00000  Uiso   1.00
H791   H     0.63429   0.29947   0.56825   0.00000  Uiso   1.00
H792   H     0.40227   0.13553   0.57785   0.00000  Uiso   1.00
H793   H     0.52709   0.27392   0.95594   0.00000  Uiso   1.00
H794   H     0.48702   0.08857   0.56152   0.00000  Uiso   1.00
H795   H     0.55124   0.23568   0.87339   0.00000  Uiso   1.00
H796   H     0.64754   0.30684   0.64668   0.00000  Uiso   1.00
N797   N     0.64839   0.18068   0.76212   0.00000  Uiso   1.00
N798   N     0.35161   0.15265   0.73788   0.00000  Uiso   1.00
O799   O     0.46148   0.23809   0.74686   0.00000  Uiso   1.00
O800   O     0.57927   0.18884   0.90805   0.00000  Uiso   1.00
O801   O     0.34014   0.24201   0.65654   0.00000  Uiso   1.00
O802   O     0.34892   0.07824   0.83835   0.00000  Uiso   1.00
O803   O     0.58443   0.01352   0.72977   0.00000  Uiso   1.00
O804   O     0.42215   0.32721   0.78766   0.00000  Uiso   1.00
O805   O     0.64818   0.17877   0.80455   0.00000  Uiso   1.00
O806   O     0.34921   0.15240   0.69564   0.00000  Uiso   1.00
O807   O     0.53852   0.09524   0.75314   0.00000  Uiso   1.00
O808   O     0.56163   0.24753   0.75503   0.00000  Uiso   1.00
O809   O     0.43837   0.08580   0.74498   0.00000  Uiso   1.00
O810   O     0.42185   0.15930   0.80855   0.00000  Uiso   1.00
O811   O     0.57815   0.17403   0.69146   0.00000  Uiso   1.00
O812   O     0.52199   0.16874   0.81671   0.00000  Uiso   1.00
O813   O     0.47801   0.16460   0.68329   0.00000  Uiso   1.00
O814   O     0.50557   0.08245   0.61878   0.00000  Uiso   1.00
C815   C     0.84778   0.26634   0.75131   0.00000  Uiso   1.00
C816   C     0.87138   0.17350   0.66732   0.00000  Uiso   1.00
C817   C     0.76950   0.15787   0.88209   0.00000  Uiso   1.00
C818   C     0.89271   0.18999   0.62175   0.00000  Uiso   1.00
C819   C     0.68823   0.12361   0.94465   0.00000  Uiso   1.00
C820   C     0.93566   0.26301   0.57527   0.00000  Uiso   1.00
C821   C     0.70852   0.12939   0.89951   0.00000  Uiso   1.00
C822   C     0.93416   0.23789   0.61258   0.00000  Uiso   1.00
C823   C     0.80639   0.18198   0.91220   0.00000  Uiso   1.00
C824   C     0.85772   0.16615   0.59069   0.00000  Uiso   1.00
C825   C     0.78332   0.17809   0.95815   0.00000  Uiso   1.00
C826   C     0.81896   0.06721   0.74970   0.00000  Uiso   1.00
C827   C     0.85258   0.19585   0.55664   0.00000  Uiso   1.00
C828   C     0.72624   0.14488   0.97341   0.00000  Uiso   1.00
C829   C     0.89493   0.24322   0.54796   0.00000  Uiso   1.00
C830   C     0.81769   0.20285   0.98959   0.00000  Uiso   1.00
C831   C     0.80768   0.18032   0.53024   0.00000  Uiso   1.00
C832   C     0.83617   0.10867   0.58961   0.00000  Uiso   1.00
C833   C     0.87223   0.20462   0.89577   0.00000  Uiso   1.00
C834   C     0.97523   0.26504   0.64138   0.00000  Uiso   1.00
C835   C     0.99781   0.10107   0.87305   0.00000  Uiso   1.00
C836   C     0.95494   0.01840   0.76112   0.00000  Uiso   1.00
C837   C     0.75015   0.14739   0.54470   0.00000  Uiso   1.00
C838   C     0.76631   0.00267   0.83057   0.00000  Uiso   1.00
C839   C     0.99847   0.22987   0.81976   0.00000  Uiso   1.00
C840   C     0.68317   0.10169   0.67737   0.00000  Uiso   1.00
C841   C     0.85855   0.25082   0.98297   0.00000  Uiso   1.00
C842   C     0.70867   0.13182   0.51725   0.00000  Uiso   1.00
C843   C     0.89597   0.27102   0.51211   0.00000  Uiso   1.00
C844   C     0.85793   0.32150   0.74734   0.00000  Uiso   1.00
C845   C     0.80987   0.01364   0.75879   0.00000  Uiso   1.00
C846   C     0.79478   0.16214   0.83347   0.00000  Uiso   1.00
Cu847  Cu    0.77404   0.16108   0.74517   0.00000  Uiso   1.00
Cu848  Cu    0.89263   0.17225   0.75484   0.00000  Uiso   1.00
H849   H     0.99768   0.10706   0.52966   0.00000  Uiso   1.00
H850   H     0.94798   0.09739   0.88618   0.00000  Uiso   1.00
H851   H     0.99295   0.32928   0.74880   0.00000  Uiso   1.00
H852   H     0.92948   0.00589   0.79449   0.00000  Uiso   1.00
H853   H     0.97625   0.05955   0.76516   0.00000  Uiso   1.00
H854   H     0.78694   0.04379   0.83760   0.00000  Uiso   1.00
H855   H     0.79687   0.31008   0.83622   0.00000  Uiso   1.00
H856   H     0.72120   0.32695   0.85451   0.00000  Uiso   1.00
H857   H     0.71438   0.24277   0.80616   0.00000  Uiso   1.00
H858   H     0.96956   0.25610   0.81228   0.00000  Uiso   1.00
H859   H     0.99565   0.23148   0.85523   0.00000  Uiso   1.00
H860   H     0.92696   0.30803   0.50597   0.00000  Uiso   1.00
H861   H     0.70991   0.10366   0.64322   0.00000  Uiso   1.00
H862   H     0.96819   0.08226   0.67664   0.00000  Uiso   1.00
H863   H     0.70540   0.07784   0.69388   0.00000  Uiso   1.00
H864   H     0.97662   0.09971   0.95735   0.00000  Uiso   1.00
H865   H     0.96763   0.29947   0.56825   0.00000  Uiso   1.00
H866   H     0.73561   0.13553   0.57785   0.00000  Uiso   1.00
H867   H     0.86042   0.27392   0.95594   0.00000  Uiso   1.00
H868   H     0.82035   0.08857   0.56152   0.00000  Uiso   1.00
H869   H     0.88457   0.23568   0.87339   0.00000  Uiso   1.00
H870   H     0.98087   0.30684   0.64668   0.00000  Uiso   1.00
N871   N     0.98173   0.18068   0.76212   0.00000  Uiso   1.00
N872   N     0.68494   0.15265   0.73788   0.00000  Uiso   1.00
O873   O     0.79482   0.23809   0.74686   0.00000  Uiso   1.00
O874   O     0.91260   0.18884   0.90805   0.00000  Uiso   1.00
O875   O     0.67348   0.24201   0.65654   0.00000  Uiso   1.00
O876   O     0.68226   0.07824   0.83835   0.00000  Uiso   1.00
O877   O     0.91777   0.01352   0.72977   0.00000  Uiso   1.00
O878   O     0.75548   0.32721   0.78766   0.00000  Uiso   1.00
O879   O     0.98152   0.17877   0.80455   0.00000  Uiso   1.00
O880   O     0.68255   0.15240   0.69564   0.00000  Uiso   1.00
O881   O     0.87185   0.09524   0.75314   0.00000  Uiso   1.00
O882   O     0.89496   0.24753   0.75503   0.00000  Uiso   1.00
O883   O     0.77171   0.08580   0.74498   0.00000  Uiso   1.00
O884   O     0.75518   0.15930   0.80855   0.00000  Uiso   1.00
O885   O     0.91149   0.17403   0.69146   0.00000  Uiso   1.00
O886   O     0.85532   0.16874   0.81671   0.00000  Uiso   1.00
O887   O     0.81134   0.16460   0.68329   0.00000  Uiso   1.00
O888   O     0.83890   0.08245   0.61878   0.00000  Uiso   1.00
C889   C     0.18111   0.59967   0.75131   0.00000  Uiso   1.00
C890   C     0.20471   0.50683   0.66732   0.00000  Uiso   1.00
C891   C     0.10283   0.49120   0.88209   0.00000  Uiso   1.00
C892   C     0.22604   0.52333   0.62175   0.00000  Uiso   1.00
C893   C     0.02156   0.45694   0.94465   0.00000  Uiso   1.00
C894   C     0.26900   0.59634   0.57527   0.00000  Uiso   1.00
C895   C     0.04186   0.46272   0.89951   0.00000  Uiso   1.00
C896   C     0.26750   0.57122   0.61258   0.00000  Uiso   1.00
C897   C     0.13972   0.51532   0.91220   0.00000  Uiso   1.00
C898   C     0.19105   0.49948   0.59069   0.00000  Uiso   1.00
C899   C     0.11666   0.51143   0.95815   0.00000  Uiso   1.00
C900   C     0.15230   0.40054   0.74970   0.00000  Uiso   1.00
C901   C     0.18591   0.52918   0.55664   0.00000  Uiso   1.00
C902   C     0.05958   0.47821   0.97341   0.00000  Uiso   1.00
C903   C     0.22827   0.57656   0.54796   0.00000  Uiso   1.00
C904   C     0.15103   0.53618   0.98959   0.00000  Uiso   1.00
C905   C     0.14101   0.51365   0.53024   0.00000  Uiso   1.00
C906   C     0.16951   0.44200   0.58961   0.00000  Uiso   1.00
C907   C     0.20556   0.53795   0.89577   0.00000  Uiso   1.00
C908   C     0.30856   0.59837   0.64138   0.00000  Uiso   1.00
C909   C     0.33115   0.43441   0.87305   0.00000  Uiso   1.00
C910   C     0.28828   0.35173   0.76112   0.00000  Uiso   1.00
C911   C     0.08348   0.48073   0.54470   0.00000  Uiso   1.00
C912   C     0.09965   0.33601   0.83057   0.00000  Uiso   1.00
C913   C     0.33180   0.56320   0.81976   0.00000  Uiso   1.00
C914   C     0.01650   0.43503   0.67737   0.00000  Uiso   1.00
C915   C     0.19188   0.58415   0.98297   0.00000  Uiso   1.00
C916   C     0.04200   0.46516   0.51725   0.00000  Uiso   1.00
C917   C     0.22931   0.60436   0.51211   0.00000  Uiso   1.00
C918   C     0.19126   0.65483   0.74734   0.00000  Uiso   1.00
C919   C     0.14321   0.34697   0.75879   0.00000  Uiso   1.00
C920   C     0.12811   0.49547   0.83347   0.00000  Uiso   1.00
Cu921  Cu    0.10737   0.49441   0.74517   0.00000  Uiso   1.00
Cu922  Cu    0.22596   0.50559   0.75484   0.00000  Uiso   1.00
H923   H     0.33102   0.44039   0.52966   0.00000  Uiso   1.00
H924   H     0.28131   0.43072   0.88618   0.00000  Uiso   1.00
H925   H     0.32629   0.66261   0.74880   0.00000  Uiso   1.00
H926   H     0.26282   0.33923   0.79449   0.00000  Uiso   1.00
H927   H     0.30959   0.39289   0.76516   0.00000  Uiso   1.00
H928   H     0.12027   0.37712   0.83760   0.00000  Uiso   1.00
H929   H     0.13020   0.64342   0.83622   0.00000  Uiso   1.00
H930   H     0.05453   0.66029   0.85451   0.00000  Uiso   1.00
H931   H     0.04772   0.57610   0.80616   0.00000  Uiso   1.00
H932   H     0.30289   0.58943   0.81228   0.00000  Uiso   1.00
H933   H     0.32899   0.56481   0.85523   0.00000  Uiso   1.00
H934   H     0.26029   0.64136   0.50597   0.00000  Uiso   1.00
H935   H     0.04325   0.43699   0.64322   0.00000  Uiso   1.00
H936   H     0.30152   0.41560   0.67664   0.00000  Uiso   1.00
H937   H     0.03873   0.41118   0.69388   0.00000  Uiso   1.00
H938   H     0.30995   0.43305   0.95735   0.00000  Uiso   1.00
H939   H     0.30096   0.63280   0.56825   0.00000  Uiso   1.00
H940   H     0.06894   0.46886   0.57785   0.00000  Uiso   1.00
H941   H     0.19376   0.60725   0.95594   0.00000  Uiso   1.00
H942   H     0.15368   0.42191   0.56152   0.00000  Uiso   1.00
H943   H     0.21790   0.56901   0.87339   0.00000  Uiso   1.00
H944   H     0.31421   0.64017   0.64668   0.00000  Uiso   1.00
N945   N     0.31506   0.51401   0.76212   0.00000  Uiso   1.00
N946   N     0.01827   0.48599   0.73788   0.00000  Uiso   1.00
O947   O     0.12815   0.57142   0.74686   0.00000  Uiso   1.00
O948   O     0.24594   0.52217   0.90805   0.00000  Uiso   1.00
O949   O     0.00681   0.57535   0.65654   0.00000  Uiso   1.00
O950   O     0.01559   0.41157   0.83835   0.00000  Uiso   1.00
O951   O     0.25110   0.34685   0.72977   0.00000  Uiso   1.00
O952   O     0.08881   0.66054   0.78766   0.00000  Uiso   1.00
O953   O     0.31485   0.51211   0.80455   0.00000  Uiso   1.00
O954   O     0.01588   0.48574   0.69564   0.00000  Uiso   1.00
O955   O     0.20518   0.42858   0.75314   0.00000  Uiso   1.00
O956   O     0.22829   0.58086   0.75503   0.00000  Uiso   1.00
O957   O     0.10504   0.41914   0.74498   0.00000  Uiso   1.00
O958   O     0.08851   0.49263   0.80855   0.00000  Uiso   1.00
O959   O     0.24482   0.50737   0.69146   0.00000  Uiso   1.00
O960   O     0.18866   0.50207   0.81671   0.00000  Uiso   1.00
O961   O     0.14468   0.49793   0.68329   0.00000  Uiso   1.00
O962   O     0.17224   0.41579   0.61878   0.00000  Uiso   1.00
C963   C     0.51445   0.59967   0.75131   0.00000  Uiso   1.00
C964   C     0.53805   0.50683   0.66732   0.00000  Uiso   1.00
C965   C     0.43617   0.49120   0.88209   0.00000  Uiso   1.00
C966   C     0.55938   0.52333   0.62175   0.00000  Uiso   1.00
C967   C     0.35490   0.45694   0.94465   0.00000  Uiso   1.00
C968   C     0.60233   0.59634   0.57527   0.00000  Uiso   1.00
C969   C     0.37519   0.46272   0.89951   0.00000  Uiso   1.00
C970   C     0.60083   0.57122   0.61258   0.00000  Uiso   1.00
C971   C     0.47305   0.51532   0.91220   0.00000  Uiso   1.00
C972   C     0.52439   0.49948   0.59069   0.00000  Uiso   1.00
C973   C     0.44999   0.51143   0.95815   0.00000  Uiso   1.00
C974   C     0.48563   0.40054   0.74970   0.00000  Uiso   1.00
C975   C     0.51925   0.52918   0.55664   0.00000  Uiso   1.00
C976   C     0.39291   0.47821   0.97341   0.00000  Uiso   1.00
C977   C     0.56160   0.57656   0.54796   0.00000  Uiso   1.00
C978   C     0.48436   0.53618   0.98959   0.00000  Uiso   1.00
C979   C     0.47435   0.51365   0.53024   0.00000  Uiso   1.00
C980   C     0.50284   0.44200   0.58961   0.00000  Uiso   1.00
C981   C     0.53889   0.53795   0.89577   0.00000  Uiso   1.00
C982   C     0.64189   0.59837   0.64138   0.00000  Uiso   1.00
C983   C     0.66448   0.43441   0.87305   0.00000  Uiso   1.00
C984   C     0.62161   0.35173   0.76112   0.00000  Uiso   1.00
C985   C     0.41682   0.48073   0.54470   0.00000  Uiso   1.00
C986   C     0.43298   0.33601   0.83057   0.00000  Uiso   1.00
C987   C     0.66513   0.56320   0.81976   0.00000  Uiso   1.00
C988   C     0.34983   0.43503   0.67737   0.00000  Uiso   1.00
C989   C     0.52522   0.58415   0.98297   0.00000  Uiso   1.00
C990   C     0.37533   0.46516   0.51725   0.00000  Uiso   1.00
C991   C     0.56264   0.60436   0.51211   0.00000  Uiso   1.00
C992   C     0.52460   0.65483   0.74734   0.00000  Uiso   1.00
C993   C     0.47654   0.34697   0.75879   0.00000  Uiso   1.00
C994   C     0.46145   0.49547   0.83347   0.00000  Uiso   1.00
Cu995  Cu    0.44071   0.49441   0.74517   0.00000  Uiso   1.00
Cu996  Cu    0.55929   0.50559   0.75484   0.00000  Uiso   1.00
H997   H     0.66435   0.44039   0.52966   0.00000  Uiso   1.00
H998   H     0.61465   0.43072   0.88618   0.00000  Uiso   1.00
H999   H     0.65962   0.66261   0.74880   0.00000  Uiso   1.00
H1000  H     0.59615   0.33923   0.79449   0.00000  Uiso   1.00
H1001  H     0.64292   0.39289   0.76516   0.00000  Uiso   1.00
H1002  H     0.45361   0.37712   0.83760   0.00000  Uiso   1.00
H1003  H     0.46353   0.64342   0.83622   0.00000  Uiso   1.00
H1004  H     0.38786   0.66029   0.85451   0.00000  Uiso   1.00
H1005  H     0.38105   0.57610   0.80616   0.00000  Uiso   1.00
H1006  H     0.63623   0.58943   0.81228   0.00000  Uiso   1.00
H1007  H     0.66232   0.56481   0.85523   0.00000  Uiso   1.00
H1008  H     0.59363   0.64136   0.50597   0.00000  Uiso   1.00
H1009  H     0.37658   0.43699   0.64322   0.00000  Uiso   1.00
H1010  H     0.63485   0.41560   0.67664   0.00000  Uiso   1.00
H1011  H     0.37207   0.41118   0.69388   0.00000  Uiso   1.00
H1012  H     0.64329   0.43305   0.95735   0.00000  Uiso   1.00
H1013  H     0.63429   0.63280   0.56825   0.00000  Uiso   1.00
H1014  H     0.40227   0.46886   0.57785   0.00000  Uiso   1.00
H1015  H     0.52709   0.60725   0.95594   0.00000  Uiso   1.00
H1016  H     0.48702   0.42191   0.56152   0.00000  Uiso   1.00
H1017  H     0.55124   0.56901   0.87339   0.00000  Uiso   1.00
H1018  H     0.64754   0.64017   0.64668   0.00000  Uiso   1.00
N1019  N     0.64839   0.51401   0.76212   0.00000  Uiso   1.00
N1020  N     0.35161   0.48599   0.73788   0.00000  Uiso   1.00
O1021  O     0.46148   0.57142   0.74686   0.00000  Uiso   1.00
O1022  O     0.57927   0.52217   0.90805   0.00000  Uiso   1.00
O1023  O     0.34014   0.57535   0.65654   0.00000  Uiso   1.00
O1024  O     0.34892   0.41157   0.83835   0.00000  Uiso   1.00
O1025  O     0.58443   0.34685   0.72977   0.00000  Uiso   1.00
O1026  O     0.42215   0.66054   0.78766   0.00000  Uiso   1.00
O1027  O     0.64818   0.51211   0.80455   0.00000  Uiso   1.00
O1028  O     0.34921   0.48574   0.69564   0.00000  Uiso   1.00
O1029  O     0.53852   0.42858   0.75314   0.00000  Uiso   1.00
O1030  O     0.56163   0.58086   0.75503   0.00000  Uiso   1.00
O1031  O     0.43837   0.41914   0.74498   0.00000  Uiso   1.00
O1032  O     0.42185   0.49263   0.80855   0.00000  Uiso   1.00
O1033  O     0.57815   0.50737   0.69146   0.00000  Uiso   1.00
O1034  O     0.52199   0.50207   0.81671   0.00000  Uiso   1.00
O1035  O     0.47801   0.49793   0.68329   0.00000  Uiso   1.00
O1036  O     0.50557   0.41579   0.61878   0.00000  Uiso   1.00
C1037  C     0.84778   0.59967   0.75131   0.00000  Uiso   1.00
C1038  C     0.87138   0.50683   0.66732   0.00000  Uiso   1.00
C1039  C     0.76950   0.49120   0.88209   0.00000  Uiso   1.00
C1040  C     0.89271   0.52333   0.62175   0.00000  Uiso   1.00
C1041  C     0.68823   0.45694   0.94465   0.00000  Uiso   1.00
C1042  C     0.93566   0.59634   0.57527   0.00000  Uiso   1.00
C1043  C     0.70852   0.46272   0.89951   0.00000  Uiso   1.00
C1044  C     0.93416   0.57122   0.61258   0.00000  Uiso   1.00
C1045  C     0.80639   0.51532   0.91220   0.00000  Uiso   1.00
C1046  C     0.85772   0.49948   0.59069   0.00000  Uiso   1.00
C1047  C     0.78332   0.51143   0.95815   0.00000  Uiso   1.00
C1048  C     0.81896   0.40054   0.74970   0.00000  Uiso   1.00
C1049  C     0.85258   0.52918   0.55664   0.00000  Uiso   1.00
C1050  C     0.72624   0.47821   0.97341   0.00000  Uiso   1.00
C1051  C     0.89493   0.57656   0.54796   0.00000  Uiso   1.00
C1052  C     0.81769   0.53618   0.98959   0.00000  Uiso   1.00
C1053  C     0.80768   0.51365   0.53024   0.00000  Uiso   1.00
C1054  C     0.83617   0.44200   0.58961   0.00000  Uiso   1.00
C1055  C     0.87223   0.53795   0.89577   0.00000  Uiso   1.00
C1056  C     0.97523   0.59837   0.64138   0.00000  Uiso   1.00
C1057  C     0.99781   0.43441   0.87305   0.00000  Uiso   1.00
C1058  C     0.95494   0.35173   0.76112   0.00000  Uiso   1.00
C1059  C     0.75015   0.48073   0.54470   0.00000  Uiso   1.00
C1060  C     0.76631   0.33601   0.83057   0.00000  Uiso   1.00
C1061  C     0.99847   0.56320   0.81976   0.00000  Uiso   1.00
C1062  C     0.68317   0.43503   0.67737   0.00000  Uiso   1.00
C1063  C     0.85855   0.58415   0.98297   0.00000  Uiso   1.00
C1064  C     0.70867   0.46516   0.51725   0.00000  Uiso   1.00
C1065  C     0.89597   0.60436   0.51211   0.00000  Uiso   1.00
C1066  C     0.85793   0.65483   0.74734   0.00000  Uiso   1.00
C1067  C     0.80987   0.34697   0.75879   0.00000  Uiso   1.00
C1068  C     0.79478   0.49547   0.83347   0.00000  Uiso   1.00
Cu1069 Cu    0.77404   0.49441   0.74517   0.00000  Uiso   1.00
Cu1070 Cu    0.89263   0.50559   0.75484   0.00000  Uiso   1.00
H1071  H     0.99768   0.44039   0.52966   0.00000  Uiso   1.00
H1072  H     0.94798   0.43072   0.88618   0.00000  Uiso   1.00
H1073  H     0.99295   0.66261   0.74880   0.00000  Uiso   1.00
H1074  H     0.92948   0.33923   0.79449   0.00000  Uiso   1.00
H1075  H     0.97625   0.39289   0.76516   0.00000  Uiso   1.00
H1076  H     0.78694   0.37712   0.83760   0.00000  Uiso   1.00
H1077  H     0.79687   0.64342   0.83622   0.00000  Uiso   1.00
H1078  H     0.72120   0.66029   0.85451   0.00000  Uiso   1.00
H1079  H     0.71438   0.57610   0.80616   0.00000  Uiso   1.00
H1080  H     0.96956   0.58943   0.81228   0.00000  Uiso   1.00
H1081  H     0.99565   0.56481   0.85523   0.00000  Uiso   1.00
H1082  H     0.92696   0.64136   0.50597   0.00000  Uiso   1.00
H1083  H     0.70991   0.43699   0.64322   0.00000  Uiso   1.00
H1084  H     0.96819   0.41560   0.67664   0.00000  Uiso   1.00
H1085  H     0.70540   0.41118   0.69388   0.00000  Uiso   1.00
H1086  H     0.97662   0.43305   0.95735   0.00000  Uiso   1.00
H1087  H     0.96763   0.63280   0.56825   0.00000  Uiso   1.00
H1088  H     0.73561   0.46886   0.57785   0.00000  Uiso   1.00
H1089  H     0.86042   0.60725   0.95594   0.00000  Uiso   1.00
H1090  H     0.82035   0.42191   0.56152   0.00000  Uiso   1.00
H1091  H     0.88457   0.56901   0.87339   0.00000  Uiso   1.00
H1092  H     0.98087   0.64017   0.64668   0.00000  Uiso   1.00
N1093  N     0.98173   0.51401   0.76212   0.00000  Uiso   1.00
N1094  N     0.68494   0.48599   0.73788   0.00000  Uiso   1.00
O1095  O     0.79482   0.57142   0.74686   0.00000  Uiso   1.00
O1096  O     0.91260   0.52217   0.90805   0.00000  Uiso   1.00
O1097  O     0.67348   0.57535   0.65654   0.00000  Uiso   1.00
O1098  O     0.68226   0.41157   0.83835   0.00000  Uiso   1.00
O1099  O     0.91777   0.34685   0.72977   0.00000  Uiso   1.00
O1100  O     0.75548   0.66054   0.78766   0.00000  Uiso   1.00
O1101  O     0.98152   0.51211   0.80455   0.00000  Uiso   1.00
O1102  O     0.68255   0.48574   0.69564   0.00000  Uiso   1.00
O1103  O     0.87185   0.42858   0.75314   0.00000  Uiso   1.00
O1104  O     0.89496   0.58086   0.75503   0.00000  Uiso   1.00
O1105  O     0.77171   0.41914   0.74498   0.00000  Uiso   1.00
O1106  O     0.75518   0.49263   0.80855   0.00000  Uiso   1.00
O1107  O     0.91149   0.50737   0.69146   0.00000  Uiso   1.00
O1108  O     0.85532   0.50207   0.81671   0.00000  Uiso   1.00
O1109  O     0.81134   0.49793   0.68329   0.00000  Uiso   1.00
O1110  O     0.83890   0.41579   0.61878   0.00000  Uiso   1.00
C1111  C     0.18111   0.93301   0.75131   0.00000  Uiso   1.00
C1112  C     0.20471   0.84017   0.66732   0.00000  Uiso   1.00
C1113  C     0.10283   0.82454   0.88209   0.00000  Uiso   1.00
C1114  C     0.22604   0.85666   0.62175   0.00000  Uiso   1.00
C1115  C     0.02156   0.79027   0.94465   0.00000  Uiso   1.00
C1116  C     0.26900   0.92968   0.57527   0.00000  Uiso   1.00
C1117  C     0.04186   0.79605   0.89951   0.00000  Uiso   1.00
C1118  C     0.26750   0.90456   0.61258   0.00000  Uiso   1.00
C1119  C     0.13972   0.84865   0.91220   0.00000  Uiso   1.00
C1120  C     0.19105   0.83281   0.59069   0.00000  Uiso   1.00
C1121  C     0.11666   0.84476   0.95815   0.00000  Uiso   1.00
C1122  C     0.15230   0.73387   0.74970   0.00000  Uiso   1.00
C1123  C     0.18591   0.86251   0.55664   0.00000  Uiso   1.00
C1124  C     0.05958   0.81155   0.97341   0.00000  Uiso   1.00
C1125  C     0.22827   0.90989   0.54796   0.00000  Uiso   1.00
C1126  C     0.15103   0.86952   0.98959   0.00000  Uiso   1.00
C1127  C     0.14101   0.84699   0.53024   0.00000  Uiso   1.00
C1128  C     0.16951   0.77533   0.58961   0.00000  Uiso   1.00
C1129  C     0.20556   0.87128   0.89577   0.00000  Uiso   1.00
C1130  C     0.30856   0.93170   0.64138   0.00000  Uiso   1.00
C1131  C     0.33115   0.76774   0.87305   0.00000  Uiso   1.00
C1132  C     0.28828   0.68507   0.76112   0.00000  Uiso   1.00
C1133  C     0.08348   0.81406   0.54470   0.00000  Uiso   1.00
C1134  C     0.09965   0.66934   0.83057   0.00000  Uiso   1.00
C1135  C     0.33180   0.89653   0.81976   0.00000  Uiso   1.00
C1136  C     0.01650   0.76836   0.67737   0.00000  Uiso   1.00
C1137  C     0.19188   0.91749   0.98297   0.00000  Uiso   1.00
C1138  C     0.04200   0.79849   0.51725   0.00000  Uiso   1.00
C1139  C     0.22931   0.93769   0.51211   0.00000  Uiso   1.00
C1140  C     0.19126   0.98816   0.74734   0.00000  Uiso   1.00
C1141  C     0.14321   0.68030   0.75879   0.00000  Uiso   1.00
C1142  C     0.12811   0.82881   0.83347   0.00000  Uiso   1.00
Cu1143 Cu    0.10737   0.82775   0.74517   0.00000  Uiso   1.00
Cu1144 Cu    0.22596   0.83892   0.75484   0.00000  Uiso   1.00
H1145  H     0.33102   0.77372   0.52966   0.00000  Uiso   1.00
H1146  H     0.28131   0.76405   0.88618   0.00000  Uiso   1.00
H1147  H     0.32629   0.99595   0.74880   0.00000  Uiso   1.00
H1148  H     0.26282   0.67256   0.79449   0.00000  Uiso   1.00
H1149  H     0.30959   0.72622   0.76516   0.00000  Uiso   1.00
H1150  H     0.12027   0.71046   0.83760   0.00000  Uiso   1.00
H1151  H     0.13020   0.97675   0.83622   0.00000  Uiso   1.00
H1152  H     0.05453   0.99362   0.85451   0.00000  Uiso   1.00
H1153  H     0.04772   0.90944   0.80616   0.00000  Uiso   1.00
H1154  H     0.30289   0.92277   0.81228   0.00000  Uiso   1.00
H1155  H     0.32899   0.89814   0.85523   0.00000  Uiso   1.00
H1156  H     0.26029   0.97469   0.50597   0.00000  Uiso   1.00
H1157  H     0.04325   0.77032   0.64322   0.00000  Uiso   1.00
H1158  H     0.30152   0.74893   0.67664   0.00000  Uiso   1.00
H1159  H     0.03873   0.74451   0.69388   0.00000  Uiso   1.00
H1160  H     0.30995   0.76638   0.95735   0.00000  Uiso   1.00
H1161  H     0.30096   0.96613   0.56825   0.00000  Uiso   1.00
H1162  H     0.06894   0.80219   0.57785   0.00000  Uiso   1.00
H1163  H     0.19376   0.94058   0.95594   0.00000  Uiso   1.00
H1164  H     0.15368   0.75524   0.56152   0.00000  Uiso   1.00
H1165  H     0.21790   0.90235   0.87339   0.00000  Uiso   1.00
H1166  H     0.31421   0.97351   0.64668   0.00000  Uiso   1.00
N1167  N     0.31506   0.84735   0.76212   0.00000  Uiso   1.00
N1168  N     0.01827   0.81932   0.73788   0.00000  Uiso   1.00
O1169  O     0.12815   0.90476   0.74686   0.00000  Uiso   1.00
O1170  O     0.24594   0.85550   0.90805   0.00000  Uiso   1.00
O1171  O     0.00681   0.90868   0.65654   0.00000  Uiso   1.00
O1172  O     0.01559   0.74491   0.83835   0.00000  Uiso   1.00
O1173  O     0.25110   0.68018   0.72977   0.00000  Uiso   1.00
O1174  O     0.08881   0.99387   0.78766   0.00000  Uiso   1.00
O1175  O     0.31485   0.84544   0.80455   0.00000  Uiso   1.00
O1176  O     0.01588   0.81907   0.69564   0.00000  Uiso   1.00
O1177  O     0.20518   0.76191   0.75314   0.00000  Uiso   1.00
O1178  O     0.22829   0.91420   0.75503   0.00000  Uiso   1.00
O1179  O     0.10504   0.75247   0.74498   0.00000  Uiso   1.00
O1180  O     0.08851   0.82597   0.80855   0.00000  Uiso   1.00
O1181  O     0.24482   0.84070   0.69146   0.00000  Uiso   1.00
O1182  O     0.18866   0.83540   0.81671   0.00000  Uiso   1.00
O1183  O     0.14468   0.83126   0.68329   0.00000  Uiso   1.00
O1184  O     0.17224   0.74912   0.61878   0.00000  Uiso   1.00
C1185  C     0.51445   0.93301   0.75131   0.00000  Uiso   1.00
C1186  C     0.53805   0.84017   0.66732   0.00000  Uiso   1.00
C1187  C     0.43617   0.82454   0.88209   0.00000  Uiso   1.00
C1188  C     0.55938   0.85666   0.62175   0.00000  Uiso   1.00
C1189  C     0.35490   0.79027   0.94465   0.00000  Uiso   1.00
C1190  C     0.60233   0.92968   0.57527   0.00000  Uiso   1.00
C1191  C     0.37519   0.79605   0.89951   0.00000  Uiso   1.00
C1192  C     0.60083   0.90456   0.61258   0.00000  Uiso   1.00
C1193  C     0.47305   0.84865   0.91220   0.00000  Uiso   1.00
C1194  C     0.52439   0.83281   0.59069   0.00000  Uiso   1.00
C1195  C     0.44999   0.84476   0.95815   0.00000  Uiso   1.00
C1196  C     0.48563   0.73387   0.74970   0.00000  Uiso   1.00
C1197  C     0.51925   0.86251   0.55664   0.00000  Uiso   1.00
C1198  C     0.39291   0.81155   0.97341   0.00000  Uiso   1.00
C1199  C     0.56160   0.90989   0.54796   0.00000  Uiso   1.00
C1200  C     0.48436   0.86952   0.98959   0.00000  Uiso   1.00
C1201  C     0.47435   0.84699   0.53024   0.00000  Uiso   1.00
C1202  C     0.50284   0.77533   0.58961   0.00000  Uiso   1.00
C1203  C     0.53889   0.87128   0.89577   0.00000  Uiso   1.00
C1204  C     0.64189   0.93170   0.64138   0.00000  Uiso   1.00
C1205  C     0.66448   0.76774   0.87305   0.00000  Uiso   1.00
C1206  C     0.62161   0.68507   0.76112   0.00000  Uiso   1.00
C1207  C     0.41682   0.81406   0.54470   0.00000  Uiso   1.00
C1208  C     0.43298   0.66934   0.83057   0.00000  Uiso   1.00
C1209  C     0.66513   0.89653   0.81976   0.00000  Uiso   1.00
C1210  C     0.34983   0.76836   0.67737   0.00000  Uiso   1.00
C1211  C     0.52522   0.91749   0.98297   0.00000  Uiso   1.00
C1212  C     0.37533   0.79849   0.51725   0.00000  Uiso   1.00
C1213  C     0.56264   0.93769   0.51211   0.00000  Uiso   1.00
C1214  C     0.52460   0.98816   0.74734   0.00000  Uiso   1.00
C1215  C     0.47654   0.68030   0.75879   0.00000  Uiso   1.00
C1216  C     0.46145   0.82881   0.83347   0.00000  Uiso   1.00
Cu1217 Cu    0.44071   0.82775   0.74517   0.00000  Uiso   1.00
Cu1218 Cu    0.55929   0.83892   0.75484   0.00000  Uiso   1.00
H1219  H     0.66435   0.77372   0.52966   0.00000  Uiso   1.00
H1220  H     0.61465   0.76405   0.88618   0.00000  Uiso   1.00
H1221  H     0.65962   0.99595   0.74880   0.00000  Uiso   1.00
H1222  H     0.59615   0.67256   0.79449   0.00000  Uiso   1.00
H1223  H     0.64292   0.72622   0.76516   0.00000  Uiso   1.00
H1224  H     0.45361   0.71046   0.83760   0.00000  Uiso   1.00
H1225  H     0.46353   0.97675   0.83622   0.00000  Uiso   1.00
H1226  H     0.38786   0.99362   0.85451   0.00000  Uiso   1.00
H1227  H     0.38105   0.90944   0.80616   0.00000  Uiso   1.00
H1228  H     0.63623   0.92277   0.81228   0.00000  Uiso   1.00
H1229  H     0.66232   0.89814   0.85523   0.00000  Uiso   1.00
H1230  H     0.59363   0.97469   0.50597   0.00000  Uiso   1.00
H1231  H     0.37658   0.77032   0.64322   0.00000  Uiso   1.00
H1232  H     0.63485   0.74893   0.67664   0.00000  Uiso   1.00
H1233  H     0.37207   0.74451   0.69388   0.00000  Uiso   1.00
H1234  H     0.64329   0.76638   0.95735   0.00000  Uiso   1.00
H1235  H     0.63429   0.96613   0.56825   0.00000  Uiso   1.00
H1236  H     0.40227   0.80219   0.57785   0.00000  Uiso   1.00
H1237  H     0.52709   0.94058   0.95594   0.00000  Uiso   1.00
H1238  H     0.48702   0.75524   0.56152   0.00000  Uiso   1.00
H1239  H     0.55124   0.90235   0.87339   0.00000  Uiso   1.00
H1240  H     0.64754   0.97351   0.64668   0.00000  Uiso   1.00
N1241  N     0.64839   0.84735   0.76212   0.00000  Uiso   1.00
N1242  N     0.35161   0.81932   0.73788   0.00000  Uiso   1.00
O1243  O     0.46148   0.90476   0.74686   0.00000  Uiso   1.00
O1244  O     0.57927   0.85550   0.90805   0.00000  Uiso   1.00
O1245  O     0.34014   0.90868   0.65654   0.00000  Uiso   1.00
O1246  O     0.34892   0.74491   0.83835   0.00000  Uiso   1.00
O1247  O     0.58443   0.68018   0.72977   0.00000  Uiso   1.00
O1248  O     0.42215   0.99387   0.78766   0.00000  Uiso   1.00
O1249  O     0.64818   0.84544   0.80455   0.00000  Uiso   1.00
O1250  O     0.34921   0.81907   0.69564   0.00000  Uiso   1.00
O1251  O     0.53852   0.76191   0.75314   0.00000  Uiso   1.00
O1252  O     0.56163   0.91420   0.75503   0.00000  Uiso   1.00
O1253  O     0.43837   0.75247   0.74498   0.00000  Uiso   1.00
O1254  O     0.42185   0.82597   0.80855   0.00000  Uiso   1.00
O1255  O     0.57815   0.84070   0.69146   0.00000  Uiso   1.00
O1256  O     0.52199   0.83540   0.81671   0.00000  Uiso   1.00
O1257  O     0.47801   0.83126   0.68329   0.00000  Uiso   1.00
O1258  O     0.50557   0.74912   0.61878   0.00000  Uiso   1.00
C1259  C     0.84778   0.93301   0.75131   0.00000  Uiso   1.00
C1260  C     0.87138   0.84017   0.66732   0.00000  Uiso   1.00
C1261  C     0.76950   0.82454   0.88209   0.00000  Uiso   1.00
C1262  C     0.89271   0.85666   0.62175   0.00000  Uiso   1.00
C1263  C     0.68823   0.79027   0.94465   0.00000  Uiso   1.00
C1264  C     0.93566   0.92968   0.57527   0.00000  Uiso   1.00
C1265  C     0.70852   0.79605   0.89951   0.00000  Uiso   1.00
C1266  C     0.93416   0.90456   0.61258   0.00000  Uiso   1.00
C1267  C     0.80639   0.84865   0.91220   0.00000  Uiso   1.00
C1268  C     0.85772   0.83281   0.59069   0.00000  Uiso   1.00
C1269  C     0.78332   0.84476   0.95815   0.00000  Uiso   1.00
C1270  C     0.81896   0.73387   0.74970   0.00000  Uiso   1.00
C1271  C     0.85258   0.86251   0.55664   0.00000  Uiso   1.00
C1272  C     0.72624   0.81155   0.97341   0.00000  Uiso   1.00
C1273  C     0.89493   0.90989   0.54796   0.00000  Uiso   1.00
C1274  C     0.81769   0.86952   0.98959   0.00000  Uiso   1.00
C1275  C     0.80768   0.84699   0.53024   0.00000  Uiso   1.00
C1276  C     0.83617   0.77533   0.58961   0.00000  Uiso   1.00
C1277  C     0.87223   0.87128   0.89577   0.00000  Uiso   1.00
C1278  C     0.97523   0.93170   0.64138   0.00000  Uiso   1.00
C1279  C     0.99781   0.76774   0.87305   0.00000  Uiso   1.00
C1280  C     0.95494   0.68507   0.76112   0.00000  Uiso   1.00
C1281  C     0.75015   0.81406   0.54470   0.00000  Uiso   1.00
C1282  C     0.76631   0.66934   0.83057   0.00000  Uiso   1.00
C1283  C     0.99847   0.89653   0.81976   0.00000  Uiso   1.00
C1284  C     0.68317   0.76836   0.67737   0.00000  Uiso   1.00
C1285  C     0.85855   0.91749   0.98297   0.00000  Uiso   1.00
C1286  C     0.70867   0.79849   0.51725   0.00000  Uiso   1.00
C1287  C     0.89597   0.93769   0.51211   0.00000  Uiso   1.00
C1288  C     0.85793   0.98816   0.74734   0.00000  Uiso   1.00
C1289  C     0.80987   0.68030   0.75879   0.00000  Uiso   1.00
C1290  C     0.79478   0.82881   0.83347   0.00000  Uiso   1.00
Cu1291 Cu    0.77404   0.82775   0.74517   0.00000  Uiso   1.00
Cu1292 Cu    0.89263   0.83892   0.75484   0.00000  Uiso   1.00
H1293  H     0.99768   0.77372   0.52966   0.00000  Uiso   1.00
H1294  H     0.94798   0.76405   0.88618   0.00000  Uiso   1.00
H1295  H     0.99295   0.99595   0.74880   0.00000  Uiso   1.00
H1296  H     0.92948   0.67256   0.79449   0.00000  Uiso   1.00
H1297  H     0.97625   0.72622   0.76516   0.00000  Uiso   1.00
H1298  H     0.78694   0.71046   0.83760   0.00000  Uiso   1.00
H1299  H     0.79687   0.97675   0.83622   0.00000  Uiso   1.00
H1300  H     0.72120   0.99362   0.85451   0.00000  Uiso   1.00
H1301  H     0.71438   0.90944   0.80616   0.00000  Uiso   1.00
H1302  H     0.96956   0.92277   0.81228   0.00000  Uiso   1.00
H1303  H     0.99565   0.89814   0.85523   0.00000  Uiso   1.00
H1304  H     0.92696   0.97469   0.50597   0.00000  Uiso   1.00
H1305  H     0.70991   0.77032   0.64322   0.00000  Uiso   1.00
H1306  H     0.96819   0.74893   0.67664   0.00000  Uiso   1.00
H1307  H     0.70540   0.74451   0.69388   0.00000  Uiso   1.00
H1308  H     0.97662   0.76638   0.95735   0.00000  Uiso   1.00
H1309  H     0.96763   0.96613   0.56825   0.00000  Uiso   1.00
H1310  H     0.73561   0.80219   0.57785   0.00000  Uiso   1.00
H1311  H     0.86042   0.94058   0.95594   0.00000  Uiso   1.00
H1312  H     0.82035   0.75524   0.56152   0.00000  Uiso   1.00
H1313  H     0.88457   0.90235   0.87339   0.00000  Uiso   1.00
H1314  H     0.98087   0.97351   0.64668   0.00000  Uiso   1.00
N1315  N     0.98173   0.84735   0.76212   0.00000  Uiso   1.00
N1316  N     0.68494   0.81932   0.73788   0.00000  Uiso   1.00
O1317  O     0.79482   0.90476   0.74686   0.00000  Uiso   1.00
O1318  O     0.91260   0.85550   0.90805   0.00000  Uiso   1.00
O1319  O     0.67348   0.90868   0.65654   0.00000  Uiso   1.00
O1320  O     0.68226   0.74491   0.83835   0.00000  Uiso   1.00
O1321  O     0.91777   0.68018   0.72977   0.00000  Uiso   1.00
O1322  O     0.75548   0.99387   0.78766   0.00000  Uiso   1.00
O1323  O     0.98152   0.84544   0.80455   0.00000  Uiso   1.00
O1324  O     0.68255   0.81907   0.69564   0.00000  Uiso   1.00
O1325  O     0.87185   0.76191   0.75314   0.00000  Uiso   1.00
O1326  O     0.89496   0.91420   0.75503   0.00000  Uiso   1.00
O1327  O     0.77171   0.75247   0.74498   0.00000  Uiso   1.00
O1328  O     0.75518   0.82597   0.80855   0.00000  Uiso   1.00
O1329  O     0.91149   0.84070   0.69146   0.00000  Uiso   1.00
O1330  O     0.85532   0.83540   0.81671   0.00000  Uiso   1.00
O1331  O     0.81134   0.83126   0.68329   0.00000  Uiso   1.00
O1332  O     0.83890   0.74912   0.61878   0.00000  Uiso   1.00
loop_
_geom_bond_atom_site_label_1
_geom_bond_atom_site_label_2
_geom_bond_distance
_geom_bond_site_symmetry_2
_ccdc_geom_bond_type
C1     C30     1.440   .     S
C1     O59     1.301   .     A
C1     O68     1.289   .     A
C2     C4      1.481   .     S
C2     O73     1.304   .     A
C2     O71     1.306   .     A
C3     C9      1.426   .     A
C3     C7      1.433   .     A
C3     C32     1.510   .     S
C4     C8      1.421   .     A
C4     C10     1.421   .     A
C5     C7      1.401   .     A
C5     C14     1.393   .     A
C5     H198    1.086   1_455 S
C6     H51     1.086   .     S
C6     C8      1.394   .     A
C6     C15     1.394   .     A
C7     C169    1.485   1_455 S
C8     C20     1.481   .     S
C9     C11     1.424   .     A
C9     C19     1.468   .     S
C10    C18     1.496   .     S
C10    C13     1.426   .     A
C11    C16     1.428   .     A
C11    C14     1.408   .     A
C12    O69     1.298   .     A
C12    C31     1.433   .     S
C12    O67     1.290   .     A
C13    C17     1.428   .     A
C13    C15     1.417   .     A
C14    C694    1.401   .     S
C15    C29     1.397   .     A
C16    C27     1.408   .     A
C16    C683    1.414   .     S
C17    C23     1.407   .     A
C17    C682    1.414   1_554 S
C18    O74     1.221   .     D
C18    H54     1.083   .     S
C19    O60     1.221   .     D
C19    H55     1.083   .     S
C20    H56     1.086   .     S
C20    O135    1.219   .     S
C21    H36     1.085   .     S
C21    C81     1.485   .     S
C21    O136    1.217   .     S
C22    H39     1.104   .     S
C22    H38     1.117   .     S
C22    O63     1.417   .     S
C22    H481    1.109   1_545 S
C23    H52     1.075   .     S
C23    C28     1.394   .     A
C24    H40     1.114   .     S
C24    H485    1.112   1_545 S
C24    H486    1.109   1_545 S
C24    O508    1.419   1_545 S
C25    H44     1.112   .     S
C25    H45     1.102   .     S
C25    O65     1.396   .     S
C25    H117    1.084   .     S
C26    H47     1.102   .     S
C26    H49     1.107   .     S
C26    O66     1.406   .     S
C26    H196    1.108   1_455 S
C27    H53     1.082   .     S
C27    C695    1.387   .     S
C28    C680    1.401   1_554 S
C28    H183    1.084   1_455 S
C29    H46     1.084   .     S
C29    C693    1.387   1_554 S
C30    C253    1.343   .     S
C30    O285    1.386   .     S
C31    C474    1.343   1_545 S
C31    O508    1.379   1_545 S
C32    O70     1.305   .     A
C32    O72     1.319   .     A
Cu33   N58     2.033   .     S
Cu33   O69     1.975   .     S
Cu33   Cu34    2.705   .     S
Cu33   O59     1.990   .     S
Cu33   O70     1.944   .     S
Cu33   O73     1.935   .     S
Cu34   O67     1.990   .     S
Cu34   N57     2.033   .     S
Cu34   O72     1.935   .     S
Cu34   O71     1.944   .     S
Cu34   O68     1.975   .     S
H35    C102    1.084   .     S
H37    C244    1.109   .     S
H41    C246    1.112   .     S
H42    C246    1.109   .     S
H43    C173    1.084   1_455 S
H48    C100    1.108   .     S
H50    C79     1.086   .     S
N57    O65     1.341   .     S
N57    N132    1.281   .     S
N58    O66     1.344   .     S
N58    N205    1.281   1_455 S
O61    C168    1.219   1_455 S
O62    C169    1.217   1_455 S
O63    C474    1.386   1_545 S
O64    C246    1.419   .     S
O64    C253    1.379   .     S
C75    C104    1.440   .     S
C75    O133    1.301   .     A
C75    O142    1.289   .     A
C76    C78     1.481   .     S
C76    O147    1.304   .     A
C76    O145    1.306   .     A
C77    C83     1.426   .     A
C77    C81     1.433   .     A
C77    C106    1.510   .     S
C78    C82     1.421   .     A
C78    C84     1.421   .     A
C79    C81     1.401   .     A
C79    C88     1.393   .     A
C80    H125    1.086   .     S
C80    C82     1.394   .     A
C80    C89     1.394   .     A
C82    C94     1.481   .     S
C83    C85     1.424   .     A
C83    C93     1.468   .     S
C84    C92     1.496   .     S
C84    C87     1.426   .     A
C85    C90     1.428   .     A
C85    C88     1.408   .     A
C86    O143    1.298   .     A
C86    C105    1.433   .     S
C86    O141    1.290   .     A
C87    C91     1.428   .     A
C87    C89     1.417   .     A
C88    C768    1.401   .     S
C89    C103    1.397   .     A
C90    C101    1.408   .     A
C90    C757    1.414   .     S
C91    C97     1.407   .     A
C91    C756    1.414   1_554 S
C92    O148    1.221   .     D
C92    H128    1.083   .     S
C93    O134    1.221   .     D
C93    H129    1.083   .     S
C94    H130    1.086   .     S
C94    O209    1.219   .     S
C95    H110    1.085   .     S
C95    C155    1.485   .     S
C95    O210    1.217   .     S
C96    H113    1.104   .     S
C96    H112    1.117   .     S
C96    O137    1.417   .     S
C96    H555    1.109   1_545 S
C97    H126    1.075   .     S
C97    C102    1.394   .     A
C98    H114    1.114   .     S
C98    H559    1.112   1_545 S
C98    H560    1.109   1_545 S
C98    O582    1.419   1_545 S
C99    H118    1.112   .     S
C99    H119    1.102   .     S
C99    O139    1.396   .     S
C99    H191    1.084   .     S
C100   H121    1.102   .     S
C100   H123    1.107   .     S
C100   O140    1.406   .     S
C101   H127    1.082   .     S
C101   C769    1.387   .     S
C102   C754    1.401   1_554 S
C103   H120    1.084   .     S
C103   C767    1.387   1_554 S
C104   C327    1.343   .     S
C104   O359    1.386   .     S
C105   C548    1.343   1_545 S
C105   O582    1.379   1_545 S
C106   O144    1.305   .     A
C106   O146    1.319   .     A
Cu107  N132    2.033   .     S
Cu107  O143    1.975   .     S
Cu107  Cu108   2.705   .     S
Cu107  O133    1.990   .     S
Cu107  O144    1.944   .     S
Cu107  O147    1.935   .     S
Cu108  O141    1.990   .     S
Cu108  N131    2.033   .     S
Cu108  O146    1.935   .     S
Cu108  O145    1.944   .     S
Cu108  O142    1.975   .     S
H109   C176    1.084   .     S
H111   C318    1.109   .     S
H115   C320    1.112   .     S
H116   C320    1.109   .     S
H122   C174    1.108   .     S
H124   C153    1.086   .     S
N131   O139    1.341   .     S
N131   N206    1.281   .     S
N132   O140    1.344   .     S
O137   C548    1.386   1_545 S
O138   C320    1.419   .     S
O138   C327    1.379   .     S
C149   C178    1.440   .     S
C149   O207    1.301   .     A
C149   O216    1.289   .     A
C150   C152    1.481   .     S
C150   O221    1.304   .     A
C150   O219    1.306   .     A
C151   C157    1.426   .     A
C151   C155    1.433   .     A
C151   C180    1.510   .     S
C152   C156    1.421   .     A
C152   C158    1.421   .     A
C153   C155    1.401   .     A
C153   C162    1.393   .     A
C154   H199    1.086   .     S
C154   C156    1.394   .     A
C154   C163    1.394   .     A
C156   C168    1.481   .     S
C157   C159    1.424   .     A
C157   C167    1.468   .     S
C158   C166    1.496   .     S
C158   C161    1.426   .     A
C159   C164    1.428   .     A
C159   C162    1.408   .     A
C160   O217    1.298   .     A
C160   C179    1.433   .     S
C160   O215    1.290   .     A
C161   C165    1.428   .     A
C161   C163    1.417   .     A
C162   C842    1.401   .     S
C163   C177    1.397   .     A
C164   C175    1.408   .     A
C164   C831    1.414   .     S
C165   C171    1.407   .     A
C165   C830    1.414   1_554 S
C166   O222    1.221   .     D
C166   H202    1.083   .     S
C167   O208    1.221   .     D
C167   H203    1.083   .     S
C168   H204    1.086   .     S
C168   O61     1.219   1_655 S
C169   H184    1.085   .     S
C169   C7      1.485   1_655 S
C169   O62     1.217   1_655 S
C170   H187    1.104   .     S
C170   H186    1.117   .     S
C170   O211    1.417   .     S
C170   H629    1.109   1_545 S
C171   H200    1.075   .     S
C171   C176    1.394   .     A
C172   H188    1.114   .     S
C172   H633    1.112   1_545 S
C172   H634    1.109   1_545 S
C172   O656    1.419   1_545 S
C173   H192    1.112   .     S
C173   H193    1.102   .     S
C173   O213    1.396   .     S
C173   H43     1.084   1_655 S
C174   H195    1.102   .     S
C174   H197    1.107   .     S
C174   O214    1.406   .     S
C175   H201    1.082   .     S
C175   C843    1.387   .     S
C176   C828    1.401   1_554 S
C177   H194    1.084   .     S
C177   C841    1.387   1_554 S
C178   C401    1.343   .     S
C178   O433    1.386   .     S
C179   C622    1.343   1_545 S
C179   O656    1.379   1_545 S
C180   O218    1.305   .     A
C180   O220    1.319   .     A
Cu181  N206    2.033   .     S
Cu181  O217    1.975   .     S
Cu181  Cu182   2.705   .     S
Cu181  O207    1.990   .     S
Cu181  O218    1.944   .     S
Cu181  O221    1.935   .     S
Cu182  O215    1.990   .     S
Cu182  N205    2.033   .     S
Cu182  O220    1.935   .     S
Cu182  O219    1.944   .     S
Cu182  O216    1.975   .     S
H183   C28     1.084   1_655 S
H185   C392    1.109   .     S
H189   C394    1.112   .     S
H190   C394    1.109   .     S
H196   C26     1.108   1_655 S
H198   C5      1.086   1_655 S
N205   O213    1.341   .     S
N205   N58     1.281   1_655 S
N206   O214    1.344   .     S
O211   C622    1.386   1_545 S
O212   C394    1.419   .     S
O212   C401    1.379   .     S
C223   C252    1.440   .     S
C223   O281    1.301   .     A
C223   O290    1.289   .     A
C224   C226    1.481   .     S
C224   O295    1.304   .     A
C224   O293    1.306   .     A
C225   C231    1.426   .     A
C225   C229    1.433   .     A
C225   C254    1.510   .     S
C226   C230    1.421   .     A
C226   C232    1.421   .     A
C227   C229    1.401   .     A
C227   C236    1.393   .     A
C227   H420    1.086   1_455 S
C228   H273    1.086   .     S
C228   C230    1.394   .     A
C228   C237    1.394   .     A
C229   C391    1.485   1_455 S
C230   C242    1.481   .     S
C231   C233    1.424   .     A
C231   C241    1.468   .     S
C232   C240    1.496   .     S
C232   C235    1.426   .     A
C233   C238    1.428   .     A
C233   C236    1.408   .     A
C234   O291    1.298   .     A
C234   C253    1.433   .     S
C234   O289    1.290   .     A
C235   C239    1.428   .     A
C235   C237    1.417   .     A
C236   C916    1.401   .     S
C237   C251    1.397   .     A
C238   C249    1.408   .     A
C238   C905    1.414   .     S
C239   C245    1.407   .     A
C239   C904    1.414   1_554 S
C240   O296    1.221   .     D
C240   H276    1.083   .     S
C241   O282    1.221   .     D
C241   H277    1.083   .     S
C242   H278    1.086   .     S
C242   O357    1.219   .     S
C243   H258    1.085   .     S
C243   C303    1.485   .     S
C243   O358    1.217   .     S
C244   H261    1.104   .     S
C244   H260    1.117   .     S
C244   O285    1.417   .     S
C245   H274    1.075   .     S
C245   C250    1.394   .     A
C246   H262    1.114   .     S
C247   H266    1.112   .     S
C247   H267    1.102   .     S
C247   O287    1.396   .     S
C247   H339    1.084   .     S
C248   H269    1.102   .     S
C248   H271    1.107   .     S
C248   O288    1.406   .     S
C248   H418    1.108   1_455 S
C249   H275    1.082   .     S
C249   C917    1.387   .     S
C250   C902    1.401   1_554 S
C250   H405    1.084   1_455 S
C251   H268    1.084   .     S
C251   C915    1.387   1_554 S
C252   C475    1.343   .     S
C252   O507    1.386   .     S
C254   O292    1.305   .     A
C254   O294    1.319   .     A
Cu255  N280    2.033   .     S
Cu255  O291    1.975   .     S
Cu255  Cu256   2.705   .     S
Cu255  O281    1.990   .     S
Cu255  O292    1.944   .     S
Cu255  O295    1.935   .     S
Cu256  O289    1.990   .     S
Cu256  N279    2.033   .     S
Cu256  O294    1.935   .     S
Cu256  O293    1.944   .     S
Cu256  O290    1.975   .     S
H257   C324    1.084   .     S
H259   C466    1.109   .     S
H263   C468    1.112   .     S
H264   C468    1.109   .     S
H265   C395    1.084   1_455 S
H270   C322    1.108   .     S
H272   C301    1.086   .     S
N279   O287    1.341   .     S
N279   N354    1.281   .     S
N280   O288    1.344   .     S
N280   N427    1.281   1_455 S
O283   C390    1.219   1_455 S
O284   C391    1.217   1_455 S
O286   C468    1.419   .     S
O286   C475    1.379   .     S
C297   C326    1.440   .     S
C297   O355    1.301   .     A
C297   O364    1.289   .     A
C298   C300    1.481   .     S
C298   O369    1.304   .     A
C298   O367    1.306   .     A
C299   C305    1.426   .     A
C299   C303    1.433   .     A
C299   C328    1.510   .     S
C300   C304    1.421   .     A
C300   C306    1.421   .     A
C301   C303    1.401   .     A
C301   C310    1.393   .     A
C302   H347    1.086   .     S
C302   C304    1.394   .     A
C302   C311    1.394   .     A
C304   C316    1.481   .     S
C305   C307    1.424   .     A
C305   C315    1.468   .     S
C306   C314    1.496   .     S
C306   C309    1.426   .     A
C307   C312    1.428   .     A
C307   C310    1.408   .     A
C308   O365    1.298   .     A
C308   C327    1.433   .     S
C308   O363    1.290   .     A
C309   C313    1.428   .     A
C309   C311    1.417   .     A
C310   C990    1.401   .     S
C311   C325    1.397   .     A
C312   C323    1.408   .     A
C312   C979    1.414   .     S
C313   C319    1.407   .     A
C313   C978    1.414   1_554 S
C314   O370    1.221   .     D
C314   H350    1.083   .     S
C315   O356    1.221   .     D
C315   H351    1.083   .     S
C316   H352    1.086   .     S
C316   O431    1.219   .     S
C317   H332    1.085   .     S
C317   C377    1.485   .     S
C317   O432    1.217   .     S
C318   H335    1.104   .     S
C318   H334    1.117   .     S
C318   O359    1.417   .     S
C319   H348    1.075   .     S
C319   C324    1.394   .     A
C320   H336    1.114   .     S
C321   H340    1.112   .     S
C321   H341    1.102   .     S
C321   O361    1.396   .     S
C321   H413    1.084   .     S
C322   H343    1.102   .     S
C322   H345    1.107   .     S
C322   O362    1.406   .     S
C323   H349    1.082   .     S
C323   C991    1.387   .     S
C324   C976    1.401   1_554 S
C325   H342    1.084   .     S
C325   C989    1.387   1_554 S
C326   C549    1.343   .     S
C326   O581    1.386   .     S
C328   O366    1.305   .     A
C328   O368    1.319   .     A
Cu329  N354    2.033   .     S
Cu329  O365    1.975   .     S
Cu329  Cu330   2.705   .     S
Cu329  O355    1.990   .     S
Cu329  O366    1.944   .     S
Cu329  O369    1.935   .     S
Cu330  O363    1.990   .     S
Cu330  N353    2.033   .     S
Cu330  O368    1.935   .     S
Cu330  O367    1.944   .     S
Cu330  O364    1.975   .     S
H331   C398    1.084   .     S
H333   C540    1.109   .     S
H337   C542    1.112   .     S
H338   C542    1.109   .     S
H344   C396    1.108   .     S
H346   C375    1.086   .     S
N353   O361    1.341   .     S
N353   N428    1.281   .     S
N354   O362    1.344   .     S
O360   C542    1.419   .     S
O360   C549    1.379   .     S
C371   C400    1.440   .     S
C371   O429    1.301   .     A
C371   O438    1.289   .     A
C372   C374    1.481   .     S
C372   O443    1.304   .     A
C372   O441    1.306   .     A
C373   C379    1.426   .     A
C373   C377    1.433   .     A
C373   C402    1.510   .     S
C374   C378    1.421   .     A
C374   C380    1.421   .     A
C375   C377    1.401   .     A
C375   C384    1.393   .     A
C376   H421    1.086   .     S
C376   C378    1.394   .     A
C376   C385    1.394   .     A
C378   C390    1.481   .     S
C379   C381    1.424   .     A
C379   C389    1.468   .     S
C380   C388    1.496   .     S
C380   C383    1.426   .     A
C381   C386    1.428   .     A
C381   C384    1.408   .     A
C382   O439    1.298   .     A
C382   C401    1.433   .     S
C382   O437    1.290   .     A
C383   C387    1.428   .     A
C383   C385    1.417   .     A
C384   C1064   1.401   .     S
C385   C399    1.397   .     A
C386   C397    1.408   .     A
C386   C1053   1.414   .     S
C387   C393    1.407   .     A
C387   C1052   1.414   1_554 S
C388   O444    1.221   .     D
C388   H424    1.083   .     S
C389   O430    1.221   .     D
C389   H425    1.083   .     S
C390   H426    1.086   .     S
C390   O283    1.219   1_655 S
C391   H406    1.085   .     S
C391   C229    1.485   1_655 S
C391   O284    1.217   1_655 S
C392   H409    1.104   .     S
C392   H408    1.117   .     S
C392   O433    1.417   .     S
C393   H422    1.075   .     S
C393   C398    1.394   .     A
C394   H410    1.114   .     S
C395   H414    1.112   .     S
C395   H415    1.102   .     S
C395   O435    1.396   .     S
C395   H265    1.084   1_655 S
C396   H417    1.102   .     S
C396   H419    1.107   .     S
C396   O436    1.406   .     S
C397   H423    1.082   .     S
C397   C1065   1.387   .     S
C398   C1050   1.401   1_554 S
C399   H416    1.084   .     S
C399   C1063   1.387   1_554 S
C400   C623    1.343   .     S
C400   O655    1.386   .     S
C402   O440    1.305   .     A
C402   O442    1.319   .     A
Cu403  N428    2.033   .     S
Cu403  O439    1.975   .     S
Cu403  Cu404   2.705   .     S
Cu403  O429    1.990   .     S
Cu403  O440    1.944   .     S
Cu403  O443    1.935   .     S
Cu404  O437    1.990   .     S
Cu404  N427    2.033   .     S
Cu404  O442    1.935   .     S
Cu404  O441    1.944   .     S
Cu404  O438    1.975   .     S
H405   C250    1.084   1_655 S
H407   C614    1.109   .     S
H411   C616    1.112   .     S
H412   C616    1.109   .     S
H418   C248    1.108   1_655 S
H420   C227    1.086   1_655 S
N427   O435    1.341   .     S
N427   N280    1.281   1_655 S
N428   O436    1.344   .     S
O434   C616    1.419   .     S
O434   C623    1.379   .     S
C445   C474    1.440   .     S
C445   O503    1.301   .     A
C445   O512    1.289   .     A
C446   C448    1.481   .     S
C446   O517    1.304   .     A
C446   O515    1.306   .     A
C447   C453    1.426   .     A
C447   C451    1.433   .     A
C447   C476    1.510   .     S
C448   C452    1.421   .     A
C448   C454    1.421   .     A
C449   C451    1.401   .     A
C449   C458    1.393   .     A
C449   H642    1.086   1_455 S
C450   H495    1.086   .     S
C450   C452    1.394   .     A
C450   C459    1.394   .     A
C451   C613    1.485   1_455 S
C452   C464    1.481   .     S
C453   C455    1.424   .     A
C453   C463    1.468   .     S
C454   C462    1.496   .     S
C454   C457    1.426   .     A
C455   C460    1.428   .     A
C455   C458    1.408   .     A
C456   O513    1.298   .     A
C456   C475    1.433   .     S
C456   O511    1.290   .     A
C457   C461    1.428   .     A
C457   C459    1.417   .     A
C458   C1138   1.401   .     S
C459   C473    1.397   .     A
C460   C471    1.408   .     A
C460   C1127   1.414   .     S
C461   C467    1.407   .     A
C461   C1126   1.414   1_554 S
C462   O518    1.221   .     D
C462   H498    1.083   .     S
C463   O504    1.221   .     D
C463   H499    1.083   .     S
C464   H500    1.086   .     S
C464   O579    1.219   .     S
C465   H480    1.085   .     S
C465   C525    1.485   .     S
C465   O580    1.217   .     S
C466   H483    1.104   .     S
C466   H482    1.117   .     S
C466   O507    1.417   .     S
C467   H496    1.075   .     S
C467   C472    1.394   .     A
C468   H484    1.114   .     S
C469   H488    1.112   .     S
C469   H489    1.102   .     S
C469   O509    1.396   .     S
C469   H561    1.084   .     S
C470   H491    1.102   .     S
C470   H493    1.107   .     S
C470   O510    1.406   .     S
C470   H640    1.108   1_455 S
C471   H497    1.082   .     S
C471   C1139   1.387   .     S
C472   C1124   1.401   1_554 S
C472   H627    1.084   1_455 S
C473   H490    1.084   .     S
C473   C1137   1.387   1_554 S
C474   C31     1.343   1_565 S
C474   O63     1.386   1_565 S
C476   O514    1.305   .     A
C476   O516    1.319   .     A
Cu477  N502    2.033   .     S
Cu477  O513    1.975   .     S
Cu477  Cu478   2.705   .     S
Cu477  O503    1.990   .     S
Cu477  O514    1.944   .     S
Cu477  O517    1.935   .     S
Cu478  O511    1.990   .     S
Cu478  N501    2.033   .     S
Cu478  O516    1.935   .     S
Cu478  O515    1.944   .     S
Cu478  O512    1.975   .     S
H479   C546    1.084   .     S
H481   C22     1.109   1_565 S
H485   C24     1.112   1_565 S
H486   C24     1.109   1_565 S
H487   C617    1.084   1_455 S
H492   C544    1.108   .     S
H494   C523    1.086   .     S
N501   O509    1.341   .     S
N501   N576    1.281   .     S
N502   O510    1.344   .     S
N502   N649    1.281   1_455 S
O505   C612    1.219   1_455 S
O506   C613    1.217   1_455 S
O508   C24     1.419   1_565 S
O508   C31     1.379   1_565 S
C519   C548    1.440   .     S
C519   O577    1.301   .     A
C519   O586    1.289   .     A
C520   C522    1.481   .     S
C520   O591    1.304   .     A
C520   O589    1.306   .     A
C521   C527    1.426   .     A
C521   C525    1.433   .     A
C521   C550    1.510   .     S
C522   C526    1.421   .     A
C522   C528    1.421   .     A
C523   C525    1.401   .     A
C523   C532    1.393   .     A
C524   H569    1.086   .     S
C524   C526    1.394   .     A
C524   C533    1.394   .     A
C526   C538    1.481   .     S
C527   C529    1.424   .     A
C527   C537    1.468   .     S
C528   C536    1.496   .     S
C528   C531    1.426   .     A
C529   C534    1.428   .     A
C529   C532    1.408   .     A
C530   O587    1.298   .     A
C530   C549    1.433   .     S
C530   O585    1.290   .     A
C531   C535    1.428   .     A
C531   C533    1.417   .     A
C532   C1212   1.401   .     S
C533   C547    1.397   .     A
C534   C545    1.408   .     A
C534   C1201   1.414   .     S
C535   C541    1.407   .     A
C535   C1200   1.414   1_554 S
C536   O592    1.221   .     D
C536   H572    1.083   .     S
C537   O578    1.221   .     D
C537   H573    1.083   .     S
C538   H574    1.086   .     S
C538   O653    1.219   .     S
C539   H554    1.085   .     S
C539   C599    1.485   .     S
C539   O654    1.217   .     S
C540   H557    1.104   .     S
C540   H556    1.117   .     S
C540   O581    1.417   .     S
C541   H570    1.075   .     S
C541   C546    1.394   .     A
C542   H558    1.114   .     S
C543   H562    1.112   .     S
C543   H563    1.102   .     S
C543   O583    1.396   .     S
C543   H635    1.084   .     S
C544   H565    1.102   .     S
C544   H567    1.107   .     S
C544   O584    1.406   .     S
C545   H571    1.082   .     S
C545   C1213   1.387   .     S
C546   C1198   1.401   1_554 S
C547   H564    1.084   .     S
C547   C1211   1.387   1_554 S
C548   C105    1.343   1_565 S
C548   O137    1.386   1_565 S
C550   O588    1.305   .     A
C550   O590    1.319   .     A
Cu551  N576    2.033   .     S
Cu551  O587    1.975   .     S
Cu551  Cu552   2.705   .     S
Cu551  O577    1.990   .     S
Cu551  O588    1.944   .     S
Cu551  O591    1.935   .     S
Cu552  O585    1.990   .     S
Cu552  N575    2.033   .     S
Cu552  O590    1.935   .     S
Cu552  O589    1.944   .     S
Cu552  O586    1.975   .     S
H553   C620    1.084   .     S
H555   C96     1.109   1_565 S
H559   C98     1.112   1_565 S
H560   C98     1.109   1_565 S
H566   C618    1.108   .     S
H568   C597    1.086   .     S
N575   O583    1.341   .     S
N575   N650    1.281   .     S
N576   O584    1.344   .     S
O582   C98     1.419   1_565 S
O582   C105    1.379   1_565 S
C593   C622    1.440   .     S
C593   O651    1.301   .     A
C593   O660    1.289   .     A
C594   C596    1.481   .     S
C594   O665    1.304   .     A
C594   O663    1.306   .     A
C595   C601    1.426   .     A
C595   C599    1.433   .     A
C595   C624    1.510   .     S
C596   C600    1.421   .     A
C596   C602    1.421   .     A
C597   C599    1.401   .     A
C597   C606    1.393   .     A
C598   H643    1.086   .     S
C598   C600    1.394   .     A
C598   C607    1.394   .     A
C600   C612    1.481   .     S
C601   C603    1.424   .     A
C601   C611    1.468   .     S
C602   C610    1.496   .     S
C602   C605    1.426   .     A
C603   C608    1.428   .     A
C603   C606    1.408   .     A
C604   O661    1.298   .     A
C604   C623    1.433   .     S
C604   O659    1.290   .     A
C605   C609    1.428   .     A
C605   C607    1.417   .     A
C606   C1286   1.401   .     S
C607   C621    1.397   .     A
C608   C619    1.408   .     A
C608   C1275   1.414   .     S
C609   C615    1.407   .     A
C609   C1274   1.414   1_554 S
C610   O666    1.221   .     D
C610   H646    1.083   .     S
C611   O652    1.221   .     D
C611   H647    1.083   .     S
C612   H648    1.086   .     S
C612   O505    1.219   1_655 S
C613   H628    1.085   .     S
C613   C451    1.485   1_655 S
C613   O506    1.217   1_655 S
C614   H631    1.104   .     S
C614   H630    1.117   .     S
C614   O655    1.417   .     S
C615   H644    1.075   .     S
C615   C620    1.394   .     A
C616   H632    1.114   .     S
C617   H636    1.112   .     S
C617   H637    1.102   .     S
C617   O657    1.396   .     S
C617   H487    1.084   1_655 S
C618   H639    1.102   .     S
C618   H641    1.107   .     S
C618   O658    1.406   .     S
C619   H645    1.082   .     S
C619   C1287   1.387   .     S
C620   C1272   1.401   1_554 S
C621   H638    1.084   .     S
C621   C1285   1.387   1_554 S
C622   C179    1.343   1_565 S
C622   O211    1.386   1_565 S
C624   O662    1.305   .     A
C624   O664    1.319   .     A
Cu625  N650    2.033   .     S
Cu625  O661    1.975   .     S
Cu625  Cu626   2.705   .     S
Cu625  O651    1.990   .     S
Cu625  O662    1.944   .     S
Cu625  O665    1.935   .     S
Cu626  O659    1.990   .     S
Cu626  N649    2.033   .     S
Cu626  O664    1.935   .     S
Cu626  O663    1.944   .     S
Cu626  O660    1.975   .     S
H627   C472    1.084   1_655 S
H629   C170    1.109   1_565 S
H633   C172    1.112   1_565 S
H634   C172    1.109   1_565 S
H640   C470    1.108   1_655 S
H642   C449    1.086   1_655 S
N649   O657    1.341   .     S
N649   N502    1.281   1_655 S
N650   O658    1.344   .     S
O656   C172    1.419   1_565 S
O656   C179    1.379   1_565 S
C667   C696    1.440   .     S
C667   O725    1.301   .     A
C667   O734    1.289   .     A
C668   C670    1.481   .     S
C668   O739    1.304   .     A
C668   O737    1.306   .     A
C669   C675    1.426   .     A
C669   C673    1.433   .     A
C669   C698    1.510   .     S
C670   C674    1.421   .     A
C670   C676    1.421   .     A
C671   C673    1.401   .     A
C671   C680    1.393   .     A
C671   H864    1.086   1_455 S
C672   H717    1.086   .     S
C672   C674    1.394   .     A
C672   C681    1.394   .     A
C673   C835    1.485   1_455 S
C674   C686    1.481   .     S
C675   C677    1.424   .     A
C675   C685    1.468   .     S
C676   C684    1.496   .     S
C676   C679    1.426   .     A
C677   C682    1.428   .     A
C677   C680    1.408   .     A
C678   O735    1.298   .     A
C678   C697    1.433   .     S
C678   O733    1.290   .     A
C679   C683    1.428   .     A
C679   C681    1.417   .     A
C680   C28     1.401   1_556 S
C681   C695    1.397   .     A
C682   C693    1.408   .     A
C682   C17     1.414   1_556 S
C683   C689    1.407   .     A
C684   O740    1.221   .     D
C684   H720    1.083   .     S
C685   O726    1.221   .     D
C685   H721    1.083   .     S
C686   H722    1.086   .     S
C686   O801    1.219   .     S
C687   H702    1.085   .     S
C687   C747    1.485   .     S
C687   O802    1.217   .     S
C688   H705    1.104   .     S
C688   H704    1.117   .     S
C688   O729    1.417   .     S
C688   H1147   1.109   1_545 S
C689   H718    1.075   .     S
C689   C694    1.394   .     A
C690   H706    1.114   .     S
C690   H1151   1.112   1_545 S
C690   H1152   1.109   1_545 S
C690   O1174   1.419   1_545 S
C691   H710    1.112   .     S
C691   H711    1.102   .     S
C691   O731    1.396   .     S
C691   H783    1.084   .     S
C692   H713    1.102   .     S
C692   H715    1.107   .     S
C692   O732    1.406   .     S
C692   H862    1.108   1_455 S
C693   H719    1.082   .     S
C693   C29     1.387   1_556 S
C694   H849    1.084   1_455 S
C695   H712    1.084   .     S
C696   C919    1.343   .     S
C696   O951    1.386   .     S
C697   C1140   1.343   1_545 S
C697   O1174   1.379   1_545 S
C698   O736    1.305   .     A
C698   O738    1.319   .     A
Cu699  N724    2.033   .     S
Cu699  O735    1.975   .     S
Cu699  Cu700   2.705   .     S
Cu699  O725    1.990   .     S
Cu699  O736    1.944   .     S
Cu699  O739    1.935   .     S
Cu700  O733    1.990   .     S
Cu700  N723    2.033   .     S
Cu700  O738    1.935   .     S
Cu700  O737    1.944   .     S
Cu700  O734    1.975   .     S
H701   C768    1.084   .     S
H703   C910    1.109   .     S
H707   C912    1.112   .     S
H708   C912    1.109   .     S
H709   C839    1.084   1_455 S
H714   C766    1.108   .     S
H716   C745    1.086   .     S
N723   O731    1.341   .     S
N723   N798    1.281   .     S
N724   O732    1.344   .     S
N724   N871    1.281   1_455 S
O727   C834    1.219   1_455 S
O728   C835    1.217   1_455 S
O729   C1140   1.386   1_545 S
O730   C912    1.419   .     S
O730   C919    1.379   .     S
C741   C770    1.440   .     S
C741   O799    1.301   .     A
C741   O808    1.289   .     A
C742   C744    1.481   .     S
C742   O813    1.304   .     A
C742   O811    1.306   .     A
C743   C749    1.426   .     A
C743   C747    1.433   .     A
C743   C772    1.510   .     S
C744   C748    1.421   .     A
C744   C750    1.421   .     A
C745   C747    1.401   .     A
C745   C754    1.393   .     A
C746   H791    1.086   .     S
C746   C748    1.394   .     A
C746   C755    1.394   .     A
C748   C760    1.481   .     S
C749   C751    1.424   .     A
C749   C759    1.468   .     S
C750   C758    1.496   .     S
C750   C753    1.426   .     A
C751   C756    1.428   .     A
C751   C754    1.408   .     A
C752   O809    1.298   .     A
C752   C771    1.433   .     S
C752   O807    1.290   .     A
C753   C757    1.428   .     A
C753   C755    1.417   .     A
C754   C102    1.401   1_556 S
C755   C769    1.397   .     A
C756   C767    1.408   .     A
C756   C91     1.414   1_556 S
C757   C763    1.407   .     A
C758   O814    1.221   .     D
C758   H794    1.083   .     S
C759   O800    1.221   .     D
C759   H795    1.083   .     S
C760   H796    1.086   .     S
C760   O875    1.219   .     S
C761   H776    1.085   .     S
C761   C821    1.485   .     S
C761   O876    1.217   .     S
C762   H779    1.104   .     S
C762   H778    1.117   .     S
C762   O803    1.417   .     S
C762   H1221   1.109   1_545 S
C763   H792    1.075   .     S
C763   C768    1.394   .     A
C764   H780    1.114   .     S
C764   H1225   1.112   1_545 S
C764   H1226   1.109   1_545 S
C764   O1248   1.419   1_545 S
C765   H784    1.112   .     S
C765   H785    1.102   .     S
C765   O805    1.396   .     S
C765   H857    1.084   .     S
C766   H787    1.102   .     S
C766   H789    1.107   .     S
C766   O806    1.406   .     S
C767   H793    1.082   .     S
C767   C103    1.387   1_556 S
C769   H786    1.084   .     S
C770   C993    1.343   .     S
C770   O1025   1.386   .     S
C771   C1214   1.343   1_545 S
C771   O1248   1.379   1_545 S
C772   O810    1.305   .     A
C772   O812    1.319   .     A
Cu773  N798    2.033   .     S
Cu773  O809    1.975   .     S
Cu773  Cu774   2.705   .     S
Cu773  O799    1.990   .     S
Cu773  O810    1.944   .     S
Cu773  O813    1.935   .     S
Cu774  O807    1.990   .     S
Cu774  N797    2.033   .     S
Cu774  O812    1.935   .     S
Cu774  O811    1.944   .     S
Cu774  O808    1.975   .     S
H775   C842    1.084   .     S
H777   C984    1.109   .     S
H781   C986    1.112   .     S
H782   C986    1.109   .     S
H788   C840    1.108   .     S
H790   C819    1.086   .     S
N797   O805    1.341   .     S
N797   N872    1.281   .     S
N798   O806    1.344   .     S
O803   C1214   1.386   1_545 S
O804   C986    1.419   .     S
O804   C993    1.379   .     S
C815   C844    1.440   .     S
C815   O873    1.301   .     A
C815   O882    1.289   .     A
C816   C818    1.481   .     S
C816   O887    1.304   .     A
C816   O885    1.306   .     A
C817   C823    1.426   .     A
C817   C821    1.433   .     A
C817   C846    1.510   .     S
C818   C822    1.421   .     A
C818   C824    1.421   .     A
C819   C821    1.401   .     A
C819   C828    1.393   .     A
C820   H865    1.086   .     S
C820   C822    1.394   .     A
C820   C829    1.394   .     A
C822   C834    1.481   .     S
C823   C825    1.424   .     A
C823   C833    1.468   .     S
C824   C832    1.496   .     S
C824   C827    1.426   .     A
C825   C830    1.428   .     A
C825   C828    1.408   .     A
C826   O883    1.298   .     A
C826   C845    1.433   .     S
C826   O881    1.290   .     A
C827   C831    1.428   .     A
C827   C829    1.417   .     A
C828   C176    1.401   1_556 S
C829   C843    1.397   .     A
C830   C841    1.408   .     A
C830   C165    1.414   1_556 S
C831   C837    1.407   .     A
C832   O888    1.221   .     D
C832   H868    1.083   .     S
C833   O874    1.221   .     D
C833   H869    1.083   .     S
C834   H870    1.086   .     S
C834   O727    1.219   1_655 S
C835   H850    1.085   .     S
C835   C673    1.485   1_655 S
C835   O728    1.217   1_655 S
C836   H853    1.104   .     S
C836   H852    1.117   .     S
C836   O877    1.417   .     S
C836   H1295   1.109   1_545 S
C837   H866    1.075   .     S
C837   C842    1.394   .     A
C838   H854    1.114   .     S
C838   H1299   1.112   1_545 S
C838   H1300   1.109   1_545 S
C838   O1322   1.419   1_545 S
C839   H858    1.112   .     S
C839   H859    1.102   .     S
C839   O879    1.396   .     S
C839   H709    1.084   1_655 S
C840   H861    1.102   .     S
C840   H863    1.107   .     S
C840   O880    1.406   .     S
C841   H867    1.082   .     S
C841   C177    1.387   1_556 S
C843   H860    1.084   .     S
C844   C1067   1.343   .     S
C844   O1099   1.386   .     S
C845   C1288   1.343   1_545 S
C845   O1322   1.379   1_545 S
C846   O884    1.305   .     A
C846   O886    1.319   .     A
Cu847  N872    2.033   .     S
Cu847  O883    1.975   .     S
Cu847  Cu848   2.705   .     S
Cu847  O873    1.990   .     S
Cu847  O884    1.944   .     S
Cu847  O887    1.935   .     S
Cu848  O881    1.990   .     S
Cu848  N871    2.033   .     S
Cu848  O886    1.935   .     S
Cu848  O885    1.944   .     S
Cu848  O882    1.975   .     S
H849   C694    1.084   1_655 S
H851   C1058   1.109   .     S
H855   C1060   1.112   .     S
H856   C1060   1.109   .     S
H862   C692    1.108   1_655 S
H864   C671    1.086   1_655 S
N871   O879    1.341   .     S
N871   N724    1.281   1_655 S
N872   O880    1.344   .     S
O877   C1288   1.386   1_545 S
O878   C1060   1.419   .     S
O878   C1067   1.379   .     S
C889   C918    1.440   .     S
C889   O947    1.301   .     A
C889   O956    1.289   .     A
C890   C892    1.481   .     S
C890   O961    1.304   .     A
C890   O959    1.306   .     A
C891   C897    1.426   .     A
C891   C895    1.433   .     A
C891   C920    1.510   .     S
C892   C896    1.421   .     A
C892   C898    1.421   .     A
C893   C895    1.401   .     A
C893   C902    1.393   .     A
C893   H1086   1.086   1_455 S
C894   H939    1.086   .     S
C894   C896    1.394   .     A
C894   C903    1.394   .     A
C895   C1057   1.485   1_455 S
C896   C908    1.481   .     S
C897   C899    1.424   .     A
C897   C907    1.468   .     S
C898   C906    1.496   .     S
C898   C901    1.426   .     A
C899   C904    1.428   .     A
C899   C902    1.408   .     A
C900   O957    1.298   .     A
C900   C919    1.433   .     S
C900   O955    1.290   .     A
C901   C905    1.428   .     A
C901   C903    1.417   .     A
C902   C250    1.401   1_556 S
C903   C917    1.397   .     A
C904   C915    1.408   .     A
C904   C239    1.414   1_556 S
C905   C911    1.407   .     A
C906   O962    1.221   .     D
C906   H942    1.083   .     S
C907   O948    1.221   .     D
C907   H943    1.083   .     S
C908   H944    1.086   .     S
C908   O1023   1.219   .     S
C909   H924    1.085   .     S
C909   C969    1.485   .     S
C909   O1024   1.217   .     S
C910   H927    1.104   .     S
C910   H926    1.117   .     S
C910   O951    1.417   .     S
C911   H940    1.075   .     S
C911   C916    1.394   .     A
C912   H928    1.114   .     S
C913   H932    1.112   .     S
C913   H933    1.102   .     S
C913   O953    1.396   .     S
C913   H1005   1.084   .     S
C914   H935    1.102   .     S
C914   H937    1.107   .     S
C914   O954    1.406   .     S
C914   H1084   1.108   1_455 S
C915   H941    1.082   .     S
C915   C251    1.387   1_556 S
C916   H1071   1.084   1_455 S
C917   H934    1.084   .     S
C918   C1141   1.343   .     S
C918   O1173   1.386   .     S
C920   O958    1.305   .     A
C920   O960    1.319   .     A
Cu921  N946    2.033   .     S
Cu921  O957    1.975   .     S
Cu921  Cu922   2.705   .     S
Cu921  O947    1.990   .     S
Cu921  O958    1.944   .     S
Cu921  O961    1.935   .     S
Cu922  O955    1.990   .     S
Cu922  N945    2.033   .     S
Cu922  O960    1.935   .     S
Cu922  O959    1.944   .     S
Cu922  O956    1.975   .     S
H923   C990    1.084   .     S
H925   C1132   1.109   .     S
H929   C1134   1.112   .     S
H930   C1134   1.109   .     S
H931   C1061   1.084   1_455 S
H936   C988    1.108   .     S
H938   C967    1.086   .     S
N945   O953    1.341   .     S
N945   N1020   1.281   .     S
N946   O954    1.344   .     S
N946   N1093   1.281   1_455 S
O949   C1056   1.219   1_455 S
O950   C1057   1.217   1_455 S
O952   C1134   1.419   .     S
O952   C1141   1.379   .     S
C963   C992    1.440   .     S
C963   O1021   1.301   .     A
C963   O1030   1.289   .     A
C964   C966    1.481   .     S
C964   O1035   1.304   .     A
C964   O1033   1.306   .     A
C965   C971    1.426   .     A
C965   C969    1.433   .     A
C965   C994    1.510   .     S
C966   C970    1.421   .     A
C966   C972    1.421   .     A
C967   C969    1.401   .     A
C967   C976    1.393   .     A
C968   H1013   1.086   .     S
C968   C970    1.394   .     A
C968   C977    1.394   .     A
C970   C982    1.481   .     S
C971   C973    1.424   .     A
C971   C981    1.468   .     S
C972   C980    1.496   .     S
C972   C975    1.426   .     A
C973   C978    1.428   .     A
C973   C976    1.408   .     A
C974   O1031   1.298   .     A
C974   C993    1.433   .     S
C974   O1029   1.290   .     A
C975   C979    1.428   .     A
C975   C977    1.417   .     A
C976   C324    1.401   1_556 S
C977   C991    1.397   .     A
C978   C989    1.408   .     A
C978   C313    1.414   1_556 S
C979   C985    1.407   .     A
C980   O1036   1.221   .     D
C980   H1016   1.083   .     S
C981   O1022   1.221   .     D
C981   H1017   1.083   .     S
C982   H1018   1.086   .     S
C982   O1097   1.219   .     S
C983   H998    1.085   .     S
C983   C1043   1.485   .     S
C983   O1098   1.217   .     S
C984   H1001   1.104   .     S
C984   H1000   1.117   .     S
C984   O1025   1.417   .     S
C985   H1014   1.075   .     S
C985   C990    1.394   .     A
C986   H1002   1.114   .     S
C987   H1006   1.112   .     S
C987   H1007   1.102   .     S
C987   O1027   1.396   .     S
C987   H1079   1.084   .     S
C988   H1009   1.102   .     S
C988   H1011   1.107   .     S
C988   O1028   1.406   .     S
C989   H1015   1.082   .     S
C989   C325    1.387   1_556 S
C991   H1008   1.084   .     S
C992   C1215   1.343   .     S
C992   O1247   1.386   .     S
C994   O1032   1.305   .     A
C994   O1034   1.319   .     A
Cu995  N1020   2.033   .     S
Cu995  O1031   1.975   .     S
Cu995  Cu996   2.705   .     S
Cu995  O1021   1.990   .     S
Cu995  O1032   1.944   .     S
Cu995  O1035   1.935   .     S
Cu996  O1029   1.990   .     S
Cu996  N1019   2.033   .     S
Cu996  O1034   1.935   .     S
Cu996  O1033   1.944   .     S
Cu996  O1030   1.975   .     S
H997   C1064   1.084   .     S
H999   C1206   1.109   .     S
H1003  C1208   1.112   .     S
H1004  C1208   1.109   .     S
H1010  C1062   1.108   .     S
H1012  C1041   1.086   .     S
N1019  O1027   1.341   .     S
N1019  N1094   1.281   .     S
N1020  O1028   1.344   .     S
O1026  C1208   1.419   .     S
O1026  C1215   1.379   .     S
C1037  C1066   1.440   .     S
C1037  O1095   1.301   .     A
C1037  O1104   1.289   .     A
C1038  C1040   1.481   .     S
C1038  O1109   1.304   .     A
C1038  O1107   1.306   .     A
C1039  C1045   1.426   .     A
C1039  C1043   1.433   .     A
C1039  C1068   1.510   .     S
C1040  C1044   1.421   .     A
C1040  C1046   1.421   .     A
C1041  C1043   1.401   .     A
C1041  C1050   1.393   .     A
C1042  H1087   1.086   .     S
C1042  C1044   1.394   .     A
C1042  C1051   1.394   .     A
C1044  C1056   1.481   .     S
C1045  C1047   1.424   .     A
C1045  C1055   1.468   .     S
C1046  C1054   1.496   .     S
C1046  C1049   1.426   .     A
C1047  C1052   1.428   .     A
C1047  C1050   1.408   .     A
C1048  O1105   1.298   .     A
C1048  C1067   1.433   .     S
C1048  O1103   1.290   .     A
C1049  C1053   1.428   .     A
C1049  C1051   1.417   .     A
C1050  C398    1.401   1_556 S
C1051  C1065   1.397   .     A
C1052  C1063   1.408   .     A
C1052  C387    1.414   1_556 S
C1053  C1059   1.407   .     A
C1054  O1110   1.221   .     D
C1054  H1090   1.083   .     S
C1055  O1096   1.221   .     D
C1055  H1091   1.083   .     S
C1056  H1092   1.086   .     S
C1056  O949    1.219   1_655 S
C1057  H1072   1.085   .     S
C1057  C895    1.485   1_655 S
C1057  O950    1.217   1_655 S
C1058  H1075   1.104   .     S
C1058  H1074   1.117   .     S
C1058  O1099   1.417   .     S
C1059  H1088   1.075   .     S
C1059  C1064   1.394   .     A
C1060  H1076   1.114   .     S
C1061  H1080   1.112   .     S
C1061  H1081   1.102   .     S
C1061  O1101   1.396   .     S
C1061  H931    1.084   1_655 S
C1062  H1083   1.102   .     S
C1062  H1085   1.107   .     S
C1062  O1102   1.406   .     S
C1063  H1089   1.082   .     S
C1063  C399    1.387   1_556 S
C1065  H1082   1.084   .     S
C1066  C1289   1.343   .     S
C1066  O1321   1.386   .     S
C1068  O1106   1.305   .     A
C1068  O1108   1.319   .     A
Cu1069 N1094   2.033   .     S
Cu1069 O1105   1.975   .     S
Cu1069 Cu1070  2.705   .     S
Cu1069 O1095   1.990   .     S
Cu1069 O1106   1.944   .     S
Cu1069 O1109   1.935   .     S
Cu1070 O1103   1.990   .     S
Cu1070 N1093   2.033   .     S
Cu1070 O1108   1.935   .     S
Cu1070 O1107   1.944   .     S
Cu1070 O1104   1.975   .     S
H1071  C916    1.084   1_655 S
H1073  C1280   1.109   .     S
H1077  C1282   1.112   .     S
H1078  C1282   1.109   .     S
H1084  C914    1.108   1_655 S
H1086  C893    1.086   1_655 S
N1093  O1101   1.341   .     S
N1093  N946    1.281   1_655 S
N1094  O1102   1.344   .     S
O1100  C1282   1.419   .     S
O1100  C1289   1.379   .     S
C1111  C1140   1.440   .     S
C1111  O1169   1.301   .     A
C1111  O1178   1.289   .     A
C1112  C1114   1.481   .     S
C1112  O1183   1.304   .     A
C1112  O1181   1.306   .     A
C1113  C1119   1.426   .     A
C1113  C1117   1.433   .     A
C1113  C1142   1.510   .     S
C1114  C1118   1.421   .     A
C1114  C1120   1.421   .     A
C1115  C1117   1.401   .     A
C1115  C1124   1.393   .     A
C1115  H1308   1.086   1_455 S
C1116  H1161   1.086   .     S
C1116  C1118   1.394   .     A
C1116  C1125   1.394   .     A
C1117  C1279   1.485   1_455 S
C1118  C1130   1.481   .     S
C1119  C1121   1.424   .     A
C1119  C1129   1.468   .     S
C1120  C1128   1.496   .     S
C1120  C1123   1.426   .     A
C1121  C1126   1.428   .     A
C1121  C1124   1.408   .     A
C1122  O1179   1.298   .     A
C1122  C1141   1.433   .     S
C1122  O1177   1.290   .     A
C1123  C1127   1.428   .     A
C1123  C1125   1.417   .     A
C1124  C472    1.401   1_556 S
C1125  C1139   1.397   .     A
C1126  C1137   1.408   .     A
C1126  C461    1.414   1_556 S
C1127  C1133   1.407   .     A
C1128  O1184   1.221   .     D
C1128  H1164   1.083   .     S
C1129  O1170   1.221   .     D
C1129  H1165   1.083   .     S
C1130  H1166   1.086   .     S
C1130  O1245   1.219   .     S
C1131  H1146   1.085   .     S
C1131  C1191   1.485   .     S
C1131  O1246   1.217   .     S
C1132  H1149   1.104   .     S
C1132  H1148   1.117   .     S
C1132  O1173   1.417   .     S
C1133  H1162   1.075   .     S
C1133  C1138   1.394   .     A
C1134  H1150   1.114   .     S
C1135  H1154   1.112   .     S
C1135  H1155   1.102   .     S
C1135  O1175   1.396   .     S
C1135  H1227   1.084   .     S
C1136  H1157   1.102   .     S
C1136  H1159   1.107   .     S
C1136  O1176   1.406   .     S
C1136  H1306   1.108   1_455 S
C1137  H1163   1.082   .     S
C1137  C473    1.387   1_556 S
C1138  H1293   1.084   1_455 S
C1139  H1156   1.084   .     S
C1140  C697    1.343   1_565 S
C1140  O729    1.386   1_565 S
C1142  O1180   1.305   .     A
C1142  O1182   1.319   .     A
Cu1143 N1168   2.033   .     S
Cu1143 O1179   1.975   .     S
Cu1143 Cu1144  2.705   .     S
Cu1143 O1169   1.990   .     S
Cu1143 O1180   1.944   .     S
Cu1143 O1183   1.935   .     S
Cu1144 O1177   1.990   .     S
Cu1144 N1167   2.033   .     S
Cu1144 O1182   1.935   .     S
Cu1144 O1181   1.944   .     S
Cu1144 O1178   1.975   .     S
H1145  C1212   1.084   .     S
H1147  C688    1.109   1_565 S
H1151  C690    1.112   1_565 S
H1152  C690    1.109   1_565 S
H1153  C1283   1.084   1_455 S
H1158  C1210   1.108   .     S
H1160  C1189   1.086   .     S
N1167  O1175   1.341   .     S
N1167  N1242   1.281   .     S
N1168  O1176   1.344   .     S
N1168  N1315   1.281   1_455 S
O1171  C1278   1.219   1_455 S
O1172  C1279   1.217   1_455 S
O1174  C690    1.419   1_565 S
O1174  C697    1.379   1_565 S
C1185  C1214   1.440   .     S
C1185  O1243   1.301   .     A
C1185  O1252   1.289   .     A
C1186  C1188   1.481   .     S
C1186  O1257   1.304   .     A
C1186  O1255   1.306   .     A
C1187  C1193   1.426   .     A
C1187  C1191   1.433   .     A
C1187  C1216   1.510   .     S
C1188  C1192   1.421   .     A
C1188  C1194   1.421   .     A
C1189  C1191   1.401   .     A
C1189  C1198   1.393   .     A
C1190  H1235   1.086   .     S
C1190  C1192   1.394   .     A
C1190  C1199   1.394   .     A
C1192  C1204   1.481   .     S
C1193  C1195   1.424   .     A
C1193  C1203   1.468   .     S
C1194  C1202   1.496   .     S
C1194  C1197   1.426   .     A
C1195  C1200   1.428   .     A
C1195  C1198   1.408   .     A
C1196  O1253   1.298   .     A
C1196  C1215   1.433   .     S
C1196  O1251   1.290   .     A
C1197  C1201   1.428   .     A
C1197  C1199   1.417   .     A
C1198  C546    1.401   1_556 S
C1199  C1213   1.397   .     A
C1200  C1211   1.408   .     A
C1200  C535    1.414   1_556 S
C1201  C1207   1.407   .     A
C1202  O1258   1.221   .     D
C1202  H1238   1.083   .     S
C1203  O1244   1.221   .     D
C1203  H1239   1.083   .     S
C1204  H1240   1.086   .     S
C1204  O1319   1.219   .     S
C1205  H1220   1.085   .     S
C1205  C1265   1.485   .     S
C1205  O1320   1.217   .     S
C1206  H1223   1.104   .     S
C1206  H1222   1.117   .     S
C1206  O1247   1.417   .     S
C1207  H1236   1.075   .     S
C1207  C1212   1.394   .     A
C1208  H1224   1.114   .     S
C1209  H1228   1.112   .     S
C1209  H1229   1.102   .     S
C1209  O1249   1.396   .     S
C1209  H1301   1.084   .     S
C1210  H1231   1.102   .     S
C1210  H1233   1.107   .     S
C1210  O1250   1.406   .     S
C1211  H1237   1.082   .     S
C1211  C547    1.387   1_556 S
C1213  H1230   1.084   .     S
C1214  C771    1.343   1_565 S
C1214  O803    1.386   1_565 S
C1216  O1254   1.305   .     A
C1216  O1256   1.319   .     A
Cu1217 N1242   2.033   .     S
Cu1217 O1253   1.975   .     S
Cu1217 Cu1218  2.705   .     S
Cu1217 O1243   1.990   .     S
Cu1217 O1254   1.944   .     S
Cu1217 O1257   1.935   .     S
Cu1218 O1251   1.990   .     S
Cu1218 N1241   2.033   .     S
Cu1218 O1256   1.935   .     S
Cu1218 O1255   1.944   .     S
Cu1218 O1252   1.975   .     S
H1219  C1286   1.084   .     S
H1221  C762    1.109   1_565 S
H1225  C764    1.112   1_565 S
H1226  C764    1.109   1_565 S
H1232  C1284   1.108   .     S
H1234  C1263   1.086   .     S
N1241  O1249   1.341   .     S
N1241  N1316   1.281   .     S
N1242  O1250   1.344   .     S
O1248  C764    1.419   1_565 S
O1248  C771    1.379   1_565 S
C1259  C1288   1.440   .     S
C1259  O1317   1.301   .     A
C1259  O1326   1.289   .     A
C1260  C1262   1.481   .     S
C1260  O1331   1.304   .     A
C1260  O1329   1.306   .     A
C1261  C1267   1.426   .     A
C1261  C1265   1.433   .     A
C1261  C1290   1.510   .     S
C1262  C1266   1.421   .     A
C1262  C1268   1.421   .     A
C1263  C1265   1.401   .     A
C1263  C1272   1.393   .     A
C1264  H1309   1.086   .     S
C1264  C1266   1.394   .     A
C1264  C1273   1.394   .     A
C1266  C1278   1.481   .     S
C1267  C1269   1.424   .     A
C1267  C1277   1.468   .     S
C1268  C1276   1.496   .     S
C1268  C1271   1.426   .     A
C1269  C1274   1.428   .     A
C1269  C1272   1.408   .     A
C1270  O1327   1.298   .     A
C1270  C1289   1.433   .     S
C1270  O1325   1.290   .     A
C1271  C1275   1.428   .     A
C1271  C1273   1.417   .     A
C1272  C620    1.401   1_556 S
C1273  C1287   1.397   .     A
C1274  C1285   1.408   .     A
C1274  C609    1.414   1_556 S
C1275  C1281   1.407   .     A
C1276  O1332   1.221   .     D
C1276  H1312   1.083   .     S
C1277  O1318   1.221   .     D
C1277  H1313   1.083   .     S
C1278  H1314   1.086   .     S
C1278  O1171   1.219   1_655 S
C1279  H1294   1.085   .     S
C1279  C1117   1.485   1_655 S
C1279  O1172   1.217   1_655 S
C1280  H1297   1.104   .     S
C1280  H1296   1.117   .     S
C1280  O1321   1.417   .     S
C1281  H1310   1.075   .     S
C1281  C1286   1.394   .     A
C1282  H1298   1.114   .     S
C1283  H1302   1.112   .     S
C1283  H1303   1.102   .     S
C1283  O1323   1.396   .     S
C1283  H1153   1.084   1_655 S
C1284  H1305   1.102   .     S
C1284  H1307   1.107   .     S
C1284  O1324   1.406   .     S
C1285  H1311   1.082   .     S
C1285  C621    1.387   1_556 S
C1287  H1304   1.084   .     S
C1288  C845    1.343   1_565 S
C1288  O877    1.386   1_565 S
C1290  O1328   1.305   .     A
C1290  O1330   1.319   .     A
Cu1291 N1316   2.033   .     S
Cu1291 O1327   1.975   .     S
Cu1291 Cu1292  2.705   .     S
Cu1291 O1317   1.990   .     S
Cu1291 O1328   1.944   .     S
Cu1291 O1331   1.935   .     S
Cu1292 O1325   1.990   .     S
Cu1292 N1315   2.033   .     S
Cu1292 O1330   1.935   .     S
Cu1292 O1329   1.944   .     S
Cu1292 O1326   1.975   .     S
H1293  C1138   1.084   1_655 S
H1295  C836    1.109   1_565 S
H1299  C838    1.112   1_565 S
H1300  C838    1.109   1_565 S
H1306  C1136   1.108   1_655 S
H1308  C1115   1.086   1_655 S
N1315  O1323   1.341   .     S
N1315  N1168   1.281   1_655 S
N1316  O1324   1.344   .     S
O1322  C838    1.419   1_565 S
O1322  C845    1.379   1_565 S
