data_str_m3_o10_o17_pcu_sym.71
_audit_creation_date              2020-01-03
_audit_creation_method            'Materials Studio'
_symmetry_space_group_name_H-M    'P1'
_symmetry_Int_Tables_number       1
_symmetry_cell_setting            triclinic
loop_
_symmetry_equiv_pos_as_xyz
  x,y,z
_cell_length_a                    23.2970
_cell_length_b                    25.9345
_cell_length_c                    29.9629
_cell_angle_alpha                 92.0005
_cell_angle_beta                  85.2472
_cell_angle_gamma                 93.4517
loop_
_atom_site_label
_atom_site_type_symbol
_atom_site_fract_x
_atom_site_fract_y
_atom_site_fract_z
_atom_site_U_iso_or_equiv
_atom_site_adp_type
_atom_site_occupancy
C1     C     0.18166   0.26466   0.24857   0.00000  Uiso   1.00
C2     C     0.21203   0.19492   0.40489   0.00000  Uiso   1.00
C3     C     0.16580   0.16602   0.11578   0.00000  Uiso   1.00
C4     C     0.16753   0.16731   0.38422   0.00000  Uiso   1.00
C5     C     0.21110   0.19232   0.09122   0.00000  Uiso   1.00
C6     C     0.12223   0.14101   0.40878   0.00000  Uiso   1.00
C7     C     0.21185   0.19330   0.04486   0.00000  Uiso   1.00
C8     C     0.12149   0.14004   0.45514   0.00000  Uiso   1.00
C9     C     0.16644   0.16655   0.02336   0.00000  Uiso   1.00
C10    C     0.16689   0.16679   0.47664   0.00000  Uiso   1.00
C11    C     0.12043   0.13977   0.04859   0.00000  Uiso   1.00
C12    C     0.15167   0.06867   0.25143   0.00000  Uiso   1.00
C13    C     0.21290   0.19356   0.45141   0.00000  Uiso   1.00
C14    C     0.25681   0.22063   0.01960   0.00000  Uiso   1.00
C15    C     0.07652   0.11270   0.48040   0.00000  Uiso   1.00
C16    C     0.09783   0.06072   0.12651   0.00000  Uiso   1.00
C17    C     0.23550   0.27262   0.37349   0.00000  Uiso   1.00
C18    C     0.28737   0.29945   0.04645   0.00000  Uiso   1.00
C19    C     0.04596   0.03389   0.45355   0.00000  Uiso   1.00
C20    C     0.25235   0.00002   0.18311   0.00000  Uiso   1.00
C21    C     0.08099   0.33331   0.31689   0.00000  Uiso   1.00
C22    C     0.25823   0.21895   0.47318   0.00000  Uiso   1.00
C23    C     0.07510   0.11439   0.02682   0.00000  Uiso   1.00
C24    C     0.18938   0.31850   0.24425   0.00000  Uiso   1.00
C25    C     0.14395   0.01483   0.25575   0.00000  Uiso   1.00
C26    C     0.16706   0.16680   0.33647   0.00000  Uiso   1.00
C27    C     0.16628   0.16653   0.16353   0.00000  Uiso   1.00
C28    C     0.12130   0.13842   0.09511   0.00000  Uiso   1.00
F29    F     0.25420   0.21702   0.11309   0.00000  Uiso   1.00
F30    F     0.07913   0.11632   0.38691   0.00000  Uiso   1.00
F31    F     0.30452   0.24244   0.44988   0.00000  Uiso   1.00
F32    F     0.02882   0.09089   0.05011   0.00000  Uiso   1.00
F33    F     0.00995   0.11749   0.21127   0.00000  Uiso   1.00
F34    F     0.32338   0.21584   0.28873   0.00000  Uiso   1.00
H35    H     0.06307   0.03774   0.14564   0.00000  Uiso   1.00
H36    H     0.08602   0.03035   0.43094   0.00000  Uiso   1.00
H37    H     0.01036   0.01233   0.43727   0.00000  Uiso   1.00
H38    H     0.05075   0.01537   0.48588   0.00000  Uiso   1.00
H39    H     0.21845   0.01900   0.16666   0.00000  Uiso   1.00
H40    H     0.25351   0.29210   0.17202   0.00000  Uiso   1.00
H41    H     0.29445   0.01945   0.17181   0.00000  Uiso   1.00
H42    H     0.07982   0.04123   0.32798   0.00000  Uiso   1.00
H43    H     0.11488   0.31433   0.33334   0.00000  Uiso   1.00
H44    H     0.03889   0.31388   0.32819   0.00000  Uiso   1.00
H45    H     0.13626   0.06258   0.14624   0.00000  Uiso   1.00
H46    H     0.10738   0.03996   0.09382   0.00000  Uiso   1.00
H47    H     0.22595   0.29337   0.40618   0.00000  Uiso   1.00
H48    H     0.19707   0.27075   0.35376   0.00000  Uiso   1.00
H49    H     0.27027   0.29559   0.35436   0.00000  Uiso   1.00
H50    H     0.32297   0.32100   0.06273   0.00000  Uiso   1.00
H51    H     0.24731   0.30299   0.06906   0.00000  Uiso   1.00
H52    H     0.28258   0.31796   0.01412   0.00000  Uiso   1.00
N53    N     0.31678   0.15265   0.23783   0.00000  Uiso   1.00
N54    N     0.01656   0.18068   0.26217   0.00000  Uiso   1.00
O55    O     0.12975   0.24619   0.25298   0.00000  Uiso   1.00
O56    O     0.25463   0.22285   0.37936   0.00000  Uiso   1.00
O57    O     0.30139   0.24738   0.03979   0.00000  Uiso   1.00
O58    O     0.03194   0.08595   0.46021   0.00000  Uiso   1.00
O59    O     0.24441   0.00517   0.23022   0.00000  Uiso   1.00
O60    O     0.08892   0.32816   0.26978   0.00000  Uiso   1.00
O61    O     0.20358   0.08714   0.24701   0.00000  Uiso   1.00
O62    O     0.22613   0.23721   0.24518   0.00000  Uiso   1.00
O63    O     0.10720   0.09613   0.25481   0.00000  Uiso   1.00
O64    O     0.11847   0.17117   0.31997   0.00000  Uiso   1.00
O65    O     0.21486   0.16216   0.18002   0.00000  Uiso   1.00
O66    O     0.21485   0.16219   0.31217   0.00000  Uiso   1.00
O67    O     0.11848   0.17115   0.18782   0.00000  Uiso   1.00
O68    O     0.07870   0.11048   0.12064   0.00000  Uiso   1.00
Zn69   Zn    0.10231   0.17266   0.25521   0.00000  Uiso   1.00
Zn70   Zn    0.23102   0.16067   0.24479   0.00000  Uiso   1.00
C71    C     0.51500   0.26466   0.24857   0.00000  Uiso   1.00
C72    C     0.54537   0.19492   0.40489   0.00000  Uiso   1.00
C73    C     0.49913   0.16602   0.11578   0.00000  Uiso   1.00
C74    C     0.50087   0.16731   0.38422   0.00000  Uiso   1.00
C75    C     0.54443   0.19232   0.09122   0.00000  Uiso   1.00
C76    C     0.45557   0.14101   0.40878   0.00000  Uiso   1.00
C77    C     0.54518   0.19330   0.04486   0.00000  Uiso   1.00
C78    C     0.45482   0.14004   0.45514   0.00000  Uiso   1.00
C79    C     0.49977   0.16655   0.02336   0.00000  Uiso   1.00
C80    C     0.50023   0.16679   0.47664   0.00000  Uiso   1.00
C81    C     0.45376   0.13977   0.04859   0.00000  Uiso   1.00
C82    C     0.48500   0.06867   0.25143   0.00000  Uiso   1.00
C83    C     0.54624   0.19356   0.45141   0.00000  Uiso   1.00
C84    C     0.59014   0.22063   0.01960   0.00000  Uiso   1.00
C85    C     0.40986   0.11270   0.48040   0.00000  Uiso   1.00
C86    C     0.43117   0.06072   0.12651   0.00000  Uiso   1.00
C87    C     0.56883   0.27262   0.37349   0.00000  Uiso   1.00
C88    C     0.62070   0.29945   0.04645   0.00000  Uiso   1.00
C89    C     0.37930   0.03389   0.45355   0.00000  Uiso   1.00
C90    C     0.58568   0.00002   0.18311   0.00000  Uiso   1.00
C91    C     0.41432   0.33331   0.31689   0.00000  Uiso   1.00
C92    C     0.59156   0.21895   0.47318   0.00000  Uiso   1.00
C93    C     0.40844   0.11439   0.02682   0.00000  Uiso   1.00
C94    C     0.52271   0.31850   0.24425   0.00000  Uiso   1.00
C95    C     0.47729   0.01483   0.25575   0.00000  Uiso   1.00
C96    C     0.50039   0.16680   0.33647   0.00000  Uiso   1.00
C97    C     0.49961   0.16653   0.16353   0.00000  Uiso   1.00
C98    C     0.45463   0.13842   0.09511   0.00000  Uiso   1.00
F99    F     0.58754   0.21702   0.11309   0.00000  Uiso   1.00
F100   F     0.41246   0.11632   0.38691   0.00000  Uiso   1.00
F101   F     0.63785   0.24244   0.44988   0.00000  Uiso   1.00
F102   F     0.36215   0.09089   0.05011   0.00000  Uiso   1.00
F103   F     0.34329   0.11749   0.21127   0.00000  Uiso   1.00
F104   F     0.65671   0.21584   0.28873   0.00000  Uiso   1.00
H105   H     0.39640   0.03774   0.14564   0.00000  Uiso   1.00
H106   H     0.41935   0.03035   0.43094   0.00000  Uiso   1.00
H107   H     0.34369   0.01233   0.43727   0.00000  Uiso   1.00
H108   H     0.38408   0.01537   0.48588   0.00000  Uiso   1.00
H109   H     0.55179   0.01900   0.16666   0.00000  Uiso   1.00
H110   H     0.58684   0.29210   0.17202   0.00000  Uiso   1.00
H111   H     0.62778   0.01945   0.17181   0.00000  Uiso   1.00
H112   H     0.41316   0.04123   0.32798   0.00000  Uiso   1.00
H113   H     0.44821   0.31433   0.33334   0.00000  Uiso   1.00
H114   H     0.37222   0.31388   0.32819   0.00000  Uiso   1.00
H115   H     0.46960   0.06258   0.14624   0.00000  Uiso   1.00
H116   H     0.44072   0.03996   0.09382   0.00000  Uiso   1.00
H117   H     0.55928   0.29337   0.40618   0.00000  Uiso   1.00
H118   H     0.53040   0.27075   0.35376   0.00000  Uiso   1.00
H119   H     0.60360   0.29559   0.35436   0.00000  Uiso   1.00
H120   H     0.65631   0.32100   0.06273   0.00000  Uiso   1.00
H121   H     0.58065   0.30299   0.06906   0.00000  Uiso   1.00
H122   H     0.61592   0.31796   0.01412   0.00000  Uiso   1.00
N123   N     0.65011   0.15265   0.23783   0.00000  Uiso   1.00
N124   N     0.34989   0.18068   0.26217   0.00000  Uiso   1.00
O125   O     0.46308   0.24619   0.25298   0.00000  Uiso   1.00
O126   O     0.58797   0.22285   0.37936   0.00000  Uiso   1.00
O127   O     0.63473   0.24738   0.03979   0.00000  Uiso   1.00
O128   O     0.36527   0.08595   0.46021   0.00000  Uiso   1.00
O129   O     0.57774   0.00517   0.23022   0.00000  Uiso   1.00
O130   O     0.42226   0.32816   0.26978   0.00000  Uiso   1.00
O131   O     0.53692   0.08714   0.24701   0.00000  Uiso   1.00
O132   O     0.55946   0.23721   0.24518   0.00000  Uiso   1.00
O133   O     0.44054   0.09613   0.25481   0.00000  Uiso   1.00
O134   O     0.45181   0.17117   0.31997   0.00000  Uiso   1.00
O135   O     0.54819   0.16216   0.18002   0.00000  Uiso   1.00
O136   O     0.54819   0.16219   0.31217   0.00000  Uiso   1.00
O137   O     0.45181   0.17115   0.18782   0.00000  Uiso   1.00
O138   O     0.41203   0.11048   0.12064   0.00000  Uiso   1.00
Zn139  Zn    0.43565   0.17266   0.25521   0.00000  Uiso   1.00
Zn140  Zn    0.56435   0.16067   0.24479   0.00000  Uiso   1.00
C141   C     0.84833   0.26466   0.24857   0.00000  Uiso   1.00
C142   C     0.87870   0.19492   0.40489   0.00000  Uiso   1.00
C143   C     0.83247   0.16602   0.11578   0.00000  Uiso   1.00
C144   C     0.83420   0.16731   0.38422   0.00000  Uiso   1.00
C145   C     0.87777   0.19232   0.09122   0.00000  Uiso   1.00
C146   C     0.78890   0.14101   0.40878   0.00000  Uiso   1.00
C147   C     0.87851   0.19330   0.04486   0.00000  Uiso   1.00
C148   C     0.78815   0.14004   0.45514   0.00000  Uiso   1.00
C149   C     0.83311   0.16655   0.02336   0.00000  Uiso   1.00
C150   C     0.83356   0.16679   0.47664   0.00000  Uiso   1.00
C151   C     0.78710   0.13977   0.04859   0.00000  Uiso   1.00
C152   C     0.81834   0.06867   0.25143   0.00000  Uiso   1.00
C153   C     0.87957   0.19356   0.45141   0.00000  Uiso   1.00
C154   C     0.92348   0.22063   0.01960   0.00000  Uiso   1.00
C155   C     0.74319   0.11270   0.48040   0.00000  Uiso   1.00
C156   C     0.76450   0.06072   0.12651   0.00000  Uiso   1.00
C157   C     0.90217   0.27262   0.37349   0.00000  Uiso   1.00
C158   C     0.95404   0.29945   0.04645   0.00000  Uiso   1.00
C159   C     0.71263   0.03389   0.45355   0.00000  Uiso   1.00
C160   C     0.91901   0.00002   0.18311   0.00000  Uiso   1.00
C161   C     0.74765   0.33331   0.31689   0.00000  Uiso   1.00
C162   C     0.92490   0.21895   0.47318   0.00000  Uiso   1.00
C163   C     0.74177   0.11439   0.02682   0.00000  Uiso   1.00
C164   C     0.85605   0.31850   0.24425   0.00000  Uiso   1.00
C165   C     0.81062   0.01483   0.25575   0.00000  Uiso   1.00
C166   C     0.83372   0.16680   0.33647   0.00000  Uiso   1.00
C167   C     0.83294   0.16653   0.16353   0.00000  Uiso   1.00
C168   C     0.78797   0.13842   0.09511   0.00000  Uiso   1.00
F169   F     0.92087   0.21702   0.11309   0.00000  Uiso   1.00
F170   F     0.74580   0.11632   0.38691   0.00000  Uiso   1.00
F171   F     0.97118   0.24244   0.44988   0.00000  Uiso   1.00
F172   F     0.69548   0.09089   0.05011   0.00000  Uiso   1.00
F173   F     0.67662   0.11749   0.21127   0.00000  Uiso   1.00
F174   F     0.99005   0.21584   0.28873   0.00000  Uiso   1.00
H175   H     0.72973   0.03774   0.14564   0.00000  Uiso   1.00
H176   H     0.75269   0.03035   0.43094   0.00000  Uiso   1.00
H177   H     0.67703   0.01233   0.43727   0.00000  Uiso   1.00
H178   H     0.71742   0.01537   0.48588   0.00000  Uiso   1.00
H179   H     0.88512   0.01900   0.16666   0.00000  Uiso   1.00
H180   H     0.92017   0.29210   0.17202   0.00000  Uiso   1.00
H181   H     0.96111   0.01945   0.17181   0.00000  Uiso   1.00
H182   H     0.74649   0.04123   0.32798   0.00000  Uiso   1.00
H183   H     0.78155   0.31433   0.33334   0.00000  Uiso   1.00
H184   H     0.70555   0.31388   0.32819   0.00000  Uiso   1.00
H185   H     0.80293   0.06258   0.14624   0.00000  Uiso   1.00
H186   H     0.77405   0.03996   0.09382   0.00000  Uiso   1.00
H187   H     0.89262   0.29337   0.40618   0.00000  Uiso   1.00
H188   H     0.86374   0.27075   0.35376   0.00000  Uiso   1.00
H189   H     0.93693   0.29559   0.35436   0.00000  Uiso   1.00
H190   H     0.98964   0.32100   0.06273   0.00000  Uiso   1.00
H191   H     0.91398   0.30299   0.06906   0.00000  Uiso   1.00
H192   H     0.94925   0.31796   0.01412   0.00000  Uiso   1.00
N193   N     0.98344   0.15265   0.23783   0.00000  Uiso   1.00
N194   N     0.68322   0.18068   0.26217   0.00000  Uiso   1.00
O195   O     0.79642   0.24619   0.25298   0.00000  Uiso   1.00
O196   O     0.92130   0.22285   0.37936   0.00000  Uiso   1.00
O197   O     0.96806   0.24738   0.03979   0.00000  Uiso   1.00
O198   O     0.69861   0.08595   0.46021   0.00000  Uiso   1.00
O199   O     0.91108   0.00517   0.23022   0.00000  Uiso   1.00
O200   O     0.75559   0.32816   0.26978   0.00000  Uiso   1.00
O201   O     0.87025   0.08714   0.24701   0.00000  Uiso   1.00
O202   O     0.89280   0.23721   0.24518   0.00000  Uiso   1.00
O203   O     0.77387   0.09613   0.25481   0.00000  Uiso   1.00
O204   O     0.78514   0.17117   0.31997   0.00000  Uiso   1.00
O205   O     0.88153   0.16216   0.18002   0.00000  Uiso   1.00
O206   O     0.88152   0.16219   0.31217   0.00000  Uiso   1.00
O207   O     0.78515   0.17115   0.18782   0.00000  Uiso   1.00
O208   O     0.74537   0.11048   0.12064   0.00000  Uiso   1.00
Zn209  Zn    0.76898   0.17266   0.25521   0.00000  Uiso   1.00
Zn210  Zn    0.89769   0.16067   0.24479   0.00000  Uiso   1.00
C211   C     0.18166   0.59800   0.24857   0.00000  Uiso   1.00
C212   C     0.21203   0.52825   0.40489   0.00000  Uiso   1.00
C213   C     0.16580   0.49936   0.11578   0.00000  Uiso   1.00
C214   C     0.16753   0.50064   0.38422   0.00000  Uiso   1.00
C215   C     0.21110   0.52565   0.09122   0.00000  Uiso   1.00
C216   C     0.12223   0.47435   0.40878   0.00000  Uiso   1.00
C217   C     0.21185   0.52663   0.04486   0.00000  Uiso   1.00
C218   C     0.12149   0.47337   0.45514   0.00000  Uiso   1.00
C219   C     0.16644   0.49988   0.02336   0.00000  Uiso   1.00
C220   C     0.16689   0.50012   0.47664   0.00000  Uiso   1.00
C221   C     0.12043   0.47310   0.04859   0.00000  Uiso   1.00
C222   C     0.15167   0.40200   0.25143   0.00000  Uiso   1.00
C223   C     0.21290   0.52690   0.45141   0.00000  Uiso   1.00
C224   C     0.25681   0.55396   0.01960   0.00000  Uiso   1.00
C225   C     0.07652   0.44604   0.48040   0.00000  Uiso   1.00
C226   C     0.09783   0.39405   0.12651   0.00000  Uiso   1.00
C227   C     0.23550   0.60595   0.37349   0.00000  Uiso   1.00
C228   C     0.28737   0.63278   0.04645   0.00000  Uiso   1.00
C229   C     0.04596   0.36722   0.45355   0.00000  Uiso   1.00
C230   C     0.25235   0.33336   0.18311   0.00000  Uiso   1.00
C231   C     0.08099   0.66665   0.31689   0.00000  Uiso   1.00
C232   C     0.25823   0.55228   0.47318   0.00000  Uiso   1.00
C233   C     0.07510   0.44772   0.02682   0.00000  Uiso   1.00
C234   C     0.18938   0.65184   0.24425   0.00000  Uiso   1.00
C235   C     0.14395   0.34816   0.25575   0.00000  Uiso   1.00
C236   C     0.16706   0.50013   0.33647   0.00000  Uiso   1.00
C237   C     0.16628   0.49987   0.16353   0.00000  Uiso   1.00
C238   C     0.12130   0.47175   0.09511   0.00000  Uiso   1.00
F239   F     0.25420   0.55035   0.11309   0.00000  Uiso   1.00
F240   F     0.07913   0.44965   0.38691   0.00000  Uiso   1.00
F241   F     0.30452   0.57578   0.44988   0.00000  Uiso   1.00
F242   F     0.02882   0.42422   0.05011   0.00000  Uiso   1.00
F243   F     0.00995   0.45083   0.21127   0.00000  Uiso   1.00
F244   F     0.32338   0.54917   0.28873   0.00000  Uiso   1.00
H245   H     0.06307   0.37108   0.14564   0.00000  Uiso   1.00
H246   H     0.08602   0.36368   0.43094   0.00000  Uiso   1.00
H247   H     0.01036   0.34567   0.43727   0.00000  Uiso   1.00
H248   H     0.05075   0.34871   0.48588   0.00000  Uiso   1.00
H249   H     0.21845   0.35234   0.16666   0.00000  Uiso   1.00
H250   H     0.25351   0.62544   0.17202   0.00000  Uiso   1.00
H251   H     0.29445   0.35278   0.17181   0.00000  Uiso   1.00
H252   H     0.07982   0.37457   0.32798   0.00000  Uiso   1.00
H253   H     0.11488   0.64767   0.33334   0.00000  Uiso   1.00
H254   H     0.03889   0.64722   0.32819   0.00000  Uiso   1.00
H255   H     0.13626   0.39591   0.14624   0.00000  Uiso   1.00
H256   H     0.10738   0.37330   0.09382   0.00000  Uiso   1.00
H257   H     0.22595   0.62670   0.40618   0.00000  Uiso   1.00
H258   H     0.19707   0.60409   0.35376   0.00000  Uiso   1.00
H259   H     0.27027   0.62892   0.35436   0.00000  Uiso   1.00
H260   H     0.32297   0.65433   0.06273   0.00000  Uiso   1.00
H261   H     0.24731   0.63632   0.06906   0.00000  Uiso   1.00
H262   H     0.28258   0.65129   0.01412   0.00000  Uiso   1.00
N263   N     0.31678   0.48598   0.23783   0.00000  Uiso   1.00
N264   N     0.01656   0.51402   0.26217   0.00000  Uiso   1.00
O265   O     0.12975   0.57952   0.25298   0.00000  Uiso   1.00
O266   O     0.25463   0.55619   0.37936   0.00000  Uiso   1.00
O267   O     0.30139   0.58072   0.03979   0.00000  Uiso   1.00
O268   O     0.03194   0.41928   0.46021   0.00000  Uiso   1.00
O269   O     0.24441   0.33851   0.23022   0.00000  Uiso   1.00
O270   O     0.08892   0.66149   0.26978   0.00000  Uiso   1.00
O271   O     0.20358   0.42048   0.24701   0.00000  Uiso   1.00
O272   O     0.22613   0.57054   0.24518   0.00000  Uiso   1.00
O273   O     0.10720   0.42946   0.25481   0.00000  Uiso   1.00
O274   O     0.11847   0.50450   0.31997   0.00000  Uiso   1.00
O275   O     0.21486   0.49550   0.18002   0.00000  Uiso   1.00
O276   O     0.21485   0.49552   0.31217   0.00000  Uiso   1.00
O277   O     0.11848   0.50448   0.18782   0.00000  Uiso   1.00
O278   O     0.07870   0.44382   0.12064   0.00000  Uiso   1.00
Zn279  Zn    0.10231   0.50600   0.25521   0.00000  Uiso   1.00
Zn280  Zn    0.23102   0.49400   0.24479   0.00000  Uiso   1.00
C281   C     0.51500   0.59800   0.24857   0.00000  Uiso   1.00
C282   C     0.54537   0.52825   0.40489   0.00000  Uiso   1.00
C283   C     0.49913   0.49936   0.11578   0.00000  Uiso   1.00
C284   C     0.50087   0.50064   0.38422   0.00000  Uiso   1.00
C285   C     0.54443   0.52565   0.09122   0.00000  Uiso   1.00
C286   C     0.45557   0.47435   0.40878   0.00000  Uiso   1.00
C287   C     0.54518   0.52663   0.04486   0.00000  Uiso   1.00
C288   C     0.45482   0.47337   0.45514   0.00000  Uiso   1.00
C289   C     0.49977   0.49988   0.02336   0.00000  Uiso   1.00
C290   C     0.50023   0.50012   0.47664   0.00000  Uiso   1.00
C291   C     0.45376   0.47310   0.04859   0.00000  Uiso   1.00
C292   C     0.48500   0.40200   0.25143   0.00000  Uiso   1.00
C293   C     0.54624   0.52690   0.45141   0.00000  Uiso   1.00
C294   C     0.59014   0.55396   0.01960   0.00000  Uiso   1.00
C295   C     0.40986   0.44604   0.48040   0.00000  Uiso   1.00
C296   C     0.43117   0.39405   0.12651   0.00000  Uiso   1.00
C297   C     0.56883   0.60595   0.37349   0.00000  Uiso   1.00
C298   C     0.62070   0.63278   0.04645   0.00000  Uiso   1.00
C299   C     0.37930   0.36722   0.45355   0.00000  Uiso   1.00
C300   C     0.58568   0.33336   0.18311   0.00000  Uiso   1.00
C301   C     0.41432   0.66665   0.31689   0.00000  Uiso   1.00
C302   C     0.59156   0.55228   0.47318   0.00000  Uiso   1.00
C303   C     0.40844   0.44772   0.02682   0.00000  Uiso   1.00
C304   C     0.52271   0.65184   0.24425   0.00000  Uiso   1.00
C305   C     0.47729   0.34816   0.25575   0.00000  Uiso   1.00
C306   C     0.50039   0.50013   0.33647   0.00000  Uiso   1.00
C307   C     0.49961   0.49987   0.16353   0.00000  Uiso   1.00
C308   C     0.45463   0.47175   0.09511   0.00000  Uiso   1.00
F309   F     0.58754   0.55035   0.11309   0.00000  Uiso   1.00
F310   F     0.41246   0.44965   0.38691   0.00000  Uiso   1.00
F311   F     0.63785   0.57578   0.44988   0.00000  Uiso   1.00
F312   F     0.36215   0.42422   0.05011   0.00000  Uiso   1.00
F313   F     0.34329   0.45083   0.21127   0.00000  Uiso   1.00
F314   F     0.65671   0.54917   0.28873   0.00000  Uiso   1.00
H315   H     0.39640   0.37108   0.14564   0.00000  Uiso   1.00
H316   H     0.41935   0.36368   0.43094   0.00000  Uiso   1.00
H317   H     0.34369   0.34567   0.43727   0.00000  Uiso   1.00
H318   H     0.38408   0.34871   0.48588   0.00000  Uiso   1.00
H319   H     0.55179   0.35234   0.16666   0.00000  Uiso   1.00
H320   H     0.58684   0.62544   0.17202   0.00000  Uiso   1.00
H321   H     0.62778   0.35278   0.17181   0.00000  Uiso   1.00
H322   H     0.41316   0.37457   0.32798   0.00000  Uiso   1.00
H323   H     0.44821   0.64767   0.33334   0.00000  Uiso   1.00
H324   H     0.37222   0.64722   0.32819   0.00000  Uiso   1.00
H325   H     0.46960   0.39591   0.14624   0.00000  Uiso   1.00
H326   H     0.44072   0.37330   0.09382   0.00000  Uiso   1.00
H327   H     0.55928   0.62670   0.40618   0.00000  Uiso   1.00
H328   H     0.53040   0.60409   0.35376   0.00000  Uiso   1.00
H329   H     0.60360   0.62892   0.35436   0.00000  Uiso   1.00
H330   H     0.65631   0.65433   0.06273   0.00000  Uiso   1.00
H331   H     0.58065   0.63632   0.06906   0.00000  Uiso   1.00
H332   H     0.61592   0.65129   0.01412   0.00000  Uiso   1.00
N333   N     0.65011   0.48598   0.23783   0.00000  Uiso   1.00
N334   N     0.34989   0.51402   0.26217   0.00000  Uiso   1.00
O335   O     0.46308   0.57952   0.25298   0.00000  Uiso   1.00
O336   O     0.58797   0.55619   0.37936   0.00000  Uiso   1.00
O337   O     0.63473   0.58072   0.03979   0.00000  Uiso   1.00
O338   O     0.36527   0.41928   0.46021   0.00000  Uiso   1.00
O339   O     0.57774   0.33851   0.23022   0.00000  Uiso   1.00
O340   O     0.42226   0.66149   0.26978   0.00000  Uiso   1.00
O341   O     0.53692   0.42048   0.24701   0.00000  Uiso   1.00
O342   O     0.55946   0.57054   0.24518   0.00000  Uiso   1.00
O343   O     0.44054   0.42946   0.25481   0.00000  Uiso   1.00
O344   O     0.45181   0.50450   0.31997   0.00000  Uiso   1.00
O345   O     0.54819   0.49550   0.18002   0.00000  Uiso   1.00
O346   O     0.54819   0.49552   0.31217   0.00000  Uiso   1.00
O347   O     0.45181   0.50448   0.18782   0.00000  Uiso   1.00
O348   O     0.41203   0.44382   0.12064   0.00000  Uiso   1.00
Zn349  Zn    0.43565   0.50600   0.25521   0.00000  Uiso   1.00
Zn350  Zn    0.56435   0.49400   0.24479   0.00000  Uiso   1.00
C351   C     0.84833   0.59800   0.24857   0.00000  Uiso   1.00
C352   C     0.87870   0.52825   0.40489   0.00000  Uiso   1.00
C353   C     0.83247   0.49936   0.11578   0.00000  Uiso   1.00
C354   C     0.83420   0.50064   0.38422   0.00000  Uiso   1.00
C355   C     0.87777   0.52565   0.09122   0.00000  Uiso   1.00
C356   C     0.78890   0.47435   0.40878   0.00000  Uiso   1.00
C357   C     0.87851   0.52663   0.04486   0.00000  Uiso   1.00
C358   C     0.78815   0.47337   0.45514   0.00000  Uiso   1.00
C359   C     0.83311   0.49988   0.02336   0.00000  Uiso   1.00
C360   C     0.83356   0.50012   0.47664   0.00000  Uiso   1.00
C361   C     0.78710   0.47310   0.04859   0.00000  Uiso   1.00
C362   C     0.81834   0.40200   0.25143   0.00000  Uiso   1.00
C363   C     0.87957   0.52690   0.45141   0.00000  Uiso   1.00
C364   C     0.92348   0.55396   0.01960   0.00000  Uiso   1.00
C365   C     0.74319   0.44604   0.48040   0.00000  Uiso   1.00
C366   C     0.76450   0.39405   0.12651   0.00000  Uiso   1.00
C367   C     0.90217   0.60595   0.37349   0.00000  Uiso   1.00
C368   C     0.95404   0.63278   0.04645   0.00000  Uiso   1.00
C369   C     0.71263   0.36722   0.45355   0.00000  Uiso   1.00
C370   C     0.91901   0.33336   0.18311   0.00000  Uiso   1.00
C371   C     0.74765   0.66665   0.31689   0.00000  Uiso   1.00
C372   C     0.92490   0.55228   0.47318   0.00000  Uiso   1.00
C373   C     0.74177   0.44772   0.02682   0.00000  Uiso   1.00
C374   C     0.85605   0.65184   0.24425   0.00000  Uiso   1.00
C375   C     0.81062   0.34816   0.25575   0.00000  Uiso   1.00
C376   C     0.83372   0.50013   0.33647   0.00000  Uiso   1.00
C377   C     0.83294   0.49987   0.16353   0.00000  Uiso   1.00
C378   C     0.78797   0.47175   0.09511   0.00000  Uiso   1.00
F379   F     0.92087   0.55035   0.11309   0.00000  Uiso   1.00
F380   F     0.74580   0.44965   0.38691   0.00000  Uiso   1.00
F381   F     0.97118   0.57578   0.44988   0.00000  Uiso   1.00
F382   F     0.69548   0.42422   0.05011   0.00000  Uiso   1.00
F383   F     0.67662   0.45083   0.21127   0.00000  Uiso   1.00
F384   F     0.99005   0.54917   0.28873   0.00000  Uiso   1.00
H385   H     0.72973   0.37108   0.14564   0.00000  Uiso   1.00
H386   H     0.75269   0.36368   0.43094   0.00000  Uiso   1.00
H387   H     0.67703   0.34567   0.43727   0.00000  Uiso   1.00
H388   H     0.71742   0.34871   0.48588   0.00000  Uiso   1.00
H389   H     0.88512   0.35234   0.16666   0.00000  Uiso   1.00
H390   H     0.92017   0.62544   0.17202   0.00000  Uiso   1.00
H391   H     0.96111   0.35278   0.17181   0.00000  Uiso   1.00
H392   H     0.74649   0.37457   0.32798   0.00000  Uiso   1.00
H393   H     0.78155   0.64767   0.33334   0.00000  Uiso   1.00
H394   H     0.70555   0.64722   0.32819   0.00000  Uiso   1.00
H395   H     0.80293   0.39591   0.14624   0.00000  Uiso   1.00
H396   H     0.77405   0.37330   0.09382   0.00000  Uiso   1.00
H397   H     0.89262   0.62670   0.40618   0.00000  Uiso   1.00
H398   H     0.86374   0.60409   0.35376   0.00000  Uiso   1.00
H399   H     0.93693   0.62892   0.35436   0.00000  Uiso   1.00
H400   H     0.98964   0.65433   0.06273   0.00000  Uiso   1.00
H401   H     0.91398   0.63632   0.06906   0.00000  Uiso   1.00
H402   H     0.94925   0.65129   0.01412   0.00000  Uiso   1.00
N403   N     0.98344   0.48598   0.23783   0.00000  Uiso   1.00
N404   N     0.68322   0.51402   0.26217   0.00000  Uiso   1.00
O405   O     0.79642   0.57952   0.25298   0.00000  Uiso   1.00
O406   O     0.92130   0.55619   0.37936   0.00000  Uiso   1.00
O407   O     0.96806   0.58072   0.03979   0.00000  Uiso   1.00
O408   O     0.69861   0.41928   0.46021   0.00000  Uiso   1.00
O409   O     0.91108   0.33851   0.23022   0.00000  Uiso   1.00
O410   O     0.75559   0.66149   0.26978   0.00000  Uiso   1.00
O411   O     0.87025   0.42048   0.24701   0.00000  Uiso   1.00
O412   O     0.89280   0.57054   0.24518   0.00000  Uiso   1.00
O413   O     0.77387   0.42946   0.25481   0.00000  Uiso   1.00
O414   O     0.78514   0.50450   0.31997   0.00000  Uiso   1.00
O415   O     0.88153   0.49550   0.18002   0.00000  Uiso   1.00
O416   O     0.88152   0.49552   0.31217   0.00000  Uiso   1.00
O417   O     0.78515   0.50448   0.18782   0.00000  Uiso   1.00
O418   O     0.74537   0.44382   0.12064   0.00000  Uiso   1.00
Zn419  Zn    0.76898   0.50600   0.25521   0.00000  Uiso   1.00
Zn420  Zn    0.89769   0.49400   0.24479   0.00000  Uiso   1.00
C421   C     0.18166   0.93133   0.24857   0.00000  Uiso   1.00
C422   C     0.21203   0.86158   0.40489   0.00000  Uiso   1.00
C423   C     0.16580   0.83269   0.11578   0.00000  Uiso   1.00
C424   C     0.16753   0.83398   0.38422   0.00000  Uiso   1.00
C425   C     0.21110   0.85899   0.09122   0.00000  Uiso   1.00
C426   C     0.12223   0.80768   0.40878   0.00000  Uiso   1.00
C427   C     0.21185   0.85996   0.04486   0.00000  Uiso   1.00
C428   C     0.12149   0.80670   0.45514   0.00000  Uiso   1.00
C429   C     0.16644   0.83321   0.02336   0.00000  Uiso   1.00
C430   C     0.16689   0.83345   0.47664   0.00000  Uiso   1.00
C431   C     0.12043   0.80644   0.04859   0.00000  Uiso   1.00
C432   C     0.15167   0.73534   0.25143   0.00000  Uiso   1.00
C433   C     0.21290   0.86023   0.45141   0.00000  Uiso   1.00
C434   C     0.25681   0.88730   0.01960   0.00000  Uiso   1.00
C435   C     0.07652   0.77937   0.48040   0.00000  Uiso   1.00
C436   C     0.09783   0.72738   0.12651   0.00000  Uiso   1.00
C437   C     0.23550   0.93929   0.37349   0.00000  Uiso   1.00
C438   C     0.28737   0.96611   0.04645   0.00000  Uiso   1.00
C439   C     0.04596   0.70055   0.45355   0.00000  Uiso   1.00
C440   C     0.25235   0.66669   0.18311   0.00000  Uiso   1.00
C441   C     0.08099   0.99998   0.31689   0.00000  Uiso   1.00
C442   C     0.25823   0.88561   0.47318   0.00000  Uiso   1.00
C443   C     0.07510   0.78105   0.02682   0.00000  Uiso   1.00
C444   C     0.18938   0.98517   0.24425   0.00000  Uiso   1.00
C445   C     0.14395   0.68150   0.25575   0.00000  Uiso   1.00
C446   C     0.16706   0.83347   0.33647   0.00000  Uiso   1.00
C447   C     0.16628   0.83320   0.16353   0.00000  Uiso   1.00
C448   C     0.12130   0.80508   0.09511   0.00000  Uiso   1.00
F449   F     0.25420   0.88368   0.11309   0.00000  Uiso   1.00
F450   F     0.07913   0.78298   0.38691   0.00000  Uiso   1.00
F451   F     0.30452   0.90911   0.44988   0.00000  Uiso   1.00
F452   F     0.02882   0.75756   0.05011   0.00000  Uiso   1.00
F453   F     0.00995   0.78416   0.21127   0.00000  Uiso   1.00
F454   F     0.32338   0.88251   0.28873   0.00000  Uiso   1.00
H455   H     0.06307   0.70441   0.14564   0.00000  Uiso   1.00
H456   H     0.08602   0.69701   0.43094   0.00000  Uiso   1.00
H457   H     0.01036   0.67900   0.43727   0.00000  Uiso   1.00
H458   H     0.05075   0.68204   0.48588   0.00000  Uiso   1.00
H459   H     0.21845   0.68567   0.16666   0.00000  Uiso   1.00
H460   H     0.25351   0.95877   0.17202   0.00000  Uiso   1.00
H461   H     0.29445   0.68611   0.17181   0.00000  Uiso   1.00
H462   H     0.07982   0.70790   0.32798   0.00000  Uiso   1.00
H463   H     0.11488   0.98100   0.33334   0.00000  Uiso   1.00
H464   H     0.03889   0.98055   0.32819   0.00000  Uiso   1.00
H465   H     0.13626   0.72925   0.14624   0.00000  Uiso   1.00
H466   H     0.10738   0.70663   0.09382   0.00000  Uiso   1.00
H467   H     0.22595   0.96004   0.40618   0.00000  Uiso   1.00
H468   H     0.19707   0.93742   0.35376   0.00000  Uiso   1.00
H469   H     0.27027   0.96226   0.35436   0.00000  Uiso   1.00
H470   H     0.32297   0.98767   0.06273   0.00000  Uiso   1.00
H471   H     0.24731   0.96965   0.06906   0.00000  Uiso   1.00
H472   H     0.28258   0.98463   0.01412   0.00000  Uiso   1.00
N473   N     0.31678   0.81932   0.23783   0.00000  Uiso   1.00
N474   N     0.01656   0.84735   0.26217   0.00000  Uiso   1.00
O475   O     0.12975   0.91286   0.25298   0.00000  Uiso   1.00
O476   O     0.25463   0.88952   0.37936   0.00000  Uiso   1.00
O477   O     0.30139   0.91405   0.03979   0.00000  Uiso   1.00
O478   O     0.03194   0.75262   0.46021   0.00000  Uiso   1.00
O479   O     0.24441   0.67184   0.23022   0.00000  Uiso   1.00
O480   O     0.08892   0.99483   0.26978   0.00000  Uiso   1.00
O481   O     0.20358   0.75381   0.24701   0.00000  Uiso   1.00
O482   O     0.22613   0.90387   0.24518   0.00000  Uiso   1.00
O483   O     0.10720   0.76279   0.25481   0.00000  Uiso   1.00
O484   O     0.11847   0.83784   0.31997   0.00000  Uiso   1.00
O485   O     0.21486   0.82883   0.18002   0.00000  Uiso   1.00
O486   O     0.21485   0.82885   0.31217   0.00000  Uiso   1.00
O487   O     0.11848   0.83781   0.18782   0.00000  Uiso   1.00
O488   O     0.07870   0.77715   0.12064   0.00000  Uiso   1.00
Zn489  Zn    0.10231   0.83933   0.25521   0.00000  Uiso   1.00
Zn490  Zn    0.23102   0.82734   0.24479   0.00000  Uiso   1.00
C491   C     0.51500   0.93133   0.24857   0.00000  Uiso   1.00
C492   C     0.54537   0.86158   0.40489   0.00000  Uiso   1.00
C493   C     0.49913   0.83269   0.11578   0.00000  Uiso   1.00
C494   C     0.50087   0.83398   0.38422   0.00000  Uiso   1.00
C495   C     0.54443   0.85899   0.09122   0.00000  Uiso   1.00
C496   C     0.45557   0.80768   0.40878   0.00000  Uiso   1.00
C497   C     0.54518   0.85996   0.04486   0.00000  Uiso   1.00
C498   C     0.45482   0.80670   0.45514   0.00000  Uiso   1.00
C499   C     0.49977   0.83321   0.02336   0.00000  Uiso   1.00
C500   C     0.50023   0.83345   0.47664   0.00000  Uiso   1.00
C501   C     0.45376   0.80644   0.04859   0.00000  Uiso   1.00
C502   C     0.48500   0.73534   0.25143   0.00000  Uiso   1.00
C503   C     0.54624   0.86023   0.45141   0.00000  Uiso   1.00
C504   C     0.59014   0.88730   0.01960   0.00000  Uiso   1.00
C505   C     0.40986   0.77937   0.48040   0.00000  Uiso   1.00
C506   C     0.43117   0.72738   0.12651   0.00000  Uiso   1.00
C507   C     0.56883   0.93929   0.37349   0.00000  Uiso   1.00
C508   C     0.62070   0.96611   0.04645   0.00000  Uiso   1.00
C509   C     0.37930   0.70055   0.45355   0.00000  Uiso   1.00
C510   C     0.58568   0.66669   0.18311   0.00000  Uiso   1.00
C511   C     0.41432   0.99998   0.31689   0.00000  Uiso   1.00
C512   C     0.59156   0.88561   0.47318   0.00000  Uiso   1.00
C513   C     0.40844   0.78105   0.02682   0.00000  Uiso   1.00
C514   C     0.52271   0.98517   0.24425   0.00000  Uiso   1.00
C515   C     0.47729   0.68150   0.25575   0.00000  Uiso   1.00
C516   C     0.50039   0.83347   0.33647   0.00000  Uiso   1.00
C517   C     0.49961   0.83320   0.16353   0.00000  Uiso   1.00
C518   C     0.45463   0.80508   0.09511   0.00000  Uiso   1.00
F519   F     0.58754   0.88368   0.11309   0.00000  Uiso   1.00
F520   F     0.41246   0.78298   0.38691   0.00000  Uiso   1.00
F521   F     0.63785   0.90911   0.44988   0.00000  Uiso   1.00
F522   F     0.36215   0.75756   0.05011   0.00000  Uiso   1.00
F523   F     0.34329   0.78416   0.21127   0.00000  Uiso   1.00
F524   F     0.65671   0.88251   0.28873   0.00000  Uiso   1.00
H525   H     0.39640   0.70441   0.14564   0.00000  Uiso   1.00
H526   H     0.41935   0.69701   0.43094   0.00000  Uiso   1.00
H527   H     0.34369   0.67900   0.43727   0.00000  Uiso   1.00
H528   H     0.38408   0.68204   0.48588   0.00000  Uiso   1.00
H529   H     0.55179   0.68567   0.16666   0.00000  Uiso   1.00
H530   H     0.58684   0.95877   0.17202   0.00000  Uiso   1.00
H531   H     0.62778   0.68611   0.17181   0.00000  Uiso   1.00
H532   H     0.41316   0.70790   0.32798   0.00000  Uiso   1.00
H533   H     0.44821   0.98100   0.33334   0.00000  Uiso   1.00
H534   H     0.37222   0.98055   0.32819   0.00000  Uiso   1.00
H535   H     0.46960   0.72925   0.14624   0.00000  Uiso   1.00
H536   H     0.44072   0.70663   0.09382   0.00000  Uiso   1.00
H537   H     0.55928   0.96004   0.40618   0.00000  Uiso   1.00
H538   H     0.53040   0.93742   0.35376   0.00000  Uiso   1.00
H539   H     0.60360   0.96226   0.35436   0.00000  Uiso   1.00
H540   H     0.65631   0.98767   0.06273   0.00000  Uiso   1.00
H541   H     0.58065   0.96965   0.06906   0.00000  Uiso   1.00
H542   H     0.61592   0.98463   0.01412   0.00000  Uiso   1.00
N543   N     0.65011   0.81932   0.23783   0.00000  Uiso   1.00
N544   N     0.34989   0.84735   0.26217   0.00000  Uiso   1.00
O545   O     0.46308   0.91286   0.25298   0.00000  Uiso   1.00
O546   O     0.58797   0.88952   0.37936   0.00000  Uiso   1.00
O547   O     0.63473   0.91405   0.03979   0.00000  Uiso   1.00
O548   O     0.36527   0.75262   0.46021   0.00000  Uiso   1.00
O549   O     0.57774   0.67184   0.23022   0.00000  Uiso   1.00
O550   O     0.42226   0.99483   0.26978   0.00000  Uiso   1.00
O551   O     0.53692   0.75381   0.24701   0.00000  Uiso   1.00
O552   O     0.55946   0.90387   0.24518   0.00000  Uiso   1.00
O553   O     0.44054   0.76279   0.25481   0.00000  Uiso   1.00
O554   O     0.45181   0.83784   0.31997   0.00000  Uiso   1.00
O555   O     0.54819   0.82883   0.18002   0.00000  Uiso   1.00
O556   O     0.54819   0.82885   0.31217   0.00000  Uiso   1.00
O557   O     0.45181   0.83781   0.18782   0.00000  Uiso   1.00
O558   O     0.41203   0.77715   0.12064   0.00000  Uiso   1.00
Zn559  Zn    0.43565   0.83933   0.25521   0.00000  Uiso   1.00
Zn560  Zn    0.56435   0.82734   0.24479   0.00000  Uiso   1.00
C561   C     0.84833   0.93133   0.24857   0.00000  Uiso   1.00
C562   C     0.87870   0.86158   0.40489   0.00000  Uiso   1.00
C563   C     0.83247   0.83269   0.11578   0.00000  Uiso   1.00
C564   C     0.83420   0.83398   0.38422   0.00000  Uiso   1.00
C565   C     0.87777   0.85899   0.09122   0.00000  Uiso   1.00
C566   C     0.78890   0.80768   0.40878   0.00000  Uiso   1.00
C567   C     0.87851   0.85996   0.04486   0.00000  Uiso   1.00
C568   C     0.78815   0.80670   0.45514   0.00000  Uiso   1.00
C569   C     0.83311   0.83321   0.02336   0.00000  Uiso   1.00
C570   C     0.83356   0.83345   0.47664   0.00000  Uiso   1.00
C571   C     0.78710   0.80644   0.04859   0.00000  Uiso   1.00
C572   C     0.81834   0.73534   0.25143   0.00000  Uiso   1.00
C573   C     0.87957   0.86023   0.45141   0.00000  Uiso   1.00
C574   C     0.92348   0.88730   0.01960   0.00000  Uiso   1.00
C575   C     0.74319   0.77937   0.48040   0.00000  Uiso   1.00
C576   C     0.76450   0.72738   0.12651   0.00000  Uiso   1.00
C577   C     0.90217   0.93929   0.37349   0.00000  Uiso   1.00
C578   C     0.95404   0.96611   0.04645   0.00000  Uiso   1.00
C579   C     0.71263   0.70055   0.45355   0.00000  Uiso   1.00
C580   C     0.91901   0.66669   0.18311   0.00000  Uiso   1.00
C581   C     0.74765   0.99998   0.31689   0.00000  Uiso   1.00
C582   C     0.92490   0.88561   0.47318   0.00000  Uiso   1.00
C583   C     0.74177   0.78105   0.02682   0.00000  Uiso   1.00
C584   C     0.85605   0.98517   0.24425   0.00000  Uiso   1.00
C585   C     0.81062   0.68150   0.25575   0.00000  Uiso   1.00
C586   C     0.83372   0.83347   0.33647   0.00000  Uiso   1.00
C587   C     0.83294   0.83320   0.16353   0.00000  Uiso   1.00
C588   C     0.78797   0.80508   0.09511   0.00000  Uiso   1.00
F589   F     0.92087   0.88368   0.11309   0.00000  Uiso   1.00
F590   F     0.74580   0.78298   0.38691   0.00000  Uiso   1.00
F591   F     0.97118   0.90911   0.44988   0.00000  Uiso   1.00
F592   F     0.69548   0.75756   0.05011   0.00000  Uiso   1.00
F593   F     0.67662   0.78416   0.21127   0.00000  Uiso   1.00
F594   F     0.99005   0.88251   0.28873   0.00000  Uiso   1.00
H595   H     0.72973   0.70441   0.14564   0.00000  Uiso   1.00
H596   H     0.75269   0.69701   0.43094   0.00000  Uiso   1.00
H597   H     0.67703   0.67900   0.43727   0.00000  Uiso   1.00
H598   H     0.71742   0.68204   0.48588   0.00000  Uiso   1.00
H599   H     0.88512   0.68567   0.16666   0.00000  Uiso   1.00
H600   H     0.92017   0.95877   0.17202   0.00000  Uiso   1.00
H601   H     0.96111   0.68611   0.17181   0.00000  Uiso   1.00
H602   H     0.74649   0.70790   0.32798   0.00000  Uiso   1.00
H603   H     0.78155   0.98100   0.33334   0.00000  Uiso   1.00
H604   H     0.70555   0.98055   0.32819   0.00000  Uiso   1.00
H605   H     0.80293   0.72925   0.14624   0.00000  Uiso   1.00
H606   H     0.77405   0.70663   0.09382   0.00000  Uiso   1.00
H607   H     0.89262   0.96004   0.40618   0.00000  Uiso   1.00
H608   H     0.86374   0.93742   0.35376   0.00000  Uiso   1.00
H609   H     0.93693   0.96226   0.35436   0.00000  Uiso   1.00
H610   H     0.98964   0.98767   0.06273   0.00000  Uiso   1.00
H611   H     0.91398   0.96965   0.06906   0.00000  Uiso   1.00
H612   H     0.94925   0.98463   0.01412   0.00000  Uiso   1.00
N613   N     0.98344   0.81932   0.23783   0.00000  Uiso   1.00
N614   N     0.68322   0.84735   0.26217   0.00000  Uiso   1.00
O615   O     0.79642   0.91286   0.25298   0.00000  Uiso   1.00
O616   O     0.92130   0.88952   0.37936   0.00000  Uiso   1.00
O617   O     0.96806   0.91405   0.03979   0.00000  Uiso   1.00
O618   O     0.69861   0.75262   0.46021   0.00000  Uiso   1.00
O619   O     0.91108   0.67184   0.23022   0.00000  Uiso   1.00
O620   O     0.75559   0.99483   0.26978   0.00000  Uiso   1.00
O621   O     0.87025   0.75381   0.24701   0.00000  Uiso   1.00
O622   O     0.89280   0.90387   0.24518   0.00000  Uiso   1.00
O623   O     0.77387   0.76279   0.25481   0.00000  Uiso   1.00
O624   O     0.78514   0.83784   0.31997   0.00000  Uiso   1.00
O625   O     0.88153   0.82883   0.18002   0.00000  Uiso   1.00
O626   O     0.88152   0.82885   0.31217   0.00000  Uiso   1.00
O627   O     0.78515   0.83781   0.18782   0.00000  Uiso   1.00
O628   O     0.74537   0.77715   0.12064   0.00000  Uiso   1.00
Zn629  Zn    0.76898   0.83933   0.25521   0.00000  Uiso   1.00
Zn630  Zn    0.89769   0.82734   0.24479   0.00000  Uiso   1.00
C631   C     0.18166   0.26466   0.74857   0.00000  Uiso   1.00
C632   C     0.21203   0.19492   0.90489   0.00000  Uiso   1.00
C633   C     0.16580   0.16602   0.61578   0.00000  Uiso   1.00
C634   C     0.16753   0.16731   0.88422   0.00000  Uiso   1.00
C635   C     0.21110   0.19232   0.59122   0.00000  Uiso   1.00
C636   C     0.12223   0.14101   0.90878   0.00000  Uiso   1.00
C637   C     0.21185   0.19330   0.54486   0.00000  Uiso   1.00
C638   C     0.12149   0.14004   0.95514   0.00000  Uiso   1.00
C639   C     0.16644   0.16655   0.52336   0.00000  Uiso   1.00
C640   C     0.16689   0.16679   0.97664   0.00000  Uiso   1.00
C641   C     0.12043   0.13977   0.54859   0.00000  Uiso   1.00
C642   C     0.15167   0.06867   0.75143   0.00000  Uiso   1.00
C643   C     0.21290   0.19356   0.95141   0.00000  Uiso   1.00
C644   C     0.25681   0.22063   0.51960   0.00000  Uiso   1.00
C645   C     0.07652   0.11270   0.98040   0.00000  Uiso   1.00
C646   C     0.09783   0.06072   0.62651   0.00000  Uiso   1.00
C647   C     0.23550   0.27262   0.87349   0.00000  Uiso   1.00
C648   C     0.28737   0.29945   0.54645   0.00000  Uiso   1.00
C649   C     0.04596   0.03389   0.95355   0.00000  Uiso   1.00
C650   C     0.25235   0.00002   0.68311   0.00000  Uiso   1.00
C651   C     0.08099   0.33331   0.81689   0.00000  Uiso   1.00
C652   C     0.25823   0.21895   0.97318   0.00000  Uiso   1.00
C653   C     0.07510   0.11439   0.52682   0.00000  Uiso   1.00
C654   C     0.18938   0.31850   0.74425   0.00000  Uiso   1.00
C655   C     0.14395   0.01483   0.75575   0.00000  Uiso   1.00
C656   C     0.16706   0.16680   0.83647   0.00000  Uiso   1.00
C657   C     0.16628   0.16653   0.66353   0.00000  Uiso   1.00
C658   C     0.12130   0.13842   0.59511   0.00000  Uiso   1.00
F659   F     0.25420   0.21702   0.61309   0.00000  Uiso   1.00
F660   F     0.07913   0.11632   0.88691   0.00000  Uiso   1.00
F661   F     0.30452   0.24244   0.94988   0.00000  Uiso   1.00
F662   F     0.02882   0.09089   0.55011   0.00000  Uiso   1.00
F663   F     0.00995   0.11749   0.71127   0.00000  Uiso   1.00
F664   F     0.32338   0.21584   0.78873   0.00000  Uiso   1.00
H665   H     0.06307   0.03774   0.64564   0.00000  Uiso   1.00
H666   H     0.08602   0.03035   0.93094   0.00000  Uiso   1.00
H667   H     0.01036   0.01233   0.93727   0.00000  Uiso   1.00
H668   H     0.05075   0.01537   0.98588   0.00000  Uiso   1.00
H669   H     0.21845   0.01900   0.66666   0.00000  Uiso   1.00
H670   H     0.25351   0.29210   0.67202   0.00000  Uiso   1.00
H671   H     0.29445   0.01945   0.67181   0.00000  Uiso   1.00
H672   H     0.07982   0.04123   0.82798   0.00000  Uiso   1.00
H673   H     0.11488   0.31433   0.83334   0.00000  Uiso   1.00
H674   H     0.03889   0.31388   0.82819   0.00000  Uiso   1.00
H675   H     0.13626   0.06258   0.64624   0.00000  Uiso   1.00
H676   H     0.10738   0.03996   0.59382   0.00000  Uiso   1.00
H677   H     0.22595   0.29337   0.90618   0.00000  Uiso   1.00
H678   H     0.19707   0.27075   0.85376   0.00000  Uiso   1.00
H679   H     0.27027   0.29559   0.85436   0.00000  Uiso   1.00
H680   H     0.32297   0.32100   0.56273   0.00000  Uiso   1.00
H681   H     0.24731   0.30299   0.56906   0.00000  Uiso   1.00
H682   H     0.28258   0.31796   0.51412   0.00000  Uiso   1.00
N683   N     0.31678   0.15265   0.73783   0.00000  Uiso   1.00
N684   N     0.01656   0.18068   0.76217   0.00000  Uiso   1.00
O685   O     0.12975   0.24619   0.75298   0.00000  Uiso   1.00
O686   O     0.25463   0.22285   0.87936   0.00000  Uiso   1.00
O687   O     0.30139   0.24738   0.53979   0.00000  Uiso   1.00
O688   O     0.03194   0.08595   0.96021   0.00000  Uiso   1.00
O689   O     0.24441   0.00517   0.73022   0.00000  Uiso   1.00
O690   O     0.08892   0.32816   0.76978   0.00000  Uiso   1.00
O691   O     0.20358   0.08714   0.74701   0.00000  Uiso   1.00
O692   O     0.22613   0.23721   0.74518   0.00000  Uiso   1.00
O693   O     0.10720   0.09613   0.75481   0.00000  Uiso   1.00
O694   O     0.11847   0.17117   0.81997   0.00000  Uiso   1.00
O695   O     0.21486   0.16216   0.68002   0.00000  Uiso   1.00
O696   O     0.21485   0.16219   0.81217   0.00000  Uiso   1.00
O697   O     0.11848   0.17115   0.68782   0.00000  Uiso   1.00
O698   O     0.07870   0.11048   0.62064   0.00000  Uiso   1.00
Zn699  Zn    0.10231   0.17266   0.75521   0.00000  Uiso   1.00
Zn700  Zn    0.23102   0.16067   0.74479   0.00000  Uiso   1.00
C701   C     0.51500   0.26466   0.74857   0.00000  Uiso   1.00
C702   C     0.54537   0.19492   0.90489   0.00000  Uiso   1.00
C703   C     0.49913   0.16602   0.61578   0.00000  Uiso   1.00
C704   C     0.50087   0.16731   0.88422   0.00000  Uiso   1.00
C705   C     0.54443   0.19232   0.59122   0.00000  Uiso   1.00
C706   C     0.45557   0.14101   0.90878   0.00000  Uiso   1.00
C707   C     0.54518   0.19330   0.54486   0.00000  Uiso   1.00
C708   C     0.45482   0.14004   0.95514   0.00000  Uiso   1.00
C709   C     0.49977   0.16655   0.52336   0.00000  Uiso   1.00
C710   C     0.50023   0.16679   0.97664   0.00000  Uiso   1.00
C711   C     0.45376   0.13977   0.54859   0.00000  Uiso   1.00
C712   C     0.48500   0.06867   0.75143   0.00000  Uiso   1.00
C713   C     0.54624   0.19356   0.95141   0.00000  Uiso   1.00
C714   C     0.59014   0.22063   0.51960   0.00000  Uiso   1.00
C715   C     0.40986   0.11270   0.98040   0.00000  Uiso   1.00
C716   C     0.43117   0.06072   0.62651   0.00000  Uiso   1.00
C717   C     0.56883   0.27262   0.87349   0.00000  Uiso   1.00
C718   C     0.62070   0.29945   0.54645   0.00000  Uiso   1.00
C719   C     0.37930   0.03389   0.95355   0.00000  Uiso   1.00
C720   C     0.58568   0.00002   0.68311   0.00000  Uiso   1.00
C721   C     0.41432   0.33331   0.81689   0.00000  Uiso   1.00
C722   C     0.59156   0.21895   0.97318   0.00000  Uiso   1.00
C723   C     0.40844   0.11439   0.52682   0.00000  Uiso   1.00
C724   C     0.52271   0.31850   0.74425   0.00000  Uiso   1.00
C725   C     0.47729   0.01483   0.75575   0.00000  Uiso   1.00
C726   C     0.50039   0.16680   0.83647   0.00000  Uiso   1.00
C727   C     0.49961   0.16653   0.66353   0.00000  Uiso   1.00
C728   C     0.45463   0.13842   0.59511   0.00000  Uiso   1.00
F729   F     0.58754   0.21702   0.61309   0.00000  Uiso   1.00
F730   F     0.41246   0.11632   0.88691   0.00000  Uiso   1.00
F731   F     0.63785   0.24244   0.94988   0.00000  Uiso   1.00
F732   F     0.36215   0.09089   0.55011   0.00000  Uiso   1.00
F733   F     0.34329   0.11749   0.71127   0.00000  Uiso   1.00
F734   F     0.65671   0.21584   0.78873   0.00000  Uiso   1.00
H735   H     0.39640   0.03774   0.64564   0.00000  Uiso   1.00
H736   H     0.41935   0.03035   0.93094   0.00000  Uiso   1.00
H737   H     0.34369   0.01233   0.93727   0.00000  Uiso   1.00
H738   H     0.38408   0.01537   0.98588   0.00000  Uiso   1.00
H739   H     0.55179   0.01900   0.66666   0.00000  Uiso   1.00
H740   H     0.58684   0.29210   0.67202   0.00000  Uiso   1.00
H741   H     0.62778   0.01945   0.67181   0.00000  Uiso   1.00
H742   H     0.41316   0.04123   0.82798   0.00000  Uiso   1.00
H743   H     0.44821   0.31433   0.83334   0.00000  Uiso   1.00
H744   H     0.37222   0.31388   0.82819   0.00000  Uiso   1.00
H745   H     0.46960   0.06258   0.64624   0.00000  Uiso   1.00
H746   H     0.44072   0.03996   0.59382   0.00000  Uiso   1.00
H747   H     0.55928   0.29337   0.90618   0.00000  Uiso   1.00
H748   H     0.53040   0.27075   0.85376   0.00000  Uiso   1.00
H749   H     0.60360   0.29559   0.85436   0.00000  Uiso   1.00
H750   H     0.65631   0.32100   0.56273   0.00000  Uiso   1.00
H751   H     0.58065   0.30299   0.56906   0.00000  Uiso   1.00
H752   H     0.61592   0.31796   0.51412   0.00000  Uiso   1.00
N753   N     0.65011   0.15265   0.73783   0.00000  Uiso   1.00
N754   N     0.34989   0.18068   0.76217   0.00000  Uiso   1.00
O755   O     0.46308   0.24619   0.75298   0.00000  Uiso   1.00
O756   O     0.58797   0.22285   0.87936   0.00000  Uiso   1.00
O757   O     0.63473   0.24738   0.53979   0.00000  Uiso   1.00
O758   O     0.36527   0.08595   0.96021   0.00000  Uiso   1.00
O759   O     0.57774   0.00517   0.73022   0.00000  Uiso   1.00
O760   O     0.42226   0.32816   0.76978   0.00000  Uiso   1.00
O761   O     0.53692   0.08714   0.74701   0.00000  Uiso   1.00
O762   O     0.55946   0.23721   0.74518   0.00000  Uiso   1.00
O763   O     0.44054   0.09613   0.75481   0.00000  Uiso   1.00
O764   O     0.45181   0.17117   0.81997   0.00000  Uiso   1.00
O765   O     0.54819   0.16216   0.68002   0.00000  Uiso   1.00
O766   O     0.54819   0.16219   0.81217   0.00000  Uiso   1.00
O767   O     0.45181   0.17115   0.68782   0.00000  Uiso   1.00
O768   O     0.41203   0.11048   0.62064   0.00000  Uiso   1.00
Zn769  Zn    0.43565   0.17266   0.75521   0.00000  Uiso   1.00
Zn770  Zn    0.56435   0.16067   0.74479   0.00000  Uiso   1.00
C771   C     0.84833   0.26466   0.74857   0.00000  Uiso   1.00
C772   C     0.87870   0.19492   0.90489   0.00000  Uiso   1.00
C773   C     0.83247   0.16602   0.61578   0.00000  Uiso   1.00
C774   C     0.83420   0.16731   0.88422   0.00000  Uiso   1.00
C775   C     0.87777   0.19232   0.59122   0.00000  Uiso   1.00
C776   C     0.78890   0.14101   0.90878   0.00000  Uiso   1.00
C777   C     0.87851   0.19330   0.54486   0.00000  Uiso   1.00
C778   C     0.78815   0.14004   0.95514   0.00000  Uiso   1.00
C779   C     0.83311   0.16655   0.52336   0.00000  Uiso   1.00
C780   C     0.83356   0.16679   0.97664   0.00000  Uiso   1.00
C781   C     0.78710   0.13977   0.54859   0.00000  Uiso   1.00
C782   C     0.81834   0.06867   0.75143   0.00000  Uiso   1.00
C783   C     0.87957   0.19356   0.95141   0.00000  Uiso   1.00
C784   C     0.92348   0.22063   0.51960   0.00000  Uiso   1.00
C785   C     0.74319   0.11270   0.98040   0.00000  Uiso   1.00
C786   C     0.76450   0.06072   0.62651   0.00000  Uiso   1.00
C787   C     0.90217   0.27262   0.87349   0.00000  Uiso   1.00
C788   C     0.95404   0.29945   0.54645   0.00000  Uiso   1.00
C789   C     0.71263   0.03389   0.95355   0.00000  Uiso   1.00
C790   C     0.91901   0.00002   0.68311   0.00000  Uiso   1.00
C791   C     0.74765   0.33331   0.81689   0.00000  Uiso   1.00
C792   C     0.92490   0.21895   0.97318   0.00000  Uiso   1.00
C793   C     0.74177   0.11439   0.52682   0.00000  Uiso   1.00
C794   C     0.85605   0.31850   0.74425   0.00000  Uiso   1.00
C795   C     0.81062   0.01483   0.75575   0.00000  Uiso   1.00
C796   C     0.83372   0.16680   0.83647   0.00000  Uiso   1.00
C797   C     0.83294   0.16653   0.66353   0.00000  Uiso   1.00
C798   C     0.78797   0.13842   0.59511   0.00000  Uiso   1.00
F799   F     0.92087   0.21702   0.61309   0.00000  Uiso   1.00
F800   F     0.74580   0.11632   0.88691   0.00000  Uiso   1.00
F801   F     0.97118   0.24244   0.94988   0.00000  Uiso   1.00
F802   F     0.69548   0.09089   0.55011   0.00000  Uiso   1.00
F803   F     0.67662   0.11749   0.71127   0.00000  Uiso   1.00
F804   F     0.99005   0.21584   0.78873   0.00000  Uiso   1.00
H805   H     0.72973   0.03774   0.64564   0.00000  Uiso   1.00
H806   H     0.75269   0.03035   0.93094   0.00000  Uiso   1.00
H807   H     0.67703   0.01233   0.93727   0.00000  Uiso   1.00
H808   H     0.71742   0.01537   0.98588   0.00000  Uiso   1.00
H809   H     0.88512   0.01900   0.66666   0.00000  Uiso   1.00
H810   H     0.92017   0.29210   0.67202   0.00000  Uiso   1.00
H811   H     0.96111   0.01945   0.67181   0.00000  Uiso   1.00
H812   H     0.74649   0.04123   0.82798   0.00000  Uiso   1.00
H813   H     0.78155   0.31433   0.83334   0.00000  Uiso   1.00
H814   H     0.70555   0.31388   0.82819   0.00000  Uiso   1.00
H815   H     0.80293   0.06258   0.64624   0.00000  Uiso   1.00
H816   H     0.77405   0.03996   0.59382   0.00000  Uiso   1.00
H817   H     0.89262   0.29337   0.90618   0.00000  Uiso   1.00
H818   H     0.86374   0.27075   0.85376   0.00000  Uiso   1.00
H819   H     0.93693   0.29559   0.85436   0.00000  Uiso   1.00
H820   H     0.98964   0.32100   0.56273   0.00000  Uiso   1.00
H821   H     0.91398   0.30299   0.56906   0.00000  Uiso   1.00
H822   H     0.94925   0.31796   0.51412   0.00000  Uiso   1.00
N823   N     0.98344   0.15265   0.73783   0.00000  Uiso   1.00
N824   N     0.68322   0.18068   0.76217   0.00000  Uiso   1.00
O825   O     0.79642   0.24619   0.75298   0.00000  Uiso   1.00
O826   O     0.92130   0.22285   0.87936   0.00000  Uiso   1.00
O827   O     0.96806   0.24738   0.53979   0.00000  Uiso   1.00
O828   O     0.69861   0.08595   0.96021   0.00000  Uiso   1.00
O829   O     0.91108   0.00517   0.73022   0.00000  Uiso   1.00
O830   O     0.75559   0.32816   0.76978   0.00000  Uiso   1.00
O831   O     0.87025   0.08714   0.74701   0.00000  Uiso   1.00
O832   O     0.89280   0.23721   0.74518   0.00000  Uiso   1.00
O833   O     0.77387   0.09613   0.75481   0.00000  Uiso   1.00
O834   O     0.78514   0.17117   0.81997   0.00000  Uiso   1.00
O835   O     0.88153   0.16216   0.68002   0.00000  Uiso   1.00
O836   O     0.88152   0.16219   0.81217   0.00000  Uiso   1.00
O837   O     0.78515   0.17115   0.68782   0.00000  Uiso   1.00
O838   O     0.74537   0.11048   0.62064   0.00000  Uiso   1.00
Zn839  Zn    0.76898   0.17266   0.75521   0.00000  Uiso   1.00
Zn840  Zn    0.89769   0.16067   0.74479   0.00000  Uiso   1.00
C841   C     0.18166   0.59800   0.74857   0.00000  Uiso   1.00
C842   C     0.21203   0.52825   0.90489   0.00000  Uiso   1.00
C843   C     0.16580   0.49936   0.61578   0.00000  Uiso   1.00
C844   C     0.16753   0.50064   0.88422   0.00000  Uiso   1.00
C845   C     0.21110   0.52565   0.59122   0.00000  Uiso   1.00
C846   C     0.12223   0.47435   0.90878   0.00000  Uiso   1.00
C847   C     0.21185   0.52663   0.54486   0.00000  Uiso   1.00
C848   C     0.12149   0.47337   0.95514   0.00000  Uiso   1.00
C849   C     0.16644   0.49988   0.52336   0.00000  Uiso   1.00
C850   C     0.16689   0.50012   0.97664   0.00000  Uiso   1.00
C851   C     0.12043   0.47310   0.54859   0.00000  Uiso   1.00
C852   C     0.15167   0.40200   0.75143   0.00000  Uiso   1.00
C853   C     0.21290   0.52690   0.95141   0.00000  Uiso   1.00
C854   C     0.25681   0.55396   0.51960   0.00000  Uiso   1.00
C855   C     0.07652   0.44604   0.98040   0.00000  Uiso   1.00
C856   C     0.09783   0.39405   0.62651   0.00000  Uiso   1.00
C857   C     0.23550   0.60595   0.87349   0.00000  Uiso   1.00
C858   C     0.28737   0.63278   0.54645   0.00000  Uiso   1.00
C859   C     0.04596   0.36722   0.95355   0.00000  Uiso   1.00
C860   C     0.25235   0.33336   0.68311   0.00000  Uiso   1.00
C861   C     0.08099   0.66665   0.81689   0.00000  Uiso   1.00
C862   C     0.25823   0.55228   0.97318   0.00000  Uiso   1.00
C863   C     0.07510   0.44772   0.52682   0.00000  Uiso   1.00
C864   C     0.18938   0.65184   0.74425   0.00000  Uiso   1.00
C865   C     0.14395   0.34816   0.75575   0.00000  Uiso   1.00
C866   C     0.16706   0.50013   0.83647   0.00000  Uiso   1.00
C867   C     0.16628   0.49987   0.66353   0.00000  Uiso   1.00
C868   C     0.12130   0.47175   0.59511   0.00000  Uiso   1.00
F869   F     0.25420   0.55035   0.61309   0.00000  Uiso   1.00
F870   F     0.07913   0.44965   0.88691   0.00000  Uiso   1.00
F871   F     0.30452   0.57578   0.94988   0.00000  Uiso   1.00
F872   F     0.02882   0.42422   0.55011   0.00000  Uiso   1.00
F873   F     0.00995   0.45083   0.71127   0.00000  Uiso   1.00
F874   F     0.32338   0.54917   0.78873   0.00000  Uiso   1.00
H875   H     0.06307   0.37108   0.64564   0.00000  Uiso   1.00
H876   H     0.08602   0.36368   0.93094   0.00000  Uiso   1.00
H877   H     0.01036   0.34567   0.93727   0.00000  Uiso   1.00
H878   H     0.05075   0.34871   0.98588   0.00000  Uiso   1.00
H879   H     0.21845   0.35234   0.66666   0.00000  Uiso   1.00
H880   H     0.25351   0.62544   0.67202   0.00000  Uiso   1.00
H881   H     0.29445   0.35278   0.67181   0.00000  Uiso   1.00
H882   H     0.07982   0.37457   0.82798   0.00000  Uiso   1.00
H883   H     0.11488   0.64767   0.83334   0.00000  Uiso   1.00
H884   H     0.03889   0.64722   0.82819   0.00000  Uiso   1.00
H885   H     0.13626   0.39591   0.64624   0.00000  Uiso   1.00
H886   H     0.10738   0.37330   0.59382   0.00000  Uiso   1.00
H887   H     0.22595   0.62670   0.90618   0.00000  Uiso   1.00
H888   H     0.19707   0.60409   0.85376   0.00000  Uiso   1.00
H889   H     0.27027   0.62892   0.85436   0.00000  Uiso   1.00
H890   H     0.32297   0.65433   0.56273   0.00000  Uiso   1.00
H891   H     0.24731   0.63632   0.56906   0.00000  Uiso   1.00
H892   H     0.28258   0.65129   0.51412   0.00000  Uiso   1.00
N893   N     0.31678   0.48598   0.73783   0.00000  Uiso   1.00
N894   N     0.01656   0.51402   0.76217   0.00000  Uiso   1.00
O895   O     0.12975   0.57952   0.75298   0.00000  Uiso   1.00
O896   O     0.25463   0.55619   0.87936   0.00000  Uiso   1.00
O897   O     0.30139   0.58072   0.53979   0.00000  Uiso   1.00
O898   O     0.03194   0.41928   0.96021   0.00000  Uiso   1.00
O899   O     0.24441   0.33851   0.73022   0.00000  Uiso   1.00
O900   O     0.08892   0.66149   0.76978   0.00000  Uiso   1.00
O901   O     0.20358   0.42048   0.74701   0.00000  Uiso   1.00
O902   O     0.22613   0.57054   0.74518   0.00000  Uiso   1.00
O903   O     0.10720   0.42946   0.75481   0.00000  Uiso   1.00
O904   O     0.11847   0.50450   0.81997   0.00000  Uiso   1.00
O905   O     0.21486   0.49550   0.68002   0.00000  Uiso   1.00
O906   O     0.21485   0.49552   0.81217   0.00000  Uiso   1.00
O907   O     0.11848   0.50448   0.68782   0.00000  Uiso   1.00
O908   O     0.07870   0.44382   0.62064   0.00000  Uiso   1.00
Zn909  Zn    0.10231   0.50600   0.75521   0.00000  Uiso   1.00
Zn910  Zn    0.23102   0.49400   0.74479   0.00000  Uiso   1.00
C911   C     0.51500   0.59800   0.74857   0.00000  Uiso   1.00
C912   C     0.54537   0.52825   0.90489   0.00000  Uiso   1.00
C913   C     0.49913   0.49936   0.61578   0.00000  Uiso   1.00
C914   C     0.50087   0.50064   0.88422   0.00000  Uiso   1.00
C915   C     0.54443   0.52565   0.59122   0.00000  Uiso   1.00
C916   C     0.45557   0.47435   0.90878   0.00000  Uiso   1.00
C917   C     0.54518   0.52663   0.54486   0.00000  Uiso   1.00
C918   C     0.45482   0.47337   0.95514   0.00000  Uiso   1.00
C919   C     0.49977   0.49988   0.52336   0.00000  Uiso   1.00
C920   C     0.50023   0.50012   0.97664   0.00000  Uiso   1.00
C921   C     0.45376   0.47310   0.54859   0.00000  Uiso   1.00
C922   C     0.48500   0.40200   0.75143   0.00000  Uiso   1.00
C923   C     0.54624   0.52690   0.95141   0.00000  Uiso   1.00
C924   C     0.59014   0.55396   0.51960   0.00000  Uiso   1.00
C925   C     0.40986   0.44604   0.98040   0.00000  Uiso   1.00
C926   C     0.43117   0.39405   0.62651   0.00000  Uiso   1.00
C927   C     0.56883   0.60595   0.87349   0.00000  Uiso   1.00
C928   C     0.62070   0.63278   0.54645   0.00000  Uiso   1.00
C929   C     0.37930   0.36722   0.95355   0.00000  Uiso   1.00
C930   C     0.58568   0.33336   0.68311   0.00000  Uiso   1.00
C931   C     0.41432   0.66665   0.81689   0.00000  Uiso   1.00
C932   C     0.59156   0.55228   0.97318   0.00000  Uiso   1.00
C933   C     0.40844   0.44772   0.52682   0.00000  Uiso   1.00
C934   C     0.52271   0.65184   0.74425   0.00000  Uiso   1.00
C935   C     0.47729   0.34816   0.75575   0.00000  Uiso   1.00
C936   C     0.50039   0.50013   0.83647   0.00000  Uiso   1.00
C937   C     0.49961   0.49987   0.66353   0.00000  Uiso   1.00
C938   C     0.45463   0.47175   0.59511   0.00000  Uiso   1.00
F939   F     0.58754   0.55035   0.61309   0.00000  Uiso   1.00
F940   F     0.41246   0.44965   0.88691   0.00000  Uiso   1.00
F941   F     0.63785   0.57578   0.94988   0.00000  Uiso   1.00
F942   F     0.36215   0.42422   0.55011   0.00000  Uiso   1.00
F943   F     0.34329   0.45083   0.71127   0.00000  Uiso   1.00
F944   F     0.65671   0.54917   0.78873   0.00000  Uiso   1.00
H945   H     0.39640   0.37108   0.64564   0.00000  Uiso   1.00
H946   H     0.41935   0.36368   0.93094   0.00000  Uiso   1.00
H947   H     0.34369   0.34567   0.93727   0.00000  Uiso   1.00
H948   H     0.38408   0.34871   0.98588   0.00000  Uiso   1.00
H949   H     0.55179   0.35234   0.66666   0.00000  Uiso   1.00
H950   H     0.58684   0.62544   0.67202   0.00000  Uiso   1.00
H951   H     0.62778   0.35278   0.67181   0.00000  Uiso   1.00
H952   H     0.41316   0.37457   0.82798   0.00000  Uiso   1.00
H953   H     0.44821   0.64767   0.83334   0.00000  Uiso   1.00
H954   H     0.37222   0.64722   0.82819   0.00000  Uiso   1.00
H955   H     0.46960   0.39591   0.64624   0.00000  Uiso   1.00
H956   H     0.44072   0.37330   0.59382   0.00000  Uiso   1.00
H957   H     0.55928   0.62670   0.90618   0.00000  Uiso   1.00
H958   H     0.53040   0.60409   0.85376   0.00000  Uiso   1.00
H959   H     0.60360   0.62892   0.85436   0.00000  Uiso   1.00
H960   H     0.65631   0.65433   0.56273   0.00000  Uiso   1.00
H961   H     0.58065   0.63632   0.56906   0.00000  Uiso   1.00
H962   H     0.61592   0.65129   0.51412   0.00000  Uiso   1.00
N963   N     0.65011   0.48598   0.73783   0.00000  Uiso   1.00
N964   N     0.34989   0.51402   0.76217   0.00000  Uiso   1.00
O965   O     0.46308   0.57952   0.75298   0.00000  Uiso   1.00
O966   O     0.58797   0.55619   0.87936   0.00000  Uiso   1.00
O967   O     0.63473   0.58072   0.53979   0.00000  Uiso   1.00
O968   O     0.36527   0.41928   0.96021   0.00000  Uiso   1.00
O969   O     0.57774   0.33851   0.73022   0.00000  Uiso   1.00
O970   O     0.42226   0.66149   0.76978   0.00000  Uiso   1.00
O971   O     0.53692   0.42048   0.74701   0.00000  Uiso   1.00
O972   O     0.55946   0.57054   0.74518   0.00000  Uiso   1.00
O973   O     0.44054   0.42946   0.75481   0.00000  Uiso   1.00
O974   O     0.45181   0.50450   0.81997   0.00000  Uiso   1.00
O975   O     0.54819   0.49550   0.68002   0.00000  Uiso   1.00
O976   O     0.54819   0.49552   0.81217   0.00000  Uiso   1.00
O977   O     0.45181   0.50448   0.68782   0.00000  Uiso   1.00
O978   O     0.41203   0.44382   0.62064   0.00000  Uiso   1.00
Zn979  Zn    0.43565   0.50600   0.75521   0.00000  Uiso   1.00
Zn980  Zn    0.56435   0.49400   0.74479   0.00000  Uiso   1.00
C981   C     0.84833   0.59800   0.74857   0.00000  Uiso   1.00
C982   C     0.87870   0.52825   0.90489   0.00000  Uiso   1.00
C983   C     0.83247   0.49936   0.61578   0.00000  Uiso   1.00
C984   C     0.83420   0.50064   0.88422   0.00000  Uiso   1.00
C985   C     0.87777   0.52565   0.59122   0.00000  Uiso   1.00
C986   C     0.78890   0.47435   0.90878   0.00000  Uiso   1.00
C987   C     0.87851   0.52663   0.54486   0.00000  Uiso   1.00
C988   C     0.78815   0.47337   0.95514   0.00000  Uiso   1.00
C989   C     0.83311   0.49988   0.52336   0.00000  Uiso   1.00
C990   C     0.83356   0.50012   0.97664   0.00000  Uiso   1.00
C991   C     0.78710   0.47310   0.54859   0.00000  Uiso   1.00
C992   C     0.81834   0.40200   0.75143   0.00000  Uiso   1.00
C993   C     0.87957   0.52690   0.95141   0.00000  Uiso   1.00
C994   C     0.92348   0.55396   0.51960   0.00000  Uiso   1.00
C995   C     0.74319   0.44604   0.98040   0.00000  Uiso   1.00
C996   C     0.76450   0.39405   0.62651   0.00000  Uiso   1.00
C997   C     0.90217   0.60595   0.87349   0.00000  Uiso   1.00
C998   C     0.95404   0.63278   0.54645   0.00000  Uiso   1.00
C999   C     0.71263   0.36722   0.95355   0.00000  Uiso   1.00
C1000  C     0.91901   0.33336   0.68311   0.00000  Uiso   1.00
C1001  C     0.74765   0.66665   0.81689   0.00000  Uiso   1.00
C1002  C     0.92490   0.55228   0.97318   0.00000  Uiso   1.00
C1003  C     0.74177   0.44772   0.52682   0.00000  Uiso   1.00
C1004  C     0.85605   0.65184   0.74425   0.00000  Uiso   1.00
C1005  C     0.81062   0.34816   0.75575   0.00000  Uiso   1.00
C1006  C     0.83372   0.50013   0.83647   0.00000  Uiso   1.00
C1007  C     0.83294   0.49987   0.66353   0.00000  Uiso   1.00
C1008  C     0.78797   0.47175   0.59511   0.00000  Uiso   1.00
F1009  F     0.92087   0.55035   0.61309   0.00000  Uiso   1.00
F1010  F     0.74580   0.44965   0.88691   0.00000  Uiso   1.00
F1011  F     0.97118   0.57578   0.94988   0.00000  Uiso   1.00
F1012  F     0.69548   0.42422   0.55011   0.00000  Uiso   1.00
F1013  F     0.67662   0.45083   0.71127   0.00000  Uiso   1.00
F1014  F     0.99005   0.54917   0.78873   0.00000  Uiso   1.00
H1015  H     0.72973   0.37108   0.64564   0.00000  Uiso   1.00
H1016  H     0.75269   0.36368   0.93094   0.00000  Uiso   1.00
H1017  H     0.67703   0.34567   0.93727   0.00000  Uiso   1.00
H1018  H     0.71742   0.34871   0.98588   0.00000  Uiso   1.00
H1019  H     0.88512   0.35234   0.66666   0.00000  Uiso   1.00
H1020  H     0.92017   0.62544   0.67202   0.00000  Uiso   1.00
H1021  H     0.96111   0.35278   0.67181   0.00000  Uiso   1.00
H1022  H     0.74649   0.37457   0.82798   0.00000  Uiso   1.00
H1023  H     0.78155   0.64767   0.83334   0.00000  Uiso   1.00
H1024  H     0.70555   0.64722   0.82819   0.00000  Uiso   1.00
H1025  H     0.80293   0.39591   0.64624   0.00000  Uiso   1.00
H1026  H     0.77405   0.37330   0.59382   0.00000  Uiso   1.00
H1027  H     0.89262   0.62670   0.90618   0.00000  Uiso   1.00
H1028  H     0.86374   0.60409   0.85376   0.00000  Uiso   1.00
H1029  H     0.93693   0.62892   0.85436   0.00000  Uiso   1.00
H1030  H     0.98964   0.65433   0.56273   0.00000  Uiso   1.00
H1031  H     0.91398   0.63632   0.56906   0.00000  Uiso   1.00
H1032  H     0.94925   0.65129   0.51412   0.00000  Uiso   1.00
N1033  N     0.98344   0.48598   0.73783   0.00000  Uiso   1.00
N1034  N     0.68322   0.51402   0.76217   0.00000  Uiso   1.00
O1035  O     0.79642   0.57952   0.75298   0.00000  Uiso   1.00
O1036  O     0.92130   0.55619   0.87936   0.00000  Uiso   1.00
O1037  O     0.96806   0.58072   0.53979   0.00000  Uiso   1.00
O1038  O     0.69861   0.41928   0.96021   0.00000  Uiso   1.00
O1039  O     0.91108   0.33851   0.73022   0.00000  Uiso   1.00
O1040  O     0.75559   0.66149   0.76978   0.00000  Uiso   1.00
O1041  O     0.87025   0.42048   0.74701   0.00000  Uiso   1.00
O1042  O     0.89280   0.57054   0.74518   0.00000  Uiso   1.00
O1043  O     0.77387   0.42946   0.75481   0.00000  Uiso   1.00
O1044  O     0.78514   0.50450   0.81997   0.00000  Uiso   1.00
O1045  O     0.88153   0.49550   0.68002   0.00000  Uiso   1.00
O1046  O     0.88152   0.49552   0.81217   0.00000  Uiso   1.00
O1047  O     0.78515   0.50448   0.68782   0.00000  Uiso   1.00
O1048  O     0.74537   0.44382   0.62064   0.00000  Uiso   1.00
Zn1049 Zn    0.76898   0.50600   0.75521   0.00000  Uiso   1.00
Zn1050 Zn    0.89769   0.49400   0.74479   0.00000  Uiso   1.00
C1051  C     0.18166   0.93133   0.74857   0.00000  Uiso   1.00
C1052  C     0.21203   0.86158   0.90489   0.00000  Uiso   1.00
C1053  C     0.16580   0.83269   0.61578   0.00000  Uiso   1.00
C1054  C     0.16753   0.83398   0.88422   0.00000  Uiso   1.00
C1055  C     0.21110   0.85899   0.59122   0.00000  Uiso   1.00
C1056  C     0.12223   0.80768   0.90878   0.00000  Uiso   1.00
C1057  C     0.21185   0.85996   0.54486   0.00000  Uiso   1.00
C1058  C     0.12149   0.80670   0.95514   0.00000  Uiso   1.00
C1059  C     0.16644   0.83321   0.52336   0.00000  Uiso   1.00
C1060  C     0.16689   0.83345   0.97664   0.00000  Uiso   1.00
C1061  C     0.12043   0.80644   0.54859   0.00000  Uiso   1.00
C1062  C     0.15167   0.73534   0.75143   0.00000  Uiso   1.00
C1063  C     0.21290   0.86023   0.95141   0.00000  Uiso   1.00
C1064  C     0.25681   0.88730   0.51960   0.00000  Uiso   1.00
C1065  C     0.07652   0.77937   0.98040   0.00000  Uiso   1.00
C1066  C     0.09783   0.72738   0.62651   0.00000  Uiso   1.00
C1067  C     0.23550   0.93929   0.87349   0.00000  Uiso   1.00
C1068  C     0.28737   0.96611   0.54645   0.00000  Uiso   1.00
C1069  C     0.04596   0.70055   0.95355   0.00000  Uiso   1.00
C1070  C     0.25235   0.66669   0.68311   0.00000  Uiso   1.00
C1071  C     0.08099   0.99998   0.81689   0.00000  Uiso   1.00
C1072  C     0.25823   0.88561   0.97318   0.00000  Uiso   1.00
C1073  C     0.07510   0.78105   0.52682   0.00000  Uiso   1.00
C1074  C     0.18938   0.98517   0.74425   0.00000  Uiso   1.00
C1075  C     0.14395   0.68150   0.75575   0.00000  Uiso   1.00
C1076  C     0.16706   0.83347   0.83647   0.00000  Uiso   1.00
C1077  C     0.16628   0.83320   0.66353   0.00000  Uiso   1.00
C1078  C     0.12130   0.80508   0.59511   0.00000  Uiso   1.00
F1079  F     0.25420   0.88368   0.61309   0.00000  Uiso   1.00
F1080  F     0.07913   0.78298   0.88691   0.00000  Uiso   1.00
F1081  F     0.30452   0.90911   0.94988   0.00000  Uiso   1.00
F1082  F     0.02882   0.75756   0.55011   0.00000  Uiso   1.00
F1083  F     0.00995   0.78416   0.71127   0.00000  Uiso   1.00
F1084  F     0.32338   0.88251   0.78873   0.00000  Uiso   1.00
H1085  H     0.06307   0.70441   0.64564   0.00000  Uiso   1.00
H1086  H     0.08602   0.69701   0.93094   0.00000  Uiso   1.00
H1087  H     0.01036   0.67900   0.93727   0.00000  Uiso   1.00
H1088  H     0.05075   0.68204   0.98588   0.00000  Uiso   1.00
H1089  H     0.21845   0.68567   0.66666   0.00000  Uiso   1.00
H1090  H     0.25351   0.95877   0.67202   0.00000  Uiso   1.00
H1091  H     0.29445   0.68611   0.67181   0.00000  Uiso   1.00
H1092  H     0.07982   0.70790   0.82798   0.00000  Uiso   1.00
H1093  H     0.11488   0.98100   0.83334   0.00000  Uiso   1.00
H1094  H     0.03889   0.98055   0.82819   0.00000  Uiso   1.00
H1095  H     0.13626   0.72925   0.64624   0.00000  Uiso   1.00
H1096  H     0.10738   0.70663   0.59382   0.00000  Uiso   1.00
H1097  H     0.22595   0.96004   0.90618   0.00000  Uiso   1.00
H1098  H     0.19707   0.93742   0.85376   0.00000  Uiso   1.00
H1099  H     0.27027   0.96226   0.85436   0.00000  Uiso   1.00
H1100  H     0.32297   0.98767   0.56273   0.00000  Uiso   1.00
H1101  H     0.24731   0.96965   0.56906   0.00000  Uiso   1.00
H1102  H     0.28258   0.98463   0.51412   0.00000  Uiso   1.00
N1103  N     0.31678   0.81932   0.73783   0.00000  Uiso   1.00
N1104  N     0.01656   0.84735   0.76217   0.00000  Uiso   1.00
O1105  O     0.12975   0.91286   0.75298   0.00000  Uiso   1.00
O1106  O     0.25463   0.88952   0.87936   0.00000  Uiso   1.00
O1107  O     0.30139   0.91405   0.53979   0.00000  Uiso   1.00
O1108  O     0.03194   0.75262   0.96021   0.00000  Uiso   1.00
O1109  O     0.24441   0.67184   0.73022   0.00000  Uiso   1.00
O1110  O     0.08892   0.99483   0.76978   0.00000  Uiso   1.00
O1111  O     0.20358   0.75381   0.74701   0.00000  Uiso   1.00
O1112  O     0.22613   0.90387   0.74518   0.00000  Uiso   1.00
O1113  O     0.10720   0.76279   0.75481   0.00000  Uiso   1.00
O1114  O     0.11847   0.83784   0.81997   0.00000  Uiso   1.00
O1115  O     0.21486   0.82883   0.68002   0.00000  Uiso   1.00
O1116  O     0.21485   0.82885   0.81217   0.00000  Uiso   1.00
O1117  O     0.11848   0.83781   0.68782   0.00000  Uiso   1.00
O1118  O     0.07870   0.77715   0.62064   0.00000  Uiso   1.00
Zn1119 Zn    0.10231   0.83933   0.75521   0.00000  Uiso   1.00
Zn1120 Zn    0.23102   0.82734   0.74479   0.00000  Uiso   1.00
C1121  C     0.51500   0.93133   0.74857   0.00000  Uiso   1.00
C1122  C     0.54537   0.86158   0.90489   0.00000  Uiso   1.00
C1123  C     0.49913   0.83269   0.61578   0.00000  Uiso   1.00
C1124  C     0.50087   0.83398   0.88422   0.00000  Uiso   1.00
C1125  C     0.54443   0.85899   0.59122   0.00000  Uiso   1.00
C1126  C     0.45557   0.80768   0.90878   0.00000  Uiso   1.00
C1127  C     0.54518   0.85996   0.54486   0.00000  Uiso   1.00
C1128  C     0.45482   0.80670   0.95514   0.00000  Uiso   1.00
C1129  C     0.49977   0.83321   0.52336   0.00000  Uiso   1.00
C1130  C     0.50023   0.83345   0.97664   0.00000  Uiso   1.00
C1131  C     0.45376   0.80644   0.54859   0.00000  Uiso   1.00
C1132  C     0.48500   0.73534   0.75143   0.00000  Uiso   1.00
C1133  C     0.54624   0.86023   0.95141   0.00000  Uiso   1.00
C1134  C     0.59014   0.88730   0.51960   0.00000  Uiso   1.00
C1135  C     0.40986   0.77937   0.98040   0.00000  Uiso   1.00
C1136  C     0.43117   0.72738   0.62651   0.00000  Uiso   1.00
C1137  C     0.56883   0.93929   0.87349   0.00000  Uiso   1.00
C1138  C     0.62070   0.96611   0.54645   0.00000  Uiso   1.00
C1139  C     0.37930   0.70055   0.95355   0.00000  Uiso   1.00
C1140  C     0.58568   0.66669   0.68311   0.00000  Uiso   1.00
C1141  C     0.41432   0.99998   0.81689   0.00000  Uiso   1.00
C1142  C     0.59156   0.88561   0.97318   0.00000  Uiso   1.00
C1143  C     0.40844   0.78105   0.52682   0.00000  Uiso   1.00
C1144  C     0.52271   0.98517   0.74425   0.00000  Uiso   1.00
C1145  C     0.47729   0.68150   0.75575   0.00000  Uiso   1.00
C1146  C     0.50039   0.83347   0.83647   0.00000  Uiso   1.00
C1147  C     0.49961   0.83320   0.66353   0.00000  Uiso   1.00
C1148  C     0.45463   0.80508   0.59511   0.00000  Uiso   1.00
F1149  F     0.58754   0.88368   0.61309   0.00000  Uiso   1.00
F1150  F     0.41246   0.78298   0.88691   0.00000  Uiso   1.00
F1151  F     0.63785   0.90911   0.94988   0.00000  Uiso   1.00
F1152  F     0.36215   0.75756   0.55011   0.00000  Uiso   1.00
F1153  F     0.34329   0.78416   0.71127   0.00000  Uiso   1.00
F1154  F     0.65671   0.88251   0.78873   0.00000  Uiso   1.00
H1155  H     0.39640   0.70441   0.64564   0.00000  Uiso   1.00
H1156  H     0.41935   0.69701   0.93094   0.00000  Uiso   1.00
H1157  H     0.34369   0.67900   0.93727   0.00000  Uiso   1.00
H1158  H     0.38408   0.68204   0.98588   0.00000  Uiso   1.00
H1159  H     0.55179   0.68567   0.66666   0.00000  Uiso   1.00
H1160  H     0.58684   0.95877   0.67202   0.00000  Uiso   1.00
H1161  H     0.62778   0.68611   0.67181   0.00000  Uiso   1.00
H1162  H     0.41316   0.70790   0.82798   0.00000  Uiso   1.00
H1163  H     0.44821   0.98100   0.83334   0.00000  Uiso   1.00
H1164  H     0.37222   0.98055   0.82819   0.00000  Uiso   1.00
H1165  H     0.46960   0.72925   0.64624   0.00000  Uiso   1.00
H1166  H     0.44072   0.70663   0.59382   0.00000  Uiso   1.00
H1167  H     0.55928   0.96004   0.90618   0.00000  Uiso   1.00
H1168  H     0.53040   0.93742   0.85376   0.00000  Uiso   1.00
H1169  H     0.60360   0.96226   0.85436   0.00000  Uiso   1.00
H1170  H     0.65631   0.98767   0.56273   0.00000  Uiso   1.00
H1171  H     0.58065   0.96965   0.56906   0.00000  Uiso   1.00
H1172  H     0.61592   0.98463   0.51412   0.00000  Uiso   1.00
N1173  N     0.65011   0.81932   0.73783   0.00000  Uiso   1.00
N1174  N     0.34989   0.84735   0.76217   0.00000  Uiso   1.00
O1175  O     0.46308   0.91286   0.75298   0.00000  Uiso   1.00
O1176  O     0.58797   0.88952   0.87936   0.00000  Uiso   1.00
O1177  O     0.63473   0.91405   0.53979   0.00000  Uiso   1.00
O1178  O     0.36527   0.75262   0.96021   0.00000  Uiso   1.00
O1179  O     0.57774   0.67184   0.73022   0.00000  Uiso   1.00
O1180  O     0.42226   0.99483   0.76978   0.00000  Uiso   1.00
O1181  O     0.53692   0.75381   0.74701   0.00000  Uiso   1.00
O1182  O     0.55946   0.90387   0.74518   0.00000  Uiso   1.00
O1183  O     0.44054   0.76279   0.75481   0.00000  Uiso   1.00
O1184  O     0.45181   0.83784   0.81997   0.00000  Uiso   1.00
O1185  O     0.54819   0.82883   0.68002   0.00000  Uiso   1.00
O1186  O     0.54819   0.82885   0.81217   0.00000  Uiso   1.00
O1187  O     0.45181   0.83781   0.68782   0.00000  Uiso   1.00
O1188  O     0.41203   0.77715   0.62064   0.00000  Uiso   1.00
Zn1189 Zn    0.43565   0.83933   0.75521   0.00000  Uiso   1.00
Zn1190 Zn    0.56435   0.82734   0.74479   0.00000  Uiso   1.00
C1191  C     0.84833   0.93133   0.74857   0.00000  Uiso   1.00
C1192  C     0.87870   0.86158   0.90489   0.00000  Uiso   1.00
C1193  C     0.83247   0.83269   0.61578   0.00000  Uiso   1.00
C1194  C     0.83420   0.83398   0.88422   0.00000  Uiso   1.00
C1195  C     0.87777   0.85899   0.59122   0.00000  Uiso   1.00
C1196  C     0.78890   0.80768   0.90878   0.00000  Uiso   1.00
C1197  C     0.87851   0.85996   0.54486   0.00000  Uiso   1.00
C1198  C     0.78815   0.80670   0.95514   0.00000  Uiso   1.00
C1199  C     0.83311   0.83321   0.52336   0.00000  Uiso   1.00
C1200  C     0.83356   0.83345   0.97664   0.00000  Uiso   1.00
C1201  C     0.78710   0.80644   0.54859   0.00000  Uiso   1.00
C1202  C     0.81834   0.73534   0.75143   0.00000  Uiso   1.00
C1203  C     0.87957   0.86023   0.95141   0.00000  Uiso   1.00
C1204  C     0.92348   0.88730   0.51960   0.00000  Uiso   1.00
C1205  C     0.74319   0.77937   0.98040   0.00000  Uiso   1.00
C1206  C     0.76450   0.72738   0.62651   0.00000  Uiso   1.00
C1207  C     0.90217   0.93929   0.87349   0.00000  Uiso   1.00
C1208  C     0.95404   0.96611   0.54645   0.00000  Uiso   1.00
C1209  C     0.71263   0.70055   0.95355   0.00000  Uiso   1.00
C1210  C     0.91901   0.66669   0.68311   0.00000  Uiso   1.00
C1211  C     0.74765   0.99998   0.81689   0.00000  Uiso   1.00
C1212  C     0.92490   0.88561   0.97318   0.00000  Uiso   1.00
C1213  C     0.74177   0.78105   0.52682   0.00000  Uiso   1.00
C1214  C     0.85605   0.98517   0.74425   0.00000  Uiso   1.00
C1215  C     0.81062   0.68150   0.75575   0.00000  Uiso   1.00
C1216  C     0.83372   0.83347   0.83647   0.00000  Uiso   1.00
C1217  C     0.83294   0.83320   0.66353   0.00000  Uiso   1.00
C1218  C     0.78797   0.80508   0.59511   0.00000  Uiso   1.00
F1219  F     0.92087   0.88368   0.61309   0.00000  Uiso   1.00
F1220  F     0.74580   0.78298   0.88691   0.00000  Uiso   1.00
F1221  F     0.97118   0.90911   0.94988   0.00000  Uiso   1.00
F1222  F     0.69548   0.75756   0.55011   0.00000  Uiso   1.00
F1223  F     0.67662   0.78416   0.71127   0.00000  Uiso   1.00
F1224  F     0.99005   0.88251   0.78873   0.00000  Uiso   1.00
H1225  H     0.72973   0.70441   0.64564   0.00000  Uiso   1.00
H1226  H     0.75269   0.69701   0.93094   0.00000  Uiso   1.00
H1227  H     0.67703   0.67900   0.93727   0.00000  Uiso   1.00
H1228  H     0.71742   0.68204   0.98588   0.00000  Uiso   1.00
H1229  H     0.88512   0.68567   0.66666   0.00000  Uiso   1.00
H1230  H     0.92017   0.95877   0.67202   0.00000  Uiso   1.00
H1231  H     0.96111   0.68611   0.67181   0.00000  Uiso   1.00
H1232  H     0.74649   0.70790   0.82798   0.00000  Uiso   1.00
H1233  H     0.78155   0.98100   0.83334   0.00000  Uiso   1.00
H1234  H     0.70555   0.98055   0.82819   0.00000  Uiso   1.00
H1235  H     0.80293   0.72925   0.64624   0.00000  Uiso   1.00
H1236  H     0.77405   0.70663   0.59382   0.00000  Uiso   1.00
H1237  H     0.89262   0.96004   0.90618   0.00000  Uiso   1.00
H1238  H     0.86374   0.93742   0.85376   0.00000  Uiso   1.00
H1239  H     0.93693   0.96226   0.85436   0.00000  Uiso   1.00
H1240  H     0.98964   0.98767   0.56273   0.00000  Uiso   1.00
H1241  H     0.91398   0.96965   0.56906   0.00000  Uiso   1.00
H1242  H     0.94925   0.98463   0.51412   0.00000  Uiso   1.00
N1243  N     0.98344   0.81932   0.73783   0.00000  Uiso   1.00
N1244  N     0.68322   0.84735   0.76217   0.00000  Uiso   1.00
O1245  O     0.79642   0.91286   0.75298   0.00000  Uiso   1.00
O1246  O     0.92130   0.88952   0.87936   0.00000  Uiso   1.00
O1247  O     0.96806   0.91405   0.53979   0.00000  Uiso   1.00
O1248  O     0.69861   0.75262   0.96021   0.00000  Uiso   1.00
O1249  O     0.91108   0.67184   0.73022   0.00000  Uiso   1.00
O1250  O     0.75559   0.99483   0.76978   0.00000  Uiso   1.00
O1251  O     0.87025   0.75381   0.74701   0.00000  Uiso   1.00
O1252  O     0.89280   0.90387   0.74518   0.00000  Uiso   1.00
O1253  O     0.77387   0.76279   0.75481   0.00000  Uiso   1.00
O1254  O     0.78514   0.83784   0.81997   0.00000  Uiso   1.00
O1255  O     0.88153   0.82883   0.68002   0.00000  Uiso   1.00
O1256  O     0.88152   0.82885   0.81217   0.00000  Uiso   1.00
O1257  O     0.78515   0.83781   0.68782   0.00000  Uiso   1.00
O1258  O     0.74537   0.77715   0.62064   0.00000  Uiso   1.00
Zn1259 Zn    0.76898   0.83933   0.75521   0.00000  Uiso   1.00
Zn1260 Zn    0.89769   0.82734   0.74479   0.00000  Uiso   1.00
loop_
_geom_bond_atom_site_label_1
_geom_bond_atom_site_label_2
_geom_bond_distance
_geom_bond_site_symmetry_2
_ccdc_geom_bond_type
C1     O62     1.287   .     A
C1     O55     1.272   .     A
C1     C24     1.406   .     S
C2     C4      1.399   .     A
C2     O56     1.386   .     S
C2     C13     1.397   .     A
C3     C27     1.431   .     S
C3     C5      1.393   .     A
C3     C28     1.399   .     A
C4     C26     1.431   .     S
C4     C6      1.393   .     A
C5     C7      1.389   .     A
C5     F29     1.360   .     S
C6     F30     1.360   .     S
C6     C8      1.389   .     A
C7     C14     1.410   .     A
C7     C9      1.417   .     A
C8     C15     1.410   .     A
C8     C10     1.417   .     A
C9     C11     1.420   .     A
C9     C640    1.399   1_554 S
C10    C13     1.420   .     A
C10    C639    1.399   .     S
C11    C28     1.397   .     A
C11    C23     1.405   .     A
C12    C25     1.406   .     S
C12    O61     1.272   .     A
C12    O63     1.287   .     A
C13    C22     1.405   .     A
C14    O57     1.384   .     S
C14    C652    1.388   1_554 S
C15    O58     1.384   .     S
C15    C653    1.388   .     S
C16    H45     1.111   .     S
C16    O68     1.412   .     S
C16    H35     1.108   .     S
C16    H46     1.114   .     S
C17    H48     1.111   .     S
C17    O56     1.412   .     S
C17    H49     1.108   .     S
C17    H47     1.113   .     S
C18    O57     1.412   .     S
C18    H52     1.113   .     S
C18    H50     1.109   .     S
C18    H51     1.113   .     S
C19    O58     1.412   .     S
C19    H36     1.113   .     S
C19    H38     1.113   .     S
C19    H37     1.109   .     S
C20    H41     1.108   .     S
C20    O59     1.411   .     S
C20    H39     1.112   .     S
C20    H460    1.110   1_545 S
C21    H44     1.108   .     S
C21    O60     1.411   .     S
C21    H43     1.112   .     S
C21    H252    1.110   .     S
C22    F31     1.359   .     S
C22    C644    1.388   .     S
C23    F32     1.359   .     S
C23    C645    1.388   1_554 S
C24    C235    1.360   .     S
C24    O269    1.391   .     S
C25    C444    1.360   1_545 S
C25    O480    1.391   1_545 S
C26    O66     1.288   .     A
C26    O64     1.285   .     A
C27    O65     1.285   .     A
C27    O67     1.288   .     A
C28    O68     1.386   .     S
F33    N193    1.335   1_455 S
F34    N124    1.335   .     S
H40    C230    1.110   .     S
H42    C441    1.110   1_545 S
N53    Zn70    2.014   .     S
N53    F103    1.335   .     S
N53    N124    1.282   .     S
N54    Zn69    2.014   .     S
N54    N193    1.282   1_455 S
N54    F174    1.335   1_455 S
O55    Zn69    1.976   .     S
O59    C444    1.391   1_545 S
O60    C235    1.391   .     S
O61    Zn70    1.976   .     S
O62    Zn70    1.995   .     S
O63    Zn69    1.995   .     S
O64    Zn69    2.009   .     S
O65    Zn70    2.009   .     S
O66    Zn70    2.022   .     S
O67    Zn69    2.022   .     S
C71    O132    1.287   .     A
C71    O125    1.272   .     A
C71    C94     1.406   .     S
C72    C74     1.399   .     A
C72    O126    1.386   .     S
C72    C83     1.397   .     A
C73    C97     1.431   .     S
C73    C75     1.393   .     A
C73    C98     1.399   .     A
C74    C96     1.431   .     S
C74    C76     1.393   .     A
C75    C77     1.389   .     A
C75    F99     1.360   .     S
C76    F100    1.360   .     S
C76    C78     1.389   .     A
C77    C84     1.410   .     A
C77    C79     1.417   .     A
C78    C85     1.410   .     A
C78    C80     1.417   .     A
C79    C81     1.420   .     A
C79    C710    1.399   1_554 S
C80    C83     1.420   .     A
C80    C709    1.399   .     S
C81    C98     1.397   .     A
C81    C93     1.405   .     A
C82    C95     1.406   .     S
C82    O131    1.272   .     A
C82    O133    1.287   .     A
C83    C92     1.405   .     A
C84    O127    1.384   .     S
C84    C722    1.388   1_554 S
C85    O128    1.384   .     S
C85    C723    1.388   .     S
C86    H115    1.111   .     S
C86    O138    1.412   .     S
C86    H105    1.108   .     S
C86    H116    1.114   .     S
C87    H118    1.111   .     S
C87    O126    1.412   .     S
C87    H119    1.108   .     S
C87    H117    1.113   .     S
C88    O127    1.412   .     S
C88    H122    1.113   .     S
C88    H120    1.109   .     S
C88    H121    1.113   .     S
C89    O128    1.412   .     S
C89    H106    1.113   .     S
C89    H108    1.113   .     S
C89    H107    1.109   .     S
C90    H111    1.108   .     S
C90    O129    1.411   .     S
C90    H109    1.112   .     S
C90    H530    1.110   1_545 S
C91    H114    1.108   .     S
C91    O130    1.411   .     S
C91    H113    1.112   .     S
C91    H322    1.110   .     S
C92    F101    1.359   .     S
C92    C714    1.388   .     S
C93    F102    1.359   .     S
C93    C715    1.388   1_554 S
C94    C305    1.360   .     S
C94    O339    1.391   .     S
C95    C514    1.360   1_545 S
C95    O550    1.391   1_545 S
C96    O136    1.288   .     A
C96    O134    1.285   .     A
C97    O135    1.285   .     A
C97    O137    1.288   .     A
C98    O138    1.386   .     S
F104   N194    1.335   .     S
H110   C300    1.110   .     S
H112   C511    1.110   1_545 S
N123   Zn140   2.014   .     S
N123   F173    1.335   .     S
N123   N194    1.282   .     S
N124   Zn139   2.014   .     S
O125   Zn139   1.976   .     S
O129   C514    1.391   1_545 S
O130   C305    1.391   .     S
O131   Zn140   1.976   .     S
O132   Zn140   1.995   .     S
O133   Zn139   1.995   .     S
O134   Zn139   2.009   .     S
O135   Zn140   2.009   .     S
O136   Zn140   2.022   .     S
O137   Zn139   2.022   .     S
C141   O202    1.287   .     A
C141   O195    1.272   .     A
C141   C164    1.406   .     S
C142   C144    1.399   .     A
C142   O196    1.386   .     S
C142   C153    1.397   .     A
C143   C167    1.431   .     S
C143   C145    1.393   .     A
C143   C168    1.399   .     A
C144   C166    1.431   .     S
C144   C146    1.393   .     A
C145   C147    1.389   .     A
C145   F169    1.360   .     S
C146   F170    1.360   .     S
C146   C148    1.389   .     A
C147   C154    1.410   .     A
C147   C149    1.417   .     A
C148   C155    1.410   .     A
C148   C150    1.417   .     A
C149   C151    1.420   .     A
C149   C780    1.399   1_554 S
C150   C153    1.420   .     A
C150   C779    1.399   .     S
C151   C168    1.397   .     A
C151   C163    1.405   .     A
C152   C165    1.406   .     S
C152   O201    1.272   .     A
C152   O203    1.287   .     A
C153   C162    1.405   .     A
C154   O197    1.384   .     S
C154   C792    1.388   1_554 S
C155   O198    1.384   .     S
C155   C793    1.388   .     S
C156   H185    1.111   .     S
C156   O208    1.412   .     S
C156   H175    1.108   .     S
C156   H186    1.114   .     S
C157   H188    1.111   .     S
C157   O196    1.412   .     S
C157   H189    1.108   .     S
C157   H187    1.113   .     S
C158   O197    1.412   .     S
C158   H192    1.113   .     S
C158   H190    1.109   .     S
C158   H191    1.113   .     S
C159   O198    1.412   .     S
C159   H176    1.113   .     S
C159   H178    1.113   .     S
C159   H177    1.109   .     S
C160   H181    1.108   .     S
C160   O199    1.411   .     S
C160   H179    1.112   .     S
C160   H600    1.110   1_545 S
C161   H184    1.108   .     S
C161   O200    1.411   .     S
C161   H183    1.112   .     S
C161   H392    1.110   .     S
C162   F171    1.359   .     S
C162   C784    1.388   .     S
C163   F172    1.359   .     S
C163   C785    1.388   1_554 S
C164   C375    1.360   .     S
C164   O409    1.391   .     S
C165   C584    1.360   1_545 S
C165   O620    1.391   1_545 S
C166   O206    1.288   .     A
C166   O204    1.285   .     A
C167   O205    1.285   .     A
C167   O207    1.288   .     A
C168   O208    1.386   .     S
F174   N54     1.335   1_655 S
H180   C370    1.110   .     S
H182   C581    1.110   1_545 S
N193   Zn210   2.014   .     S
N193   F33     1.335   1_655 S
N193   N54     1.282   1_655 S
N194   Zn209   2.014   .     S
O195   Zn209   1.976   .     S
O199   C584    1.391   1_545 S
O200   C375    1.391   .     S
O201   Zn210   1.976   .     S
O202   Zn210   1.995   .     S
O203   Zn209   1.995   .     S
O204   Zn209   2.009   .     S
O205   Zn210   2.009   .     S
O206   Zn210   2.022   .     S
O207   Zn209   2.022   .     S
C211   O272    1.287   .     A
C211   O265    1.272   .     A
C211   C234    1.406   .     S
C212   C214    1.399   .     A
C212   O266    1.386   .     S
C212   C223    1.397   .     A
C213   C237    1.431   .     S
C213   C215    1.393   .     A
C213   C238    1.399   .     A
C214   C236    1.431   .     S
C214   C216    1.393   .     A
C215   C217    1.389   .     A
C215   F239    1.360   .     S
C216   F240    1.360   .     S
C216   C218    1.389   .     A
C217   C224    1.410   .     A
C217   C219    1.417   .     A
C218   C225    1.410   .     A
C218   C220    1.417   .     A
C219   C221    1.420   .     A
C219   C850    1.399   1_554 S
C220   C223    1.420   .     A
C220   C849    1.399   .     S
C221   C238    1.397   .     A
C221   C233    1.405   .     A
C222   C235    1.406   .     S
C222   O271    1.272   .     A
C222   O273    1.287   .     A
C223   C232    1.405   .     A
C224   O267    1.384   .     S
C224   C862    1.388   1_554 S
C225   O268    1.384   .     S
C225   C863    1.388   .     S
C226   H255    1.111   .     S
C226   O278    1.412   .     S
C226   H245    1.108   .     S
C226   H256    1.114   .     S
C227   H258    1.111   .     S
C227   O266    1.412   .     S
C227   H259    1.108   .     S
C227   H257    1.113   .     S
C228   O267    1.412   .     S
C228   H262    1.113   .     S
C228   H260    1.109   .     S
C228   H261    1.113   .     S
C229   O268    1.412   .     S
C229   H246    1.113   .     S
C229   H248    1.113   .     S
C229   H247    1.109   .     S
C230   H251    1.108   .     S
C230   O269    1.411   .     S
C230   H249    1.112   .     S
C231   H254    1.108   .     S
C231   O270    1.411   .     S
C231   H253    1.112   .     S
C231   H462    1.110   .     S
C232   F241    1.359   .     S
C232   C854    1.388   .     S
C233   F242    1.359   .     S
C233   C855    1.388   1_554 S
C234   C445    1.360   .     S
C234   O479    1.391   .     S
C236   O276    1.288   .     A
C236   O274    1.285   .     A
C237   O275    1.285   .     A
C237   O277    1.288   .     A
C238   O278    1.386   .     S
F243   N403    1.335   1_455 S
F244   N334    1.335   .     S
H250   C440    1.110   .     S
N263   Zn280   2.014   .     S
N263   F313    1.335   .     S
N263   N334    1.282   .     S
N264   Zn279   2.014   .     S
N264   N403    1.282   1_455 S
N264   F384    1.335   1_455 S
O265   Zn279   1.976   .     S
O270   C445    1.391   .     S
O271   Zn280   1.976   .     S
O272   Zn280   1.995   .     S
O273   Zn279   1.995   .     S
O274   Zn279   2.009   .     S
O275   Zn280   2.009   .     S
O276   Zn280   2.022   .     S
O277   Zn279   2.022   .     S
C281   O342    1.287   .     A
C281   O335    1.272   .     A
C281   C304    1.406   .     S
C282   C284    1.399   .     A
C282   O336    1.386   .     S
C282   C293    1.397   .     A
C283   C307    1.431   .     S
C283   C285    1.393   .     A
C283   C308    1.399   .     A
C284   C306    1.431   .     S
C284   C286    1.393   .     A
C285   C287    1.389   .     A
C285   F309    1.360   .     S
C286   F310    1.360   .     S
C286   C288    1.389   .     A
C287   C294    1.410   .     A
C287   C289    1.417   .     A
C288   C295    1.410   .     A
C288   C290    1.417   .     A
C289   C291    1.420   .     A
C289   C920    1.399   1_554 S
C290   C293    1.420   .     A
C290   C919    1.399   .     S
C291   C308    1.397   .     A
C291   C303    1.405   .     A
C292   C305    1.406   .     S
C292   O341    1.272   .     A
C292   O343    1.287   .     A
C293   C302    1.405   .     A
C294   O337    1.384   .     S
C294   C932    1.388   1_554 S
C295   O338    1.384   .     S
C295   C933    1.388   .     S
C296   H325    1.111   .     S
C296   O348    1.412   .     S
C296   H315    1.108   .     S
C296   H326    1.114   .     S
C297   H328    1.111   .     S
C297   O336    1.412   .     S
C297   H329    1.108   .     S
C297   H327    1.113   .     S
C298   O337    1.412   .     S
C298   H332    1.113   .     S
C298   H330    1.109   .     S
C298   H331    1.113   .     S
C299   O338    1.412   .     S
C299   H316    1.113   .     S
C299   H318    1.113   .     S
C299   H317    1.109   .     S
C300   H321    1.108   .     S
C300   O339    1.411   .     S
C300   H319    1.112   .     S
C301   H324    1.108   .     S
C301   O340    1.411   .     S
C301   H323    1.112   .     S
C301   H532    1.110   .     S
C302   F311    1.359   .     S
C302   C924    1.388   .     S
C303   F312    1.359   .     S
C303   C925    1.388   1_554 S
C304   C515    1.360   .     S
C304   O549    1.391   .     S
C306   O346    1.288   .     A
C306   O344    1.285   .     A
C307   O345    1.285   .     A
C307   O347    1.288   .     A
C308   O348    1.386   .     S
F314   N404    1.335   .     S
H320   C510    1.110   .     S
N333   Zn350   2.014   .     S
N333   F383    1.335   .     S
N333   N404    1.282   .     S
N334   Zn349   2.014   .     S
O335   Zn349   1.976   .     S
O340   C515    1.391   .     S
O341   Zn350   1.976   .     S
O342   Zn350   1.995   .     S
O343   Zn349   1.995   .     S
O344   Zn349   2.009   .     S
O345   Zn350   2.009   .     S
O346   Zn350   2.022   .     S
O347   Zn349   2.022   .     S
C351   O412    1.287   .     A
C351   O405    1.272   .     A
C351   C374    1.406   .     S
C352   C354    1.399   .     A
C352   O406    1.386   .     S
C352   C363    1.397   .     A
C353   C377    1.431   .     S
C353   C355    1.393   .     A
C353   C378    1.399   .     A
C354   C376    1.431   .     S
C354   C356    1.393   .     A
C355   C357    1.389   .     A
C355   F379    1.360   .     S
C356   F380    1.360   .     S
C356   C358    1.389   .     A
C357   C364    1.410   .     A
C357   C359    1.417   .     A
C358   C365    1.410   .     A
C358   C360    1.417   .     A
C359   C361    1.420   .     A
C359   C990    1.399   1_554 S
C360   C363    1.420   .     A
C360   C989    1.399   .     S
C361   C378    1.397   .     A
C361   C373    1.405   .     A
C362   C375    1.406   .     S
C362   O411    1.272   .     A
C362   O413    1.287   .     A
C363   C372    1.405   .     A
C364   O407    1.384   .     S
C364   C1002   1.388   1_554 S
C365   O408    1.384   .     S
C365   C1003   1.388   .     S
C366   H395    1.111   .     S
C366   O418    1.412   .     S
C366   H385    1.108   .     S
C366   H396    1.114   .     S
C367   H398    1.111   .     S
C367   O406    1.412   .     S
C367   H399    1.108   .     S
C367   H397    1.113   .     S
C368   O407    1.412   .     S
C368   H402    1.113   .     S
C368   H400    1.109   .     S
C368   H401    1.113   .     S
C369   O408    1.412   .     S
C369   H386    1.113   .     S
C369   H388    1.113   .     S
C369   H387    1.109   .     S
C370   H391    1.108   .     S
C370   O409    1.411   .     S
C370   H389    1.112   .     S
C371   H394    1.108   .     S
C371   O410    1.411   .     S
C371   H393    1.112   .     S
C371   H602    1.110   .     S
C372   F381    1.359   .     S
C372   C994    1.388   .     S
C373   F382    1.359   .     S
C373   C995    1.388   1_554 S
C374   C585    1.360   .     S
C374   O619    1.391   .     S
C376   O416    1.288   .     A
C376   O414    1.285   .     A
C377   O415    1.285   .     A
C377   O417    1.288   .     A
C378   O418    1.386   .     S
F384   N264    1.335   1_655 S
H390   C580    1.110   .     S
N403   Zn420   2.014   .     S
N403   F243    1.335   1_655 S
N403   N264    1.282   1_655 S
N404   Zn419   2.014   .     S
O405   Zn419   1.976   .     S
O410   C585    1.391   .     S
O411   Zn420   1.976   .     S
O412   Zn420   1.995   .     S
O413   Zn419   1.995   .     S
O414   Zn419   2.009   .     S
O415   Zn420   2.009   .     S
O416   Zn420   2.022   .     S
O417   Zn419   2.022   .     S
C421   O482    1.287   .     A
C421   O475    1.272   .     A
C421   C444    1.406   .     S
C422   C424    1.399   .     A
C422   O476    1.386   .     S
C422   C433    1.397   .     A
C423   C447    1.431   .     S
C423   C425    1.393   .     A
C423   C448    1.399   .     A
C424   C446    1.431   .     S
C424   C426    1.393   .     A
C425   C427    1.389   .     A
C425   F449    1.360   .     S
C426   F450    1.360   .     S
C426   C428    1.389   .     A
C427   C434    1.410   .     A
C427   C429    1.417   .     A
C428   C435    1.410   .     A
C428   C430    1.417   .     A
C429   C431    1.420   .     A
C429   C1060   1.399   1_554 S
C430   C433    1.420   .     A
C430   C1059   1.399   .     S
C431   C448    1.397   .     A
C431   C443    1.405   .     A
C432   C445    1.406   .     S
C432   O481    1.272   .     A
C432   O483    1.287   .     A
C433   C442    1.405   .     A
C434   O477    1.384   .     S
C434   C1072   1.388   1_554 S
C435   O478    1.384   .     S
C435   C1073   1.388   .     S
C436   H465    1.111   .     S
C436   O488    1.412   .     S
C436   H455    1.108   .     S
C436   H466    1.114   .     S
C437   H468    1.111   .     S
C437   O476    1.412   .     S
C437   H469    1.108   .     S
C437   H467    1.113   .     S
C438   O477    1.412   .     S
C438   H472    1.113   .     S
C438   H470    1.109   .     S
C438   H471    1.113   .     S
C439   O478    1.412   .     S
C439   H456    1.113   .     S
C439   H458    1.113   .     S
C439   H457    1.109   .     S
C440   H461    1.108   .     S
C440   O479    1.411   .     S
C440   H459    1.112   .     S
C441   H464    1.108   .     S
C441   O480    1.411   .     S
C441   H463    1.112   .     S
C441   H42     1.110   1_565 S
C442   F451    1.359   .     S
C442   C1064   1.388   .     S
C443   F452    1.359   .     S
C443   C1065   1.388   1_554 S
C444   C25     1.360   1_565 S
C444   O59     1.391   1_565 S
C446   O486    1.288   .     A
C446   O484    1.285   .     A
C447   O485    1.285   .     A
C447   O487    1.288   .     A
C448   O488    1.386   .     S
F453   N613    1.335   1_455 S
F454   N544    1.335   .     S
H460   C20     1.110   1_565 S
N473   Zn490   2.014   .     S
N473   F523    1.335   .     S
N473   N544    1.282   .     S
N474   Zn489   2.014   .     S
N474   N613    1.282   1_455 S
N474   F594    1.335   1_455 S
O475   Zn489   1.976   .     S
O480   C25     1.391   1_565 S
O481   Zn490   1.976   .     S
O482   Zn490   1.995   .     S
O483   Zn489   1.995   .     S
O484   Zn489   2.009   .     S
O485   Zn490   2.009   .     S
O486   Zn490   2.022   .     S
O487   Zn489   2.022   .     S
C491   O552    1.287   .     A
C491   O545    1.272   .     A
C491   C514    1.406   .     S
C492   C494    1.399   .     A
C492   O546    1.386   .     S
C492   C503    1.397   .     A
C493   C517    1.431   .     S
C493   C495    1.393   .     A
C493   C518    1.399   .     A
C494   C516    1.431   .     S
C494   C496    1.393   .     A
C495   C497    1.389   .     A
C495   F519    1.360   .     S
C496   F520    1.360   .     S
C496   C498    1.389   .     A
C497   C504    1.410   .     A
C497   C499    1.417   .     A
C498   C505    1.410   .     A
C498   C500    1.417   .     A
C499   C501    1.420   .     A
C499   C1130   1.399   1_554 S
C500   C503    1.420   .     A
C500   C1129   1.399   .     S
C501   C518    1.397   .     A
C501   C513    1.405   .     A
C502   C515    1.406   .     S
C502   O551    1.272   .     A
C502   O553    1.287   .     A
C503   C512    1.405   .     A
C504   O547    1.384   .     S
C504   C1142   1.388   1_554 S
C505   O548    1.384   .     S
C505   C1143   1.388   .     S
C506   H535    1.111   .     S
C506   O558    1.412   .     S
C506   H525    1.108   .     S
C506   H536    1.114   .     S
C507   H538    1.111   .     S
C507   O546    1.412   .     S
C507   H539    1.108   .     S
C507   H537    1.113   .     S
C508   O547    1.412   .     S
C508   H542    1.113   .     S
C508   H540    1.109   .     S
C508   H541    1.113   .     S
C509   O548    1.412   .     S
C509   H526    1.113   .     S
C509   H528    1.113   .     S
C509   H527    1.109   .     S
C510   H531    1.108   .     S
C510   O549    1.411   .     S
C510   H529    1.112   .     S
C511   H534    1.108   .     S
C511   O550    1.411   .     S
C511   H533    1.112   .     S
C511   H112    1.110   1_565 S
C512   F521    1.359   .     S
C512   C1134   1.388   .     S
C513   F522    1.359   .     S
C513   C1135   1.388   1_554 S
C514   C95     1.360   1_565 S
C514   O129    1.391   1_565 S
C516   O556    1.288   .     A
C516   O554    1.285   .     A
C517   O555    1.285   .     A
C517   O557    1.288   .     A
C518   O558    1.386   .     S
F524   N614    1.335   .     S
H530   C90     1.110   1_565 S
N543   Zn560   2.014   .     S
N543   F593    1.335   .     S
N543   N614    1.282   .     S
N544   Zn559   2.014   .     S
O545   Zn559   1.976   .     S
O550   C95     1.391   1_565 S
O551   Zn560   1.976   .     S
O552   Zn560   1.995   .     S
O553   Zn559   1.995   .     S
O554   Zn559   2.009   .     S
O555   Zn560   2.009   .     S
O556   Zn560   2.022   .     S
O557   Zn559   2.022   .     S
C561   O622    1.287   .     A
C561   O615    1.272   .     A
C561   C584    1.406   .     S
C562   C564    1.399   .     A
C562   O616    1.386   .     S
C562   C573    1.397   .     A
C563   C587    1.431   .     S
C563   C565    1.393   .     A
C563   C588    1.399   .     A
C564   C586    1.431   .     S
C564   C566    1.393   .     A
C565   C567    1.389   .     A
C565   F589    1.360   .     S
C566   F590    1.360   .     S
C566   C568    1.389   .     A
C567   C574    1.410   .     A
C567   C569    1.417   .     A
C568   C575    1.410   .     A
C568   C570    1.417   .     A
C569   C571    1.420   .     A
C569   C1200   1.399   1_554 S
C570   C573    1.420   .     A
C570   C1199   1.399   .     S
C571   C588    1.397   .     A
C571   C583    1.405   .     A
C572   C585    1.406   .     S
C572   O621    1.272   .     A
C572   O623    1.287   .     A
C573   C582    1.405   .     A
C574   O617    1.384   .     S
C574   C1212   1.388   1_554 S
C575   O618    1.384   .     S
C575   C1213   1.388   .     S
C576   H605    1.111   .     S
C576   O628    1.412   .     S
C576   H595    1.108   .     S
C576   H606    1.114   .     S
C577   H608    1.111   .     S
C577   O616    1.412   .     S
C577   H609    1.108   .     S
C577   H607    1.113   .     S
C578   O617    1.412   .     S
C578   H612    1.113   .     S
C578   H610    1.109   .     S
C578   H611    1.113   .     S
C579   O618    1.412   .     S
C579   H596    1.113   .     S
C579   H598    1.113   .     S
C579   H597    1.109   .     S
C580   H601    1.108   .     S
C580   O619    1.411   .     S
C580   H599    1.112   .     S
C581   H604    1.108   .     S
C581   O620    1.411   .     S
C581   H603    1.112   .     S
C581   H182    1.110   1_565 S
C582   F591    1.359   .     S
C582   C1204   1.388   .     S
C583   F592    1.359   .     S
C583   C1205   1.388   1_554 S
C584   C165    1.360   1_565 S
C584   O199    1.391   1_565 S
C586   O626    1.288   .     A
C586   O624    1.285   .     A
C587   O625    1.285   .     A
C587   O627    1.288   .     A
C588   O628    1.386   .     S
F594   N474    1.335   1_655 S
H600   C160    1.110   1_565 S
N613   Zn630   2.014   .     S
N613   F453    1.335   1_655 S
N613   N474    1.282   1_655 S
N614   Zn629   2.014   .     S
O615   Zn629   1.976   .     S
O620   C165    1.391   1_565 S
O621   Zn630   1.976   .     S
O622   Zn630   1.995   .     S
O623   Zn629   1.995   .     S
O624   Zn629   2.009   .     S
O625   Zn630   2.009   .     S
O626   Zn630   2.022   .     S
O627   Zn629   2.022   .     S
C631   O692    1.287   .     A
C631   O685    1.272   .     A
C631   C654    1.406   .     S
C632   C634    1.399   .     A
C632   O686    1.386   .     S
C632   C643    1.397   .     A
C633   C657    1.431   .     S
C633   C635    1.393   .     A
C633   C658    1.399   .     A
C634   C656    1.431   .     S
C634   C636    1.393   .     A
C635   C637    1.389   .     A
C635   F659    1.360   .     S
C636   F660    1.360   .     S
C636   C638    1.389   .     A
C637   C644    1.410   .     A
C637   C639    1.417   .     A
C638   C645    1.410   .     A
C638   C640    1.417   .     A
C639   C641    1.420   .     A
C640   C643    1.420   .     A
C640   C9      1.399   1_556 S
C641   C658    1.397   .     A
C641   C653    1.405   .     A
C642   C655    1.406   .     S
C642   O691    1.272   .     A
C642   O693    1.287   .     A
C643   C652    1.405   .     A
C644   O687    1.384   .     S
C645   O688    1.384   .     S
C645   C23     1.388   1_556 S
C646   H675    1.111   .     S
C646   O698    1.412   .     S
C646   H665    1.108   .     S
C646   H676    1.114   .     S
C647   H678    1.111   .     S
C647   O686    1.412   .     S
C647   H679    1.108   .     S
C647   H677    1.113   .     S
C648   O687    1.412   .     S
C648   H682    1.113   .     S
C648   H680    1.109   .     S
C648   H681    1.113   .     S
C649   O688    1.412   .     S
C649   H666    1.113   .     S
C649   H668    1.113   .     S
C649   H667    1.109   .     S
C650   H671    1.108   .     S
C650   O689    1.411   .     S
C650   H669    1.112   .     S
C650   H1090   1.110   1_545 S
C651   H674    1.108   .     S
C651   O690    1.411   .     S
C651   H673    1.112   .     S
C651   H882    1.110   .     S
C652   F661    1.359   .     S
C652   C14     1.388   1_556 S
C653   F662    1.359   .     S
C654   C865    1.360   .     S
C654   O899    1.391   .     S
C655   C1074   1.360   1_545 S
C655   O1110   1.391   1_545 S
C656   O696    1.288   .     A
C656   O694    1.285   .     A
C657   O695    1.285   .     A
C657   O697    1.288   .     A
C658   O698    1.386   .     S
F663   N823    1.335   1_455 S
F664   N754    1.335   .     S
H670   C860    1.110   .     S
H672   C1071   1.110   1_545 S
N683   Zn700   2.014   .     S
N683   F733    1.335   .     S
N683   N754    1.282   .     S
N684   Zn699   2.014   .     S
N684   N823    1.282   1_455 S
N684   F804    1.335   1_455 S
O685   Zn699   1.976   .     S
O689   C1074   1.391   1_545 S
O690   C865    1.391   .     S
O691   Zn700   1.976   .     S
O692   Zn700   1.995   .     S
O693   Zn699   1.995   .     S
O694   Zn699   2.009   .     S
O695   Zn700   2.009   .     S
O696   Zn700   2.022   .     S
O697   Zn699   2.022   .     S
C701   O762    1.287   .     A
C701   O755    1.272   .     A
C701   C724    1.406   .     S
C702   C704    1.399   .     A
C702   O756    1.386   .     S
C702   C713    1.397   .     A
C703   C727    1.431   .     S
C703   C705    1.393   .     A
C703   C728    1.399   .     A
C704   C726    1.431   .     S
C704   C706    1.393   .     A
C705   C707    1.389   .     A
C705   F729    1.360   .     S
C706   F730    1.360   .     S
C706   C708    1.389   .     A
C707   C714    1.410   .     A
C707   C709    1.417   .     A
C708   C715    1.410   .     A
C708   C710    1.417   .     A
C709   C711    1.420   .     A
C710   C713    1.420   .     A
C710   C79     1.399   1_556 S
C711   C728    1.397   .     A
C711   C723    1.405   .     A
C712   C725    1.406   .     S
C712   O761    1.272   .     A
C712   O763    1.287   .     A
C713   C722    1.405   .     A
C714   O757    1.384   .     S
C715   O758    1.384   .     S
C715   C93     1.388   1_556 S
C716   H745    1.111   .     S
C716   O768    1.412   .     S
C716   H735    1.108   .     S
C716   H746    1.114   .     S
C717   H748    1.111   .     S
C717   O756    1.412   .     S
C717   H749    1.108   .     S
C717   H747    1.113   .     S
C718   O757    1.412   .     S
C718   H752    1.113   .     S
C718   H750    1.109   .     S
C718   H751    1.113   .     S
C719   O758    1.412   .     S
C719   H736    1.113   .     S
C719   H738    1.113   .     S
C719   H737    1.109   .     S
C720   H741    1.108   .     S
C720   O759    1.411   .     S
C720   H739    1.112   .     S
C720   H1160   1.110   1_545 S
C721   H744    1.108   .     S
C721   O760    1.411   .     S
C721   H743    1.112   .     S
C721   H952    1.110   .     S
C722   F731    1.359   .     S
C722   C84     1.388   1_556 S
C723   F732    1.359   .     S
C724   C935    1.360   .     S
C724   O969    1.391   .     S
C725   C1144   1.360   1_545 S
C725   O1180   1.391   1_545 S
C726   O766    1.288   .     A
C726   O764    1.285   .     A
C727   O765    1.285   .     A
C727   O767    1.288   .     A
C728   O768    1.386   .     S
F734   N824    1.335   .     S
H740   C930    1.110   .     S
H742   C1141   1.110   1_545 S
N753   Zn770   2.014   .     S
N753   F803    1.335   .     S
N753   N824    1.282   .     S
N754   Zn769   2.014   .     S
O755   Zn769   1.976   .     S
O759   C1144   1.391   1_545 S
O760   C935    1.391   .     S
O761   Zn770   1.976   .     S
O762   Zn770   1.995   .     S
O763   Zn769   1.995   .     S
O764   Zn769   2.009   .     S
O765   Zn770   2.009   .     S
O766   Zn770   2.022   .     S
O767   Zn769   2.022   .     S
C771   O832    1.287   .     A
C771   O825    1.272   .     A
C771   C794    1.406   .     S
C772   C774    1.399   .     A
C772   O826    1.386   .     S
C772   C783    1.397   .     A
C773   C797    1.431   .     S
C773   C775    1.393   .     A
C773   C798    1.399   .     A
C774   C796    1.431   .     S
C774   C776    1.393   .     A
C775   C777    1.389   .     A
C775   F799    1.360   .     S
C776   F800    1.360   .     S
C776   C778    1.389   .     A
C777   C784    1.410   .     A
C777   C779    1.417   .     A
C778   C785    1.410   .     A
C778   C780    1.417   .     A
C779   C781    1.420   .     A
C780   C783    1.420   .     A
C780   C149    1.399   1_556 S
C781   C798    1.397   .     A
C781   C793    1.405   .     A
C782   C795    1.406   .     S
C782   O831    1.272   .     A
C782   O833    1.287   .     A
C783   C792    1.405   .     A
C784   O827    1.384   .     S
C785   O828    1.384   .     S
C785   C163    1.388   1_556 S
C786   H815    1.111   .     S
C786   O838    1.412   .     S
C786   H805    1.108   .     S
C786   H816    1.114   .     S
C787   H818    1.111   .     S
C787   O826    1.412   .     S
C787   H819    1.108   .     S
C787   H817    1.113   .     S
C788   O827    1.412   .     S
C788   H822    1.113   .     S
C788   H820    1.109   .     S
C788   H821    1.113   .     S
C789   O828    1.412   .     S
C789   H806    1.113   .     S
C789   H808    1.113   .     S
C789   H807    1.109   .     S
C790   H811    1.108   .     S
C790   O829    1.411   .     S
C790   H809    1.112   .     S
C790   H1230   1.110   1_545 S
C791   H814    1.108   .     S
C791   O830    1.411   .     S
C791   H813    1.112   .     S
C791   H1022   1.110   .     S
C792   F801    1.359   .     S
C792   C154    1.388   1_556 S
C793   F802    1.359   .     S
C794   C1005   1.360   .     S
C794   O1039   1.391   .     S
C795   C1214   1.360   1_545 S
C795   O1250   1.391   1_545 S
C796   O836    1.288   .     A
C796   O834    1.285   .     A
C797   O835    1.285   .     A
C797   O837    1.288   .     A
C798   O838    1.386   .     S
F804   N684    1.335   1_655 S
H810   C1000   1.110   .     S
H812   C1211   1.110   1_545 S
N823   Zn840   2.014   .     S
N823   F663    1.335   1_655 S
N823   N684    1.282   1_655 S
N824   Zn839   2.014   .     S
O825   Zn839   1.976   .     S
O829   C1214   1.391   1_545 S
O830   C1005   1.391   .     S
O831   Zn840   1.976   .     S
O832   Zn840   1.995   .     S
O833   Zn839   1.995   .     S
O834   Zn839   2.009   .     S
O835   Zn840   2.009   .     S
O836   Zn840   2.022   .     S
O837   Zn839   2.022   .     S
C841   O902    1.287   .     A
C841   O895    1.272   .     A
C841   C864    1.406   .     S
C842   C844    1.399   .     A
C842   O896    1.386   .     S
C842   C853    1.397   .     A
C843   C867    1.431   .     S
C843   C845    1.393   .     A
C843   C868    1.399   .     A
C844   C866    1.431   .     S
C844   C846    1.393   .     A
C845   C847    1.389   .     A
C845   F869    1.360   .     S
C846   F870    1.360   .     S
C846   C848    1.389   .     A
C847   C854    1.410   .     A
C847   C849    1.417   .     A
C848   C855    1.410   .     A
C848   C850    1.417   .     A
C849   C851    1.420   .     A
C850   C853    1.420   .     A
C850   C219    1.399   1_556 S
C851   C868    1.397   .     A
C851   C863    1.405   .     A
C852   C865    1.406   .     S
C852   O901    1.272   .     A
C852   O903    1.287   .     A
C853   C862    1.405   .     A
C854   O897    1.384   .     S
C855   O898    1.384   .     S
C855   C233    1.388   1_556 S
C856   H885    1.111   .     S
C856   O908    1.412   .     S
C856   H875    1.108   .     S
C856   H886    1.114   .     S
C857   H888    1.111   .     S
C857   O896    1.412   .     S
C857   H889    1.108   .     S
C857   H887    1.113   .     S
C858   O897    1.412   .     S
C858   H892    1.113   .     S
C858   H890    1.109   .     S
C858   H891    1.113   .     S
C859   O898    1.412   .     S
C859   H876    1.113   .     S
C859   H878    1.113   .     S
C859   H877    1.109   .     S
C860   H881    1.108   .     S
C860   O899    1.411   .     S
C860   H879    1.112   .     S
C861   H884    1.108   .     S
C861   O900    1.411   .     S
C861   H883    1.112   .     S
C861   H1092   1.110   .     S
C862   F871    1.359   .     S
C862   C224    1.388   1_556 S
C863   F872    1.359   .     S
C864   C1075   1.360   .     S
C864   O1109   1.391   .     S
C866   O906    1.288   .     A
C866   O904    1.285   .     A
C867   O905    1.285   .     A
C867   O907    1.288   .     A
C868   O908    1.386   .     S
F873   N1033   1.335   1_455 S
F874   N964    1.335   .     S
H880   C1070   1.110   .     S
N893   Zn910   2.014   .     S
N893   F943    1.335   .     S
N893   N964    1.282   .     S
N894   Zn909   2.014   .     S
N894   N1033   1.282   1_455 S
N894   F1014   1.335   1_455 S
O895   Zn909   1.976   .     S
O900   C1075   1.391   .     S
O901   Zn910   1.976   .     S
O902   Zn910   1.995   .     S
O903   Zn909   1.995   .     S
O904   Zn909   2.009   .     S
O905   Zn910   2.009   .     S
O906   Zn910   2.022   .     S
O907   Zn909   2.022   .     S
C911   O972    1.287   .     A
C911   O965    1.272   .     A
C911   C934    1.406   .     S
C912   C914    1.399   .     A
C912   O966    1.386   .     S
C912   C923    1.397   .     A
C913   C937    1.431   .     S
C913   C915    1.393   .     A
C913   C938    1.399   .     A
C914   C936    1.431   .     S
C914   C916    1.393   .     A
C915   C917    1.389   .     A
C915   F939    1.360   .     S
C916   F940    1.360   .     S
C916   C918    1.389   .     A
C917   C924    1.410   .     A
C917   C919    1.417   .     A
C918   C925    1.410   .     A
C918   C920    1.417   .     A
C919   C921    1.420   .     A
C920   C923    1.420   .     A
C920   C289    1.399   1_556 S
C921   C938    1.397   .     A
C921   C933    1.405   .     A
C922   C935    1.406   .     S
C922   O971    1.272   .     A
C922   O973    1.287   .     A
C923   C932    1.405   .     A
C924   O967    1.384   .     S
C925   O968    1.384   .     S
C925   C303    1.388   1_556 S
C926   H955    1.111   .     S
C926   O978    1.412   .     S
C926   H945    1.108   .     S
C926   H956    1.114   .     S
C927   H958    1.111   .     S
C927   O966    1.412   .     S
C927   H959    1.108   .     S
C927   H957    1.113   .     S
C928   O967    1.412   .     S
C928   H962    1.113   .     S
C928   H960    1.109   .     S
C928   H961    1.113   .     S
C929   O968    1.412   .     S
C929   H946    1.113   .     S
C929   H948    1.113   .     S
C929   H947    1.109   .     S
C930   H951    1.108   .     S
C930   O969    1.411   .     S
C930   H949    1.112   .     S
C931   H954    1.108   .     S
C931   O970    1.411   .     S
C931   H953    1.112   .     S
C931   H1162   1.110   .     S
C932   F941    1.359   .     S
C932   C294    1.388   1_556 S
C933   F942    1.359   .     S
C934   C1145   1.360   .     S
C934   O1179   1.391   .     S
C936   O976    1.288   .     A
C936   O974    1.285   .     A
C937   O975    1.285   .     A
C937   O977    1.288   .     A
C938   O978    1.386   .     S
F944   N1034   1.335   .     S
H950   C1140   1.110   .     S
N963   Zn980   2.014   .     S
N963   F1013   1.335   .     S
N963   N1034   1.282   .     S
N964   Zn979   2.014   .     S
O965   Zn979   1.976   .     S
O970   C1145   1.391   .     S
O971   Zn980   1.976   .     S
O972   Zn980   1.995   .     S
O973   Zn979   1.995   .     S
O974   Zn979   2.009   .     S
O975   Zn980   2.009   .     S
O976   Zn980   2.022   .     S
O977   Zn979   2.022   .     S
C981   O1042   1.287   .     A
C981   O1035   1.272   .     A
C981   C1004   1.406   .     S
C982   C984    1.399   .     A
C982   O1036   1.386   .     S
C982   C993    1.397   .     A
C983   C1007   1.431   .     S
C983   C985    1.393   .     A
C983   C1008   1.399   .     A
C984   C1006   1.431   .     S
C984   C986    1.393   .     A
C985   C987    1.389   .     A
C985   F1009   1.360   .     S
C986   F1010   1.360   .     S
C986   C988    1.389   .     A
C987   C994    1.410   .     A
C987   C989    1.417   .     A
C988   C995    1.410   .     A
C988   C990    1.417   .     A
C989   C991    1.420   .     A
C990   C993    1.420   .     A
C990   C359    1.399   1_556 S
C991   C1008   1.397   .     A
C991   C1003   1.405   .     A
C992   C1005   1.406   .     S
C992   O1041   1.272   .     A
C992   O1043   1.287   .     A
C993   C1002   1.405   .     A
C994   O1037   1.384   .     S
C995   O1038   1.384   .     S
C995   C373    1.388   1_556 S
C996   H1025   1.111   .     S
C996   O1048   1.412   .     S
C996   H1015   1.108   .     S
C996   H1026   1.114   .     S
C997   H1028   1.111   .     S
C997   O1036   1.412   .     S
C997   H1029   1.108   .     S
C997   H1027   1.113   .     S
C998   O1037   1.412   .     S
C998   H1032   1.113   .     S
C998   H1030   1.109   .     S
C998   H1031   1.113   .     S
C999   O1038   1.412   .     S
C999   H1016   1.113   .     S
C999   H1018   1.113   .     S
C999   H1017   1.109   .     S
C1000  H1021   1.108   .     S
C1000  O1039   1.411   .     S
C1000  H1019   1.112   .     S
C1001  H1024   1.108   .     S
C1001  O1040   1.411   .     S
C1001  H1023   1.112   .     S
C1001  H1232   1.110   .     S
C1002  F1011   1.359   .     S
C1002  C364    1.388   1_556 S
C1003  F1012   1.359   .     S
C1004  C1215   1.360   .     S
C1004  O1249   1.391   .     S
C1006  O1046   1.288   .     A
C1006  O1044   1.285   .     A
C1007  O1045   1.285   .     A
C1007  O1047   1.288   .     A
C1008  O1048   1.386   .     S
F1014  N894    1.335   1_655 S
H1020  C1210   1.110   .     S
N1033  Zn1050  2.014   .     S
N1033  F873    1.335   1_655 S
N1033  N894    1.282   1_655 S
N1034  Zn1049  2.014   .     S
O1035  Zn1049  1.976   .     S
O1040  C1215   1.391   .     S
O1041  Zn1050  1.976   .     S
O1042  Zn1050  1.995   .     S
O1043  Zn1049  1.995   .     S
O1044  Zn1049  2.009   .     S
O1045  Zn1050  2.009   .     S
O1046  Zn1050  2.022   .     S
O1047  Zn1049  2.022   .     S
C1051  O1112   1.287   .     A
C1051  O1105   1.272   .     A
C1051  C1074   1.406   .     S
C1052  C1054   1.399   .     A
C1052  O1106   1.386   .     S
C1052  C1063   1.397   .     A
C1053  C1077   1.431   .     S
C1053  C1055   1.393   .     A
C1053  C1078   1.399   .     A
C1054  C1076   1.431   .     S
C1054  C1056   1.393   .     A
C1055  C1057   1.389   .     A
C1055  F1079   1.360   .     S
C1056  F1080   1.360   .     S
C1056  C1058   1.389   .     A
C1057  C1064   1.410   .     A
C1057  C1059   1.417   .     A
C1058  C1065   1.410   .     A
C1058  C1060   1.417   .     A
C1059  C1061   1.420   .     A
C1060  C1063   1.420   .     A
C1060  C429    1.399   1_556 S
C1061  C1078   1.397   .     A
C1061  C1073   1.405   .     A
C1062  C1075   1.406   .     S
C1062  O1111   1.272   .     A
C1062  O1113   1.287   .     A
C1063  C1072   1.405   .     A
C1064  O1107   1.384   .     S
C1065  O1108   1.384   .     S
C1065  C443    1.388   1_556 S
C1066  H1095   1.111   .     S
C1066  O1118   1.412   .     S
C1066  H1085   1.108   .     S
C1066  H1096   1.114   .     S
C1067  H1098   1.111   .     S
C1067  O1106   1.412   .     S
C1067  H1099   1.108   .     S
C1067  H1097   1.113   .     S
C1068  O1107   1.412   .     S
C1068  H1102   1.113   .     S
C1068  H1100   1.109   .     S
C1068  H1101   1.113   .     S
C1069  O1108   1.412   .     S
C1069  H1086   1.113   .     S
C1069  H1088   1.113   .     S
C1069  H1087   1.109   .     S
C1070  H1091   1.108   .     S
C1070  O1109   1.411   .     S
C1070  H1089   1.112   .     S
C1071  H1094   1.108   .     S
C1071  O1110   1.411   .     S
C1071  H1093   1.112   .     S
C1071  H672    1.110   1_565 S
C1072  F1081   1.359   .     S
C1072  C434    1.388   1_556 S
C1073  F1082   1.359   .     S
C1074  C655    1.360   1_565 S
C1074  O689    1.391   1_565 S
C1076  O1116   1.288   .     A
C1076  O1114   1.285   .     A
C1077  O1115   1.285   .     A
C1077  O1117   1.288   .     A
C1078  O1118   1.386   .     S
F1083  N1243   1.335   1_455 S
F1084  N1174   1.335   .     S
H1090  C650    1.110   1_565 S
N1103  Zn1120  2.014   .     S
N1103  F1153   1.335   .     S
N1103  N1174   1.282   .     S
N1104  Zn1119  2.014   .     S
N1104  N1243   1.282   1_455 S
N1104  F1224   1.335   1_455 S
O1105  Zn1119  1.976   .     S
O1110  C655    1.391   1_565 S
O1111  Zn1120  1.976   .     S
O1112  Zn1120  1.995   .     S
O1113  Zn1119  1.995   .     S
O1114  Zn1119  2.009   .     S
O1115  Zn1120  2.009   .     S
O1116  Zn1120  2.022   .     S
O1117  Zn1119  2.022   .     S
C1121  O1182   1.287   .     A
C1121  O1175   1.272   .     A
C1121  C1144   1.406   .     S
C1122  C1124   1.399   .     A
C1122  O1176   1.386   .     S
C1122  C1133   1.397   .     A
C1123  C1147   1.431   .     S
C1123  C1125   1.393   .     A
C1123  C1148   1.399   .     A
C1124  C1146   1.431   .     S
C1124  C1126   1.393   .     A
C1125  C1127   1.389   .     A
C1125  F1149   1.360   .     S
C1126  F1150   1.360   .     S
C1126  C1128   1.389   .     A
C1127  C1134   1.410   .     A
C1127  C1129   1.417   .     A
C1128  C1135   1.410   .     A
C1128  C1130   1.417   .     A
C1129  C1131   1.420   .     A
C1130  C1133   1.420   .     A
C1130  C499    1.399   1_556 S
C1131  C1148   1.397   .     A
C1131  C1143   1.405   .     A
C1132  C1145   1.406   .     S
C1132  O1181   1.272   .     A
C1132  O1183   1.287   .     A
C1133  C1142   1.405   .     A
C1134  O1177   1.384   .     S
C1135  O1178   1.384   .     S
C1135  C513    1.388   1_556 S
C1136  H1165   1.111   .     S
C1136  O1188   1.412   .     S
C1136  H1155   1.108   .     S
C1136  H1166   1.114   .     S
C1137  H1168   1.111   .     S
C1137  O1176   1.412   .     S
C1137  H1169   1.108   .     S
C1137  H1167   1.113   .     S
C1138  O1177   1.412   .     S
C1138  H1172   1.113   .     S
C1138  H1170   1.109   .     S
C1138  H1171   1.113   .     S
C1139  O1178   1.412   .     S
C1139  H1156   1.113   .     S
C1139  H1158   1.113   .     S
C1139  H1157   1.109   .     S
C1140  H1161   1.108   .     S
C1140  O1179   1.411   .     S
C1140  H1159   1.112   .     S
C1141  H1164   1.108   .     S
C1141  O1180   1.411   .     S
C1141  H1163   1.112   .     S
C1141  H742    1.110   1_565 S
C1142  F1151   1.359   .     S
C1142  C504    1.388   1_556 S
C1143  F1152   1.359   .     S
C1144  C725    1.360   1_565 S
C1144  O759    1.391   1_565 S
C1146  O1186   1.288   .     A
C1146  O1184   1.285   .     A
C1147  O1185   1.285   .     A
C1147  O1187   1.288   .     A
C1148  O1188   1.386   .     S
F1154  N1244   1.335   .     S
H1160  C720    1.110   1_565 S
N1173  Zn1190  2.014   .     S
N1173  F1223   1.335   .     S
N1173  N1244   1.282   .     S
N1174  Zn1189  2.014   .     S
O1175  Zn1189  1.976   .     S
O1180  C725    1.391   1_565 S
O1181  Zn1190  1.976   .     S
O1182  Zn1190  1.995   .     S
O1183  Zn1189  1.995   .     S
O1184  Zn1189  2.009   .     S
O1185  Zn1190  2.009   .     S
O1186  Zn1190  2.022   .     S
O1187  Zn1189  2.022   .     S
C1191  O1252   1.287   .     A
C1191  O1245   1.272   .     A
C1191  C1214   1.406   .     S
C1192  C1194   1.399   .     A
C1192  O1246   1.386   .     S
C1192  C1203   1.397   .     A
C1193  C1217   1.431   .     S
C1193  C1195   1.393   .     A
C1193  C1218   1.399   .     A
C1194  C1216   1.431   .     S
C1194  C1196   1.393   .     A
C1195  C1197   1.389   .     A
C1195  F1219   1.360   .     S
C1196  F1220   1.360   .     S
C1196  C1198   1.389   .     A
C1197  C1204   1.410   .     A
C1197  C1199   1.417   .     A
C1198  C1205   1.410   .     A
C1198  C1200   1.417   .     A
C1199  C1201   1.420   .     A
C1200  C1203   1.420   .     A
C1200  C569    1.399   1_556 S
C1201  C1218   1.397   .     A
C1201  C1213   1.405   .     A
C1202  C1215   1.406   .     S
C1202  O1251   1.272   .     A
C1202  O1253   1.287   .     A
C1203  C1212   1.405   .     A
C1204  O1247   1.384   .     S
C1205  O1248   1.384   .     S
C1205  C583    1.388   1_556 S
C1206  H1235   1.111   .     S
C1206  O1258   1.412   .     S
C1206  H1225   1.108   .     S
C1206  H1236   1.114   .     S
C1207  H1238   1.111   .     S
C1207  O1246   1.412   .     S
C1207  H1239   1.108   .     S
C1207  H1237   1.113   .     S
C1208  O1247   1.412   .     S
C1208  H1242   1.113   .     S
C1208  H1240   1.109   .     S
C1208  H1241   1.113   .     S
C1209  O1248   1.412   .     S
C1209  H1226   1.113   .     S
C1209  H1228   1.113   .     S
C1209  H1227   1.109   .     S
C1210  H1231   1.108   .     S
C1210  O1249   1.411   .     S
C1210  H1229   1.112   .     S
C1211  H1234   1.108   .     S
C1211  O1250   1.411   .     S
C1211  H1233   1.112   .     S
C1211  H812    1.110   1_565 S
C1212  F1221   1.359   .     S
C1212  C574    1.388   1_556 S
C1213  F1222   1.359   .     S
C1214  C795    1.360   1_565 S
C1214  O829    1.391   1_565 S
C1216  O1256   1.288   .     A
C1216  O1254   1.285   .     A
C1217  O1255   1.285   .     A
C1217  O1257   1.288   .     A
C1218  O1258   1.386   .     S
F1224  N1104   1.335   1_655 S
H1230  C790    1.110   1_565 S
N1243  Zn1260  2.014   .     S
N1243  F1083   1.335   1_655 S
N1243  N1104   1.282   1_655 S
N1244  Zn1259  2.014   .     S
O1245  Zn1259  1.976   .     S
O1250  C795    1.391   1_565 S
O1251  Zn1260  1.976   .     S
O1252  Zn1260  1.995   .     S
O1253  Zn1259  1.995   .     S
O1254  Zn1259  2.009   .     S
O1255  Zn1260  2.009   .     S
O1256  Zn1260  2.022   .     S
O1257  Zn1259  2.022   .     S
