data_str_m2_o1_o2_pcu_sym.96
_audit_creation_date              2020-01-03
_audit_creation_method            'Materials Studio'
_symmetry_space_group_name_H-M    'P1'
_symmetry_Int_Tables_number       1
_symmetry_cell_setting            triclinic
loop_
_symmetry_equiv_pos_as_xyz
  x,y,z
_cell_length_a                    32.6410
_cell_length_b                    28.9844
_cell_length_c                    30.3463
_cell_angle_alpha                 87.2297
_cell_angle_beta                  93.6604
_cell_angle_gamma                 87.7783
loop_
_atom_site_label
_atom_site_type_symbol
_atom_site_fract_x
_atom_site_fract_y
_atom_site_fract_z
_atom_site_U_iso_or_equiv
_atom_site_adp_type
_atom_site_occupancy
C1     C     0.08714   0.16794   0.24727   0.00000  Uiso   1.00
C2     C     0.30768   0.20941   0.23353   0.00000  Uiso   1.00
C3     C     0.31503   0.12655   0.23082   0.00000  Uiso   1.00
C4     C     0.01671   0.21078   0.24484   0.00000  Uiso   1.00
C5     C     0.18207   0.21696   0.04769   0.00000  Uiso   1.00
C6     C     0.20580   0.15388   0.45518   0.00000  Uiso   1.00
C7     C     0.14146   0.19934   0.45027   0.00000  Uiso   1.00
C8     C     0.17563   0.13330   0.04700   0.00000  Uiso   1.00
C9     C     0.18383   0.21385   0.09457   0.00000  Uiso   1.00
C10    C     0.19805   0.14146   0.41138   0.00000  Uiso   1.00
C11    C     0.13888   0.19591   0.40399   0.00000  Uiso   1.00
C12    C     0.24572   0.16603   0.24660   0.00000  Uiso   1.00
C13    C     0.17970   0.13021   0.09319   0.00000  Uiso   1.00
C14    C     0.17753   0.17067   0.11698   0.00000  Uiso   1.00
C15    C     0.16657   0.16538   0.38417   0.00000  Uiso   1.00
C16    C     0.17637   0.17670   0.02425   0.00000  Uiso   1.00
C17    C     0.17515   0.17836   0.47564   0.00000  Uiso   1.00
C18    C     0.28990   0.16616   0.23832   0.00000  Uiso   1.00
C19    C     0.04182   0.17092   0.23904   0.00000  Uiso   1.00
C20    C     0.10709   0.05080   0.14945   0.00000  Uiso   1.00
C21    C     0.21064   0.28316   0.35870   0.00000  Uiso   1.00
C22    C     0.25901   0.03747   0.31865   0.00000  Uiso   1.00
C23    C     0.17048   0.16766   0.16528   0.00000  Uiso   1.00
C24    C     0.10104   0.27360   0.16274   0.00000  Uiso   1.00
C25    C     0.22258   0.26508   0.00887   0.00000  Uiso   1.00
C26    C     0.27488   0.15899   0.47042   0.00000  Uiso   1.00
C27    C     0.07924   0.19860   0.47996   0.00000  Uiso   1.00
C28    C     0.13541   0.08025   0.01489   0.00000  Uiso   1.00
C29    C     0.19541   0.29829   0.10598   0.00000  Uiso   1.00
C30    C     0.20923   0.05937   0.42139   0.00000  Uiso   1.00
C31    C     0.10548   0.27066   0.37902   0.00000  Uiso   1.00
C32    C     0.23440   0.08089   0.12784   0.00000  Uiso   1.00
C33    C     0.04866   0.14982   0.14692   0.00000  Uiso   1.00
C34    C     0.16691   0.16577   0.33520   0.00000  Uiso   1.00
C35    C     0.27160   0.28425   0.21157   0.00000  Uiso   1.00
C36    C     0.33193   0.04300   0.24063   0.00000  Uiso   1.00
C37    C     0.02327   0.26195   0.30406   0.00000  Uiso   1.00
C38    C     0.13979   0.02739   0.22241   0.00000  Uiso   1.00
C39    C     0.19226   0.30592   0.27948   0.00000  Uiso   1.00
C40    C     0.19275   0.02254   0.27863   0.00000  Uiso   1.00
C41    C     0.13829   0.31114   0.22386   0.00000  Uiso   1.00
C42    C     0.02203   0.13426   0.21946   0.00000  Uiso   1.00
Cu43   Cu    0.16667   0.21355   0.25000   0.00000  Uiso   1.00
Cu44   Cu    0.16667   0.11978   0.25000   0.00000  Uiso   1.00
H45    H     0.08129   0.05352   0.21055   0.00000  Uiso   1.00
H46    H     0.26974   0.00908   0.29907   0.00000  Uiso   1.00
H47    H     0.26798   0.02813   0.35378   0.00000  Uiso   1.00
H48    H     0.27449   0.06971   0.31025   0.00000  Uiso   1.00
H49    H     0.07562   0.31007   0.21152   0.00000  Uiso   1.00
H50    H     0.07707   0.29265   0.14061   0.00000  Uiso   1.00
H51    H     0.09290   0.23699   0.16443   0.00000  Uiso   1.00
H52    H     0.13077   0.27675   0.14815   0.00000  Uiso   1.00
H53    H     0.22452   0.24945   0.47641   0.00000  Uiso   1.00
H54    H     0.24800   0.25123   0.03272   0.00000  Uiso   1.00
H55    H     0.22699   0.30261   0.00321   0.00000  Uiso   1.00
H56    H     0.13065   0.02587   0.13911   0.00000  Uiso   1.00
H57    H     0.27716   0.18978   0.49054   0.00000  Uiso   1.00
H58    H     0.27594   0.16955   0.43472   0.00000  Uiso   1.00
H59    H     0.30246   0.13618   0.47972   0.00000  Uiso   1.00
H60    H     0.08801   0.17355   0.00815   0.00000  Uiso   1.00
H61    H     0.06707   0.18032   0.45075   0.00000  Uiso   1.00
H62    H     0.05392   0.22151   0.49019   0.00000  Uiso   1.00
H63    H     0.12021   0.10290   0.48761   0.00000  Uiso   1.00
H64    H     0.11703   0.08044   0.04461   0.00000  Uiso   1.00
H65    H     0.13622   0.04444   0.00353   0.00000  Uiso   1.00
H66    H     0.22606   0.24062   0.13978   0.00000  Uiso   1.00
H67    H     0.11192   0.08494   0.13321   0.00000  Uiso   1.00
H68    H     0.19580   0.31879   0.13587   0.00000  Uiso   1.00
H69    H     0.16564   0.30622   0.08681   0.00000  Uiso   1.00
H70    H     0.22162   0.30859   0.08675   0.00000  Uiso   1.00
H71    H     0.25033   0.10530   0.39629   0.00000  Uiso   1.00
H72    H     0.21719   0.06059   0.45731   0.00000  Uiso   1.00
H73    H     0.22721   0.02958   0.41038   0.00000  Uiso   1.00
H74    H     0.17597   0.05300   0.41594   0.00000  Uiso   1.00
H75    H     0.09751   0.20777   0.34824   0.00000  Uiso   1.00
H76    H     0.11180   0.28581   0.34593   0.00000  Uiso   1.00
H77    H     0.12849   0.28307   0.40381   0.00000  Uiso   1.00
H78    H     0.07624   0.03988   0.13766   0.00000  Uiso   1.00
H79    H     0.07460   0.28319   0.38762   0.00000  Uiso   1.00
H80    H     0.18020   0.05889   0.09910   0.00000  Uiso   1.00
H81    H     0.25217   0.07935   0.09785   0.00000  Uiso   1.00
H82    H     0.24044   0.04818   0.14811   0.00000  Uiso   1.00
H83    H     0.24500   0.10995   0.14762   0.00000  Uiso   1.00
H84    H     0.01569   0.09374   0.16493   0.00000  Uiso   1.00
H85    H     0.05070   0.13380   0.11456   0.00000  Uiso   1.00
H86    H     0.07962   0.16124   0.15718   0.00000  Uiso   1.00
H87    H     0.02638   0.17993   0.14230   0.00000  Uiso   1.00
H88    H     0.30715   0.24414   0.17218   0.00000  Uiso   1.00
H89    H     0.24476   0.26508   0.30459   0.00000  Uiso   1.00
H90    H     0.28457   0.31343   0.19280   0.00000  Uiso   1.00
H91    H     0.27690   0.28892   0.24712   0.00000  Uiso   1.00
H92    H     0.23809   0.28507   0.20308   0.00000  Uiso   1.00
H93    H     0.27473   0.07381   0.21488   0.00000  Uiso   1.00
H94    H     0.31952   0.01342   0.25822   0.00000  Uiso   1.00
H95    H     0.02548   0.05315   0.26178   0.00000  Uiso   1.00
H96    H     0.00843   0.03108   0.20866   0.00000  Uiso   1.00
H97    H     0.02342   0.27978   0.23824   0.00000  Uiso   1.00
H98    H     0.32308   0.26864   0.30591   0.00000  Uiso   1.00
H99    H     0.03912   0.29323   0.31432   0.00000  Uiso   1.00
H100   H     0.23919   0.29462   0.37570   0.00000  Uiso   1.00
H101   H     0.03282   0.23224   0.32724   0.00000  Uiso   1.00
H102   H     0.20456   0.24918   0.37447   0.00000  Uiso   1.00
H103   H     0.18461   0.30762   0.36366   0.00000  Uiso   1.00
H104   H     0.19914   0.04842   0.33933   0.00000  Uiso   1.00
N105   N     0.16667   0.28402   0.25000   0.00000  Uiso   1.00
N106   N     0.19092   0.08676   0.11535   0.00000  Uiso   1.00
N107   N     0.03547   0.11626   0.17949   0.00000  Uiso   1.00
N108   N     0.28988   0.24094   0.19940   0.00000  Uiso   1.00
N109   N     0.30099   0.08057   0.23356   0.00000  Uiso   1.00
N110   N     0.03301   0.25229   0.25952   0.00000  Uiso   1.00
N111   N     0.16667   0.04931   0.25000   0.00000  Uiso   1.00
N112   N     0.10924   0.05472   0.19692   0.00000  Uiso   1.00
N113   N     0.21659   0.27827   0.31226   0.00000  Uiso   1.00
N114   N     0.21509   0.04567   0.31166   0.00000  Uiso   1.00
N115   N     0.10192   0.29097   0.20660   0.00000  Uiso   1.00
N116   N     0.19993   0.24998   0.12011   0.00000  Uiso   1.00
N117   N     0.21910   0.10169   0.39714   0.00000  Uiso   1.00
N118   N     0.10641   0.22065   0.37823   0.00000  Uiso   1.00
O119   O     0.10655   0.20625   0.24999   0.00000  Uiso   1.00
O120   O     0.23970   0.13471   0.48039   0.00000  Uiso   1.00
O121   O     0.11255   0.22603   0.47021   0.00000  Uiso   1.00
O122   O     0.17615   0.09308   0.02415   0.00000  Uiso   1.00
O123   O     0.22679   0.12709   0.25001   0.00000  Uiso   1.00
O124   O     0.22679   0.20625   0.25000   0.00000  Uiso   1.00
O125   O     0.10655   0.12709   0.24999   0.00000  Uiso   1.00
O126   O     0.16666   0.20626   0.18573   0.00000  Uiso   1.00
O127   O     0.16667   0.12707   0.31427   0.00000  Uiso   1.00
O128   O     0.16667   0.20626   0.31427   0.00000  Uiso   1.00
O129   O     0.16666   0.12707   0.18573   0.00000  Uiso   1.00
O130   O     0.18333   0.25947   0.02492   0.00000  Uiso   1.00
C131   C     0.42047   0.16794   0.24727   0.00000  Uiso   1.00
C132   C     0.64101   0.20941   0.23353   0.00000  Uiso   1.00
C133   C     0.64836   0.12655   0.23082   0.00000  Uiso   1.00
C134   C     0.35005   0.21078   0.24484   0.00000  Uiso   1.00
C135   C     0.51540   0.21696   0.04769   0.00000  Uiso   1.00
C136   C     0.53913   0.15388   0.45518   0.00000  Uiso   1.00
C137   C     0.47480   0.19934   0.45027   0.00000  Uiso   1.00
C138   C     0.50896   0.13330   0.04700   0.00000  Uiso   1.00
C139   C     0.51717   0.21385   0.09457   0.00000  Uiso   1.00
C140   C     0.53139   0.14146   0.41138   0.00000  Uiso   1.00
C141   C     0.47221   0.19591   0.40399   0.00000  Uiso   1.00
C142   C     0.57905   0.16603   0.24660   0.00000  Uiso   1.00
C143   C     0.51304   0.13021   0.09319   0.00000  Uiso   1.00
C144   C     0.51086   0.17067   0.11698   0.00000  Uiso   1.00
C145   C     0.49991   0.16538   0.38417   0.00000  Uiso   1.00
C146   C     0.50971   0.17670   0.02425   0.00000  Uiso   1.00
C147   C     0.50848   0.17836   0.47564   0.00000  Uiso   1.00
C148   C     0.62324   0.16616   0.23832   0.00000  Uiso   1.00
C149   C     0.37515   0.17092   0.23904   0.00000  Uiso   1.00
C150   C     0.44043   0.05080   0.14945   0.00000  Uiso   1.00
C151   C     0.54397   0.28316   0.35870   0.00000  Uiso   1.00
C152   C     0.59234   0.03747   0.31865   0.00000  Uiso   1.00
C153   C     0.50382   0.16766   0.16528   0.00000  Uiso   1.00
C154   C     0.43437   0.27360   0.16274   0.00000  Uiso   1.00
C155   C     0.55591   0.26508   0.00887   0.00000  Uiso   1.00
C156   C     0.60822   0.15899   0.47042   0.00000  Uiso   1.00
C157   C     0.41257   0.19860   0.47996   0.00000  Uiso   1.00
C158   C     0.46874   0.08025   0.01489   0.00000  Uiso   1.00
C159   C     0.52874   0.29829   0.10598   0.00000  Uiso   1.00
C160   C     0.54256   0.05937   0.42139   0.00000  Uiso   1.00
C161   C     0.43881   0.27066   0.37902   0.00000  Uiso   1.00
C162   C     0.56773   0.08089   0.12784   0.00000  Uiso   1.00
C163   C     0.38199   0.14982   0.14692   0.00000  Uiso   1.00
C164   C     0.50024   0.16577   0.33520   0.00000  Uiso   1.00
C165   C     0.60493   0.28425   0.21157   0.00000  Uiso   1.00
C166   C     0.66526   0.04300   0.24063   0.00000  Uiso   1.00
C167   C     0.35660   0.26195   0.30406   0.00000  Uiso   1.00
C168   C     0.47312   0.02739   0.22241   0.00000  Uiso   1.00
C169   C     0.52559   0.30592   0.27948   0.00000  Uiso   1.00
C170   C     0.52609   0.02254   0.27863   0.00000  Uiso   1.00
C171   C     0.47162   0.31114   0.22386   0.00000  Uiso   1.00
C172   C     0.35537   0.13426   0.21946   0.00000  Uiso   1.00
Cu173  Cu    0.50000   0.21355   0.25000   0.00000  Uiso   1.00
Cu174  Cu    0.50000   0.11978   0.25000   0.00000  Uiso   1.00
H175   H     0.41463   0.05352   0.21055   0.00000  Uiso   1.00
H176   H     0.60307   0.00908   0.29907   0.00000  Uiso   1.00
H177   H     0.60131   0.02813   0.35378   0.00000  Uiso   1.00
H178   H     0.60782   0.06971   0.31025   0.00000  Uiso   1.00
H179   H     0.40895   0.31007   0.21152   0.00000  Uiso   1.00
H180   H     0.41040   0.29265   0.14061   0.00000  Uiso   1.00
H181   H     0.42624   0.23699   0.16443   0.00000  Uiso   1.00
H182   H     0.46411   0.27675   0.14815   0.00000  Uiso   1.00
H183   H     0.55785   0.24945   0.47641   0.00000  Uiso   1.00
H184   H     0.58134   0.25123   0.03272   0.00000  Uiso   1.00
H185   H     0.56032   0.30261   0.00321   0.00000  Uiso   1.00
H186   H     0.46399   0.02587   0.13911   0.00000  Uiso   1.00
H187   H     0.61049   0.18978   0.49054   0.00000  Uiso   1.00
H188   H     0.60927   0.16955   0.43472   0.00000  Uiso   1.00
H189   H     0.63580   0.13618   0.47972   0.00000  Uiso   1.00
H190   H     0.42135   0.17355   0.00815   0.00000  Uiso   1.00
H191   H     0.40041   0.18032   0.45075   0.00000  Uiso   1.00
H192   H     0.38726   0.22151   0.49019   0.00000  Uiso   1.00
H193   H     0.45354   0.10290   0.48761   0.00000  Uiso   1.00
H194   H     0.45037   0.08044   0.04461   0.00000  Uiso   1.00
H195   H     0.46955   0.04444   0.00353   0.00000  Uiso   1.00
H196   H     0.55940   0.24062   0.13978   0.00000  Uiso   1.00
H197   H     0.44526   0.08494   0.13321   0.00000  Uiso   1.00
H198   H     0.52914   0.31879   0.13587   0.00000  Uiso   1.00
H199   H     0.49897   0.30622   0.08681   0.00000  Uiso   1.00
H200   H     0.55495   0.30859   0.08675   0.00000  Uiso   1.00
H201   H     0.58366   0.10530   0.39629   0.00000  Uiso   1.00
H202   H     0.55053   0.06059   0.45731   0.00000  Uiso   1.00
H203   H     0.56054   0.02958   0.41038   0.00000  Uiso   1.00
H204   H     0.50930   0.05300   0.41594   0.00000  Uiso   1.00
H205   H     0.43084   0.20777   0.34824   0.00000  Uiso   1.00
H206   H     0.44513   0.28581   0.34593   0.00000  Uiso   1.00
H207   H     0.46182   0.28307   0.40381   0.00000  Uiso   1.00
H208   H     0.40957   0.03988   0.13766   0.00000  Uiso   1.00
H209   H     0.40794   0.28319   0.38762   0.00000  Uiso   1.00
H210   H     0.51354   0.05889   0.09910   0.00000  Uiso   1.00
H211   H     0.58550   0.07935   0.09785   0.00000  Uiso   1.00
H212   H     0.57377   0.04818   0.14811   0.00000  Uiso   1.00
H213   H     0.57833   0.10995   0.14762   0.00000  Uiso   1.00
H214   H     0.34902   0.09374   0.16493   0.00000  Uiso   1.00
H215   H     0.38403   0.13380   0.11456   0.00000  Uiso   1.00
H216   H     0.41295   0.16124   0.15718   0.00000  Uiso   1.00
H217   H     0.35971   0.17993   0.14230   0.00000  Uiso   1.00
H218   H     0.64049   0.24414   0.17218   0.00000  Uiso   1.00
H219   H     0.57810   0.26508   0.30459   0.00000  Uiso   1.00
H220   H     0.61790   0.31343   0.19280   0.00000  Uiso   1.00
H221   H     0.61024   0.28892   0.24712   0.00000  Uiso   1.00
H222   H     0.57142   0.28507   0.20308   0.00000  Uiso   1.00
H223   H     0.60807   0.07381   0.21488   0.00000  Uiso   1.00
H224   H     0.65285   0.01342   0.25822   0.00000  Uiso   1.00
H225   H     0.35882   0.05315   0.26178   0.00000  Uiso   1.00
H226   H     0.34176   0.03108   0.20866   0.00000  Uiso   1.00
H227   H     0.35675   0.27978   0.23824   0.00000  Uiso   1.00
H228   H     0.65641   0.26864   0.30591   0.00000  Uiso   1.00
H229   H     0.37245   0.29323   0.31432   0.00000  Uiso   1.00
H230   H     0.57253   0.29462   0.37570   0.00000  Uiso   1.00
H231   H     0.36616   0.23224   0.32724   0.00000  Uiso   1.00
H232   H     0.53789   0.24918   0.37447   0.00000  Uiso   1.00
H233   H     0.51795   0.30762   0.36366   0.00000  Uiso   1.00
H234   H     0.53247   0.04842   0.33933   0.00000  Uiso   1.00
N235   N     0.50000   0.28402   0.25000   0.00000  Uiso   1.00
N236   N     0.52425   0.08676   0.11535   0.00000  Uiso   1.00
N237   N     0.36881   0.11626   0.17949   0.00000  Uiso   1.00
N238   N     0.62321   0.24094   0.19940   0.00000  Uiso   1.00
N239   N     0.63433   0.08057   0.23356   0.00000  Uiso   1.00
N240   N     0.36634   0.25229   0.25952   0.00000  Uiso   1.00
N241   N     0.50000   0.04931   0.25000   0.00000  Uiso   1.00
N242   N     0.44258   0.05472   0.19692   0.00000  Uiso   1.00
N243   N     0.54993   0.27827   0.31226   0.00000  Uiso   1.00
N244   N     0.54842   0.04567   0.31166   0.00000  Uiso   1.00
N245   N     0.43525   0.29097   0.20660   0.00000  Uiso   1.00
N246   N     0.53326   0.24998   0.12011   0.00000  Uiso   1.00
N247   N     0.55244   0.10169   0.39714   0.00000  Uiso   1.00
N248   N     0.43975   0.22065   0.37823   0.00000  Uiso   1.00
O249   O     0.43988   0.20625   0.24999   0.00000  Uiso   1.00
O250   O     0.57304   0.13471   0.48039   0.00000  Uiso   1.00
O251   O     0.44588   0.22603   0.47021   0.00000  Uiso   1.00
O252   O     0.50948   0.09308   0.02415   0.00000  Uiso   1.00
O253   O     0.56012   0.12709   0.25001   0.00000  Uiso   1.00
O254   O     0.56012   0.20625   0.25000   0.00000  Uiso   1.00
O255   O     0.43988   0.12709   0.24999   0.00000  Uiso   1.00
O256   O     0.50000   0.20626   0.18573   0.00000  Uiso   1.00
O257   O     0.50000   0.12707   0.31427   0.00000  Uiso   1.00
O258   O     0.50000   0.20626   0.31427   0.00000  Uiso   1.00
O259   O     0.50000   0.12707   0.18573   0.00000  Uiso   1.00
O260   O     0.51667   0.25947   0.02492   0.00000  Uiso   1.00
C261   C     0.75380   0.16794   0.24727   0.00000  Uiso   1.00
C262   C     0.97434   0.20941   0.23353   0.00000  Uiso   1.00
C263   C     0.98169   0.12655   0.23082   0.00000  Uiso   1.00
C264   C     0.68338   0.21078   0.24484   0.00000  Uiso   1.00
C265   C     0.84873   0.21696   0.04769   0.00000  Uiso   1.00
C266   C     0.87246   0.15388   0.45518   0.00000  Uiso   1.00
C267   C     0.80813   0.19934   0.45027   0.00000  Uiso   1.00
C268   C     0.84230   0.13330   0.04700   0.00000  Uiso   1.00
C269   C     0.85050   0.21385   0.09457   0.00000  Uiso   1.00
C270   C     0.86472   0.14146   0.41138   0.00000  Uiso   1.00
C271   C     0.80555   0.19591   0.40399   0.00000  Uiso   1.00
C272   C     0.91239   0.16603   0.24660   0.00000  Uiso   1.00
C273   C     0.84637   0.13021   0.09319   0.00000  Uiso   1.00
C274   C     0.84419   0.17067   0.11698   0.00000  Uiso   1.00
C275   C     0.83324   0.16538   0.38417   0.00000  Uiso   1.00
C276   C     0.84304   0.17670   0.02425   0.00000  Uiso   1.00
C277   C     0.84182   0.17836   0.47564   0.00000  Uiso   1.00
C278   C     0.95657   0.16616   0.23832   0.00000  Uiso   1.00
C279   C     0.70848   0.17092   0.23904   0.00000  Uiso   1.00
C280   C     0.77376   0.05080   0.14945   0.00000  Uiso   1.00
C281   C     0.87731   0.28316   0.35870   0.00000  Uiso   1.00
C282   C     0.92568   0.03747   0.31865   0.00000  Uiso   1.00
C283   C     0.83715   0.16766   0.16528   0.00000  Uiso   1.00
C284   C     0.76771   0.27360   0.16274   0.00000  Uiso   1.00
C285   C     0.88924   0.26508   0.00887   0.00000  Uiso   1.00
C286   C     0.94155   0.15899   0.47042   0.00000  Uiso   1.00
C287   C     0.74591   0.19860   0.47996   0.00000  Uiso   1.00
C288   C     0.80208   0.08025   0.01489   0.00000  Uiso   1.00
C289   C     0.86207   0.29829   0.10598   0.00000  Uiso   1.00
C290   C     0.87590   0.05937   0.42139   0.00000  Uiso   1.00
C291   C     0.77214   0.27066   0.37902   0.00000  Uiso   1.00
C292   C     0.90107   0.08089   0.12784   0.00000  Uiso   1.00
C293   C     0.71532   0.14982   0.14692   0.00000  Uiso   1.00
C294   C     0.83357   0.16577   0.33520   0.00000  Uiso   1.00
C295   C     0.93827   0.28425   0.21157   0.00000  Uiso   1.00
C296   C     0.99859   0.04300   0.24063   0.00000  Uiso   1.00
C297   C     0.68993   0.26195   0.30406   0.00000  Uiso   1.00
C298   C     0.80646   0.02739   0.22241   0.00000  Uiso   1.00
C299   C     0.85893   0.30592   0.27948   0.00000  Uiso   1.00
C300   C     0.85942   0.02254   0.27863   0.00000  Uiso   1.00
C301   C     0.80495   0.31114   0.22386   0.00000  Uiso   1.00
C302   C     0.68870   0.13426   0.21946   0.00000  Uiso   1.00
Cu303  Cu    0.83333   0.21355   0.25000   0.00000  Uiso   1.00
Cu304  Cu    0.83333   0.11978   0.25000   0.00000  Uiso   1.00
H305   H     0.74796   0.05352   0.21055   0.00000  Uiso   1.00
H306   H     0.93640   0.00908   0.29907   0.00000  Uiso   1.00
H307   H     0.93464   0.02813   0.35378   0.00000  Uiso   1.00
H308   H     0.94116   0.06971   0.31025   0.00000  Uiso   1.00
H309   H     0.74229   0.31007   0.21152   0.00000  Uiso   1.00
H310   H     0.74373   0.29265   0.14061   0.00000  Uiso   1.00
H311   H     0.75957   0.23699   0.16443   0.00000  Uiso   1.00
H312   H     0.79744   0.27675   0.14815   0.00000  Uiso   1.00
H313   H     0.89119   0.24945   0.47641   0.00000  Uiso   1.00
H314   H     0.91467   0.25123   0.03272   0.00000  Uiso   1.00
H315   H     0.89366   0.30261   0.00321   0.00000  Uiso   1.00
H316   H     0.79732   0.02587   0.13911   0.00000  Uiso   1.00
H317   H     0.94382   0.18978   0.49054   0.00000  Uiso   1.00
H318   H     0.94261   0.16955   0.43472   0.00000  Uiso   1.00
H319   H     0.96913   0.13618   0.47972   0.00000  Uiso   1.00
H320   H     0.75468   0.17355   0.00815   0.00000  Uiso   1.00
H321   H     0.73374   0.18032   0.45075   0.00000  Uiso   1.00
H322   H     0.72059   0.22151   0.49019   0.00000  Uiso   1.00
H323   H     0.78688   0.10290   0.48761   0.00000  Uiso   1.00
H324   H     0.78370   0.08044   0.04461   0.00000  Uiso   1.00
H325   H     0.80288   0.04444   0.00353   0.00000  Uiso   1.00
H326   H     0.89273   0.24062   0.13978   0.00000  Uiso   1.00
H327   H     0.77859   0.08494   0.13321   0.00000  Uiso   1.00
H328   H     0.86247   0.31879   0.13587   0.00000  Uiso   1.00
H329   H     0.83231   0.30622   0.08681   0.00000  Uiso   1.00
H330   H     0.88829   0.30859   0.08675   0.00000  Uiso   1.00
H331   H     0.91699   0.10530   0.39629   0.00000  Uiso   1.00
H332   H     0.88386   0.06059   0.45731   0.00000  Uiso   1.00
H333   H     0.89387   0.02958   0.41038   0.00000  Uiso   1.00
H334   H     0.84264   0.05300   0.41594   0.00000  Uiso   1.00
H335   H     0.76417   0.20777   0.34824   0.00000  Uiso   1.00
H336   H     0.77847   0.28581   0.34593   0.00000  Uiso   1.00
H337   H     0.79515   0.28307   0.40381   0.00000  Uiso   1.00
H338   H     0.74291   0.03988   0.13766   0.00000  Uiso   1.00
H339   H     0.74127   0.28319   0.38762   0.00000  Uiso   1.00
H340   H     0.84687   0.05889   0.09910   0.00000  Uiso   1.00
H341   H     0.91883   0.07935   0.09785   0.00000  Uiso   1.00
H342   H     0.90711   0.04818   0.14811   0.00000  Uiso   1.00
H343   H     0.91167   0.10995   0.14762   0.00000  Uiso   1.00
H344   H     0.68236   0.09374   0.16493   0.00000  Uiso   1.00
H345   H     0.71737   0.13380   0.11456   0.00000  Uiso   1.00
H346   H     0.74628   0.16124   0.15718   0.00000  Uiso   1.00
H347   H     0.69304   0.17993   0.14230   0.00000  Uiso   1.00
H348   H     0.97382   0.24414   0.17218   0.00000  Uiso   1.00
H349   H     0.91143   0.26508   0.30459   0.00000  Uiso   1.00
H350   H     0.95123   0.31343   0.19280   0.00000  Uiso   1.00
H351   H     0.94357   0.28892   0.24712   0.00000  Uiso   1.00
H352   H     0.90475   0.28507   0.20308   0.00000  Uiso   1.00
H353   H     0.94140   0.07381   0.21488   0.00000  Uiso   1.00
H354   H     0.98618   0.01342   0.25822   0.00000  Uiso   1.00
H355   H     0.69215   0.05315   0.26178   0.00000  Uiso   1.00
H356   H     0.67510   0.03108   0.20866   0.00000  Uiso   1.00
H357   H     0.69008   0.27978   0.23824   0.00000  Uiso   1.00
H358   H     0.98975   0.26864   0.30591   0.00000  Uiso   1.00
H359   H     0.70578   0.29323   0.31432   0.00000  Uiso   1.00
H360   H     0.90586   0.29462   0.37570   0.00000  Uiso   1.00
H361   H     0.69949   0.23224   0.32724   0.00000  Uiso   1.00
H362   H     0.87122   0.24918   0.37447   0.00000  Uiso   1.00
H363   H     0.85128   0.30762   0.36366   0.00000  Uiso   1.00
H364   H     0.86581   0.04842   0.33933   0.00000  Uiso   1.00
N365   N     0.83333   0.28402   0.25000   0.00000  Uiso   1.00
N366   N     0.85759   0.08676   0.11535   0.00000  Uiso   1.00
N367   N     0.70214   0.11626   0.17949   0.00000  Uiso   1.00
N368   N     0.95654   0.24094   0.19940   0.00000  Uiso   1.00
N369   N     0.96766   0.08057   0.23356   0.00000  Uiso   1.00
N370   N     0.69968   0.25229   0.25952   0.00000  Uiso   1.00
N371   N     0.83333   0.04931   0.25000   0.00000  Uiso   1.00
N372   N     0.77591   0.05472   0.19692   0.00000  Uiso   1.00
N373   N     0.88326   0.27827   0.31226   0.00000  Uiso   1.00
N374   N     0.88175   0.04567   0.31166   0.00000  Uiso   1.00
N375   N     0.76859   0.29097   0.20660   0.00000  Uiso   1.00
N376   N     0.86659   0.24998   0.12011   0.00000  Uiso   1.00
N377   N     0.88577   0.10169   0.39714   0.00000  Uiso   1.00
N378   N     0.77308   0.22065   0.37823   0.00000  Uiso   1.00
O379   O     0.77321   0.20625   0.24999   0.00000  Uiso   1.00
O380   O     0.90637   0.13471   0.48039   0.00000  Uiso   1.00
O381   O     0.77922   0.22603   0.47021   0.00000  Uiso   1.00
O382   O     0.84281   0.09308   0.02415   0.00000  Uiso   1.00
O383   O     0.89345   0.12709   0.25001   0.00000  Uiso   1.00
O384   O     0.89345   0.20625   0.25000   0.00000  Uiso   1.00
O385   O     0.77321   0.12709   0.24999   0.00000  Uiso   1.00
O386   O     0.83333   0.20626   0.18573   0.00000  Uiso   1.00
O387   O     0.83334   0.12707   0.31427   0.00000  Uiso   1.00
O388   O     0.83334   0.20626   0.31427   0.00000  Uiso   1.00
O389   O     0.83333   0.12707   0.18573   0.00000  Uiso   1.00
O390   O     0.85000   0.25947   0.02492   0.00000  Uiso   1.00
C391   C     0.08714   0.50127   0.24727   0.00000  Uiso   1.00
C392   C     0.30768   0.54274   0.23353   0.00000  Uiso   1.00
C393   C     0.31503   0.45988   0.23082   0.00000  Uiso   1.00
C394   C     0.01671   0.54412   0.24484   0.00000  Uiso   1.00
C395   C     0.18207   0.55030   0.04769   0.00000  Uiso   1.00
C396   C     0.20580   0.48722   0.45518   0.00000  Uiso   1.00
C397   C     0.14146   0.53267   0.45027   0.00000  Uiso   1.00
C398   C     0.17563   0.46663   0.04700   0.00000  Uiso   1.00
C399   C     0.18383   0.54719   0.09457   0.00000  Uiso   1.00
C400   C     0.19805   0.47479   0.41138   0.00000  Uiso   1.00
C401   C     0.13888   0.52924   0.40399   0.00000  Uiso   1.00
C402   C     0.24572   0.49936   0.24660   0.00000  Uiso   1.00
C403   C     0.17970   0.46355   0.09319   0.00000  Uiso   1.00
C404   C     0.17753   0.50401   0.11698   0.00000  Uiso   1.00
C405   C     0.16657   0.49872   0.38417   0.00000  Uiso   1.00
C406   C     0.17637   0.51003   0.02425   0.00000  Uiso   1.00
C407   C     0.17515   0.51169   0.47564   0.00000  Uiso   1.00
C408   C     0.28990   0.49949   0.23832   0.00000  Uiso   1.00
C409   C     0.04182   0.50425   0.23904   0.00000  Uiso   1.00
C410   C     0.10709   0.38413   0.14945   0.00000  Uiso   1.00
C411   C     0.21064   0.61650   0.35870   0.00000  Uiso   1.00
C412   C     0.25901   0.37081   0.31865   0.00000  Uiso   1.00
C413   C     0.17048   0.50099   0.16528   0.00000  Uiso   1.00
C414   C     0.10104   0.60694   0.16274   0.00000  Uiso   1.00
C415   C     0.22258   0.59841   0.00887   0.00000  Uiso   1.00
C416   C     0.27488   0.49232   0.47042   0.00000  Uiso   1.00
C417   C     0.07924   0.53194   0.47996   0.00000  Uiso   1.00
C418   C     0.13541   0.41358   0.01489   0.00000  Uiso   1.00
C419   C     0.19541   0.63162   0.10598   0.00000  Uiso   1.00
C420   C     0.20923   0.39270   0.42139   0.00000  Uiso   1.00
C421   C     0.10548   0.60399   0.37902   0.00000  Uiso   1.00
C422   C     0.23440   0.41422   0.12784   0.00000  Uiso   1.00
C423   C     0.04866   0.48315   0.14692   0.00000  Uiso   1.00
C424   C     0.16691   0.49910   0.33520   0.00000  Uiso   1.00
C425   C     0.27160   0.61758   0.21157   0.00000  Uiso   1.00
C426   C     0.33193   0.37633   0.24063   0.00000  Uiso   1.00
C427   C     0.02327   0.59529   0.30406   0.00000  Uiso   1.00
C428   C     0.13979   0.36072   0.22241   0.00000  Uiso   1.00
C429   C     0.19226   0.63926   0.27948   0.00000  Uiso   1.00
C430   C     0.19275   0.35587   0.27863   0.00000  Uiso   1.00
C431   C     0.13829   0.64447   0.22386   0.00000  Uiso   1.00
C432   C     0.02203   0.46759   0.21946   0.00000  Uiso   1.00
Cu433  Cu    0.16667   0.54689   0.25000   0.00000  Uiso   1.00
Cu434  Cu    0.16667   0.45311   0.25000   0.00000  Uiso   1.00
H435   H     0.08129   0.38685   0.21055   0.00000  Uiso   1.00
H436   H     0.26974   0.34242   0.29907   0.00000  Uiso   1.00
H437   H     0.26798   0.36146   0.35378   0.00000  Uiso   1.00
H438   H     0.27449   0.40305   0.31025   0.00000  Uiso   1.00
H439   H     0.07562   0.64340   0.21152   0.00000  Uiso   1.00
H440   H     0.07707   0.62598   0.14061   0.00000  Uiso   1.00
H441   H     0.09290   0.57032   0.16443   0.00000  Uiso   1.00
H442   H     0.13077   0.61009   0.14815   0.00000  Uiso   1.00
H443   H     0.22452   0.58278   0.47641   0.00000  Uiso   1.00
H444   H     0.24800   0.58457   0.03272   0.00000  Uiso   1.00
H445   H     0.22699   0.63594   0.00321   0.00000  Uiso   1.00
H446   H     0.13065   0.35920   0.13911   0.00000  Uiso   1.00
H447   H     0.27716   0.52311   0.49054   0.00000  Uiso   1.00
H448   H     0.27594   0.50288   0.43472   0.00000  Uiso   1.00
H449   H     0.30246   0.46952   0.47972   0.00000  Uiso   1.00
H450   H     0.08801   0.50688   0.00815   0.00000  Uiso   1.00
H451   H     0.06707   0.51365   0.45075   0.00000  Uiso   1.00
H452   H     0.05392   0.55484   0.49019   0.00000  Uiso   1.00
H453   H     0.12021   0.43623   0.48761   0.00000  Uiso   1.00
H454   H     0.11703   0.41377   0.04461   0.00000  Uiso   1.00
H455   H     0.13622   0.37777   0.00353   0.00000  Uiso   1.00
H456   H     0.22606   0.57395   0.13978   0.00000  Uiso   1.00
H457   H     0.11192   0.41828   0.13321   0.00000  Uiso   1.00
H458   H     0.19580   0.65212   0.13587   0.00000  Uiso   1.00
H459   H     0.16564   0.63956   0.08681   0.00000  Uiso   1.00
H460   H     0.22162   0.64192   0.08675   0.00000  Uiso   1.00
H461   H     0.25033   0.43864   0.39629   0.00000  Uiso   1.00
H462   H     0.21719   0.39392   0.45731   0.00000  Uiso   1.00
H463   H     0.22721   0.36291   0.41038   0.00000  Uiso   1.00
H464   H     0.17597   0.38634   0.41594   0.00000  Uiso   1.00
H465   H     0.09751   0.54110   0.34824   0.00000  Uiso   1.00
H466   H     0.11180   0.61915   0.34593   0.00000  Uiso   1.00
H467   H     0.12849   0.61640   0.40381   0.00000  Uiso   1.00
H468   H     0.07624   0.37321   0.13766   0.00000  Uiso   1.00
H469   H     0.07460   0.61653   0.38762   0.00000  Uiso   1.00
H470   H     0.18020   0.39223   0.09910   0.00000  Uiso   1.00
H471   H     0.25217   0.41269   0.09785   0.00000  Uiso   1.00
H472   H     0.24044   0.38152   0.14811   0.00000  Uiso   1.00
H473   H     0.24500   0.44328   0.14762   0.00000  Uiso   1.00
H474   H     0.01569   0.42708   0.16493   0.00000  Uiso   1.00
H475   H     0.05070   0.46714   0.11456   0.00000  Uiso   1.00
H476   H     0.07962   0.49457   0.15718   0.00000  Uiso   1.00
H477   H     0.02638   0.51326   0.14230   0.00000  Uiso   1.00
H478   H     0.30715   0.57747   0.17218   0.00000  Uiso   1.00
H479   H     0.24476   0.59842   0.30459   0.00000  Uiso   1.00
H480   H     0.28457   0.64676   0.19280   0.00000  Uiso   1.00
H481   H     0.27690   0.62225   0.24712   0.00000  Uiso   1.00
H482   H     0.23809   0.61840   0.20308   0.00000  Uiso   1.00
H483   H     0.27473   0.40714   0.21488   0.00000  Uiso   1.00
H484   H     0.31952   0.34675   0.25822   0.00000  Uiso   1.00
H485   H     0.02548   0.38649   0.26178   0.00000  Uiso   1.00
H486   H     0.00843   0.36441   0.20866   0.00000  Uiso   1.00
H487   H     0.02342   0.61312   0.23824   0.00000  Uiso   1.00
H488   H     0.32308   0.60197   0.30591   0.00000  Uiso   1.00
H489   H     0.03912   0.62656   0.31432   0.00000  Uiso   1.00
H490   H     0.23919   0.62796   0.37570   0.00000  Uiso   1.00
H491   H     0.03282   0.56557   0.32724   0.00000  Uiso   1.00
H492   H     0.20456   0.58252   0.37447   0.00000  Uiso   1.00
H493   H     0.18461   0.64096   0.36366   0.00000  Uiso   1.00
H494   H     0.19914   0.38176   0.33933   0.00000  Uiso   1.00
N495   N     0.16667   0.61736   0.25000   0.00000  Uiso   1.00
N496   N     0.19092   0.42010   0.11535   0.00000  Uiso   1.00
N497   N     0.03547   0.44960   0.17949   0.00000  Uiso   1.00
N498   N     0.28988   0.57428   0.19940   0.00000  Uiso   1.00
N499   N     0.30099   0.41391   0.23356   0.00000  Uiso   1.00
N500   N     0.03301   0.58563   0.25952   0.00000  Uiso   1.00
N501   N     0.16667   0.38264   0.25000   0.00000  Uiso   1.00
N502   N     0.10924   0.38805   0.19692   0.00000  Uiso   1.00
N503   N     0.21659   0.61160   0.31226   0.00000  Uiso   1.00
N504   N     0.21509   0.37900   0.31166   0.00000  Uiso   1.00
N505   N     0.10192   0.62430   0.20660   0.00000  Uiso   1.00
N506   N     0.19993   0.58331   0.12011   0.00000  Uiso   1.00
N507   N     0.21910   0.43502   0.39714   0.00000  Uiso   1.00
N508   N     0.10641   0.55399   0.37823   0.00000  Uiso   1.00
O509   O     0.10655   0.53958   0.24999   0.00000  Uiso   1.00
O510   O     0.23970   0.46804   0.48039   0.00000  Uiso   1.00
O511   O     0.11255   0.55937   0.47021   0.00000  Uiso   1.00
O512   O     0.17615   0.42641   0.02415   0.00000  Uiso   1.00
O513   O     0.22679   0.46042   0.25001   0.00000  Uiso   1.00
O514   O     0.22679   0.53958   0.25000   0.00000  Uiso   1.00
O515   O     0.10655   0.46042   0.24999   0.00000  Uiso   1.00
O516   O     0.16666   0.53959   0.18573   0.00000  Uiso   1.00
O517   O     0.16667   0.46041   0.31427   0.00000  Uiso   1.00
O518   O     0.16667   0.53959   0.31427   0.00000  Uiso   1.00
O519   O     0.16666   0.46041   0.18573   0.00000  Uiso   1.00
O520   O     0.18333   0.59280   0.02492   0.00000  Uiso   1.00
C521   C     0.42047   0.50127   0.24727   0.00000  Uiso   1.00
C522   C     0.64101   0.54274   0.23353   0.00000  Uiso   1.00
C523   C     0.64836   0.45988   0.23082   0.00000  Uiso   1.00
C524   C     0.35005   0.54412   0.24484   0.00000  Uiso   1.00
C525   C     0.51540   0.55030   0.04769   0.00000  Uiso   1.00
C526   C     0.53913   0.48722   0.45518   0.00000  Uiso   1.00
C527   C     0.47480   0.53267   0.45027   0.00000  Uiso   1.00
C528   C     0.50896   0.46663   0.04700   0.00000  Uiso   1.00
C529   C     0.51717   0.54719   0.09457   0.00000  Uiso   1.00
C530   C     0.53139   0.47479   0.41138   0.00000  Uiso   1.00
C531   C     0.47221   0.52924   0.40399   0.00000  Uiso   1.00
C532   C     0.57905   0.49936   0.24660   0.00000  Uiso   1.00
C533   C     0.51304   0.46355   0.09319   0.00000  Uiso   1.00
C534   C     0.51086   0.50401   0.11698   0.00000  Uiso   1.00
C535   C     0.49991   0.49872   0.38417   0.00000  Uiso   1.00
C536   C     0.50971   0.51003   0.02425   0.00000  Uiso   1.00
C537   C     0.50848   0.51169   0.47564   0.00000  Uiso   1.00
C538   C     0.62324   0.49949   0.23832   0.00000  Uiso   1.00
C539   C     0.37515   0.50425   0.23904   0.00000  Uiso   1.00
C540   C     0.44043   0.38413   0.14945   0.00000  Uiso   1.00
C541   C     0.54397   0.61650   0.35870   0.00000  Uiso   1.00
C542   C     0.59234   0.37081   0.31865   0.00000  Uiso   1.00
C543   C     0.50382   0.50099   0.16528   0.00000  Uiso   1.00
C544   C     0.43437   0.60694   0.16274   0.00000  Uiso   1.00
C545   C     0.55591   0.59841   0.00887   0.00000  Uiso   1.00
C546   C     0.60822   0.49232   0.47042   0.00000  Uiso   1.00
C547   C     0.41257   0.53194   0.47996   0.00000  Uiso   1.00
C548   C     0.46874   0.41358   0.01489   0.00000  Uiso   1.00
C549   C     0.52874   0.63162   0.10598   0.00000  Uiso   1.00
C550   C     0.54256   0.39270   0.42139   0.00000  Uiso   1.00
C551   C     0.43881   0.60399   0.37902   0.00000  Uiso   1.00
C552   C     0.56773   0.41422   0.12784   0.00000  Uiso   1.00
C553   C     0.38199   0.48315   0.14692   0.00000  Uiso   1.00
C554   C     0.50024   0.49910   0.33520   0.00000  Uiso   1.00
C555   C     0.60493   0.61758   0.21157   0.00000  Uiso   1.00
C556   C     0.66526   0.37633   0.24063   0.00000  Uiso   1.00
C557   C     0.35660   0.59529   0.30406   0.00000  Uiso   1.00
C558   C     0.47312   0.36072   0.22241   0.00000  Uiso   1.00
C559   C     0.52559   0.63926   0.27948   0.00000  Uiso   1.00
C560   C     0.52609   0.35587   0.27863   0.00000  Uiso   1.00
C561   C     0.47162   0.64447   0.22386   0.00000  Uiso   1.00
C562   C     0.35537   0.46759   0.21946   0.00000  Uiso   1.00
Cu563  Cu    0.50000   0.54689   0.25000   0.00000  Uiso   1.00
Cu564  Cu    0.50000   0.45311   0.25000   0.00000  Uiso   1.00
H565   H     0.41463   0.38685   0.21055   0.00000  Uiso   1.00
H566   H     0.60307   0.34242   0.29907   0.00000  Uiso   1.00
H567   H     0.60131   0.36146   0.35378   0.00000  Uiso   1.00
H568   H     0.60782   0.40305   0.31025   0.00000  Uiso   1.00
H569   H     0.40895   0.64340   0.21152   0.00000  Uiso   1.00
H570   H     0.41040   0.62598   0.14061   0.00000  Uiso   1.00
H571   H     0.42624   0.57032   0.16443   0.00000  Uiso   1.00
H572   H     0.46411   0.61009   0.14815   0.00000  Uiso   1.00
H573   H     0.55785   0.58278   0.47641   0.00000  Uiso   1.00
H574   H     0.58134   0.58457   0.03272   0.00000  Uiso   1.00
H575   H     0.56032   0.63594   0.00321   0.00000  Uiso   1.00
H576   H     0.46399   0.35920   0.13911   0.00000  Uiso   1.00
H577   H     0.61049   0.52311   0.49054   0.00000  Uiso   1.00
H578   H     0.60927   0.50288   0.43472   0.00000  Uiso   1.00
H579   H     0.63580   0.46952   0.47972   0.00000  Uiso   1.00
H580   H     0.42135   0.50688   0.00815   0.00000  Uiso   1.00
H581   H     0.40041   0.51365   0.45075   0.00000  Uiso   1.00
H582   H     0.38726   0.55484   0.49019   0.00000  Uiso   1.00
H583   H     0.45354   0.43623   0.48761   0.00000  Uiso   1.00
H584   H     0.45037   0.41377   0.04461   0.00000  Uiso   1.00
H585   H     0.46955   0.37777   0.00353   0.00000  Uiso   1.00
H586   H     0.55940   0.57395   0.13978   0.00000  Uiso   1.00
H587   H     0.44526   0.41828   0.13321   0.00000  Uiso   1.00
H588   H     0.52914   0.65212   0.13587   0.00000  Uiso   1.00
H589   H     0.49897   0.63956   0.08681   0.00000  Uiso   1.00
H590   H     0.55495   0.64192   0.08675   0.00000  Uiso   1.00
H591   H     0.58366   0.43864   0.39629   0.00000  Uiso   1.00
H592   H     0.55053   0.39392   0.45731   0.00000  Uiso   1.00
H593   H     0.56054   0.36291   0.41038   0.00000  Uiso   1.00
H594   H     0.50930   0.38634   0.41594   0.00000  Uiso   1.00
H595   H     0.43084   0.54110   0.34824   0.00000  Uiso   1.00
H596   H     0.44513   0.61915   0.34593   0.00000  Uiso   1.00
H597   H     0.46182   0.61640   0.40381   0.00000  Uiso   1.00
H598   H     0.40957   0.37321   0.13766   0.00000  Uiso   1.00
H599   H     0.40794   0.61653   0.38762   0.00000  Uiso   1.00
H600   H     0.51354   0.39223   0.09910   0.00000  Uiso   1.00
H601   H     0.58550   0.41269   0.09785   0.00000  Uiso   1.00
H602   H     0.57377   0.38152   0.14811   0.00000  Uiso   1.00
H603   H     0.57833   0.44328   0.14762   0.00000  Uiso   1.00
H604   H     0.34902   0.42708   0.16493   0.00000  Uiso   1.00
H605   H     0.38403   0.46714   0.11456   0.00000  Uiso   1.00
H606   H     0.41295   0.49457   0.15718   0.00000  Uiso   1.00
H607   H     0.35971   0.51326   0.14230   0.00000  Uiso   1.00
H608   H     0.64049   0.57747   0.17218   0.00000  Uiso   1.00
H609   H     0.57810   0.59842   0.30459   0.00000  Uiso   1.00
H610   H     0.61790   0.64676   0.19280   0.00000  Uiso   1.00
H611   H     0.61024   0.62225   0.24712   0.00000  Uiso   1.00
H612   H     0.57142   0.61840   0.20308   0.00000  Uiso   1.00
H613   H     0.60807   0.40714   0.21488   0.00000  Uiso   1.00
H614   H     0.65285   0.34675   0.25822   0.00000  Uiso   1.00
H615   H     0.35882   0.38649   0.26178   0.00000  Uiso   1.00
H616   H     0.34176   0.36441   0.20866   0.00000  Uiso   1.00
H617   H     0.35675   0.61312   0.23824   0.00000  Uiso   1.00
H618   H     0.65641   0.60197   0.30591   0.00000  Uiso   1.00
H619   H     0.37245   0.62656   0.31432   0.00000  Uiso   1.00
H620   H     0.57253   0.62796   0.37570   0.00000  Uiso   1.00
H621   H     0.36616   0.56557   0.32724   0.00000  Uiso   1.00
H622   H     0.53789   0.58252   0.37447   0.00000  Uiso   1.00
H623   H     0.51795   0.64096   0.36366   0.00000  Uiso   1.00
H624   H     0.53247   0.38176   0.33933   0.00000  Uiso   1.00
N625   N     0.50000   0.61736   0.25000   0.00000  Uiso   1.00
N626   N     0.52425   0.42010   0.11535   0.00000  Uiso   1.00
N627   N     0.36881   0.44960   0.17949   0.00000  Uiso   1.00
N628   N     0.62321   0.57428   0.19940   0.00000  Uiso   1.00
N629   N     0.63433   0.41391   0.23356   0.00000  Uiso   1.00
N630   N     0.36634   0.58563   0.25952   0.00000  Uiso   1.00
N631   N     0.50000   0.38264   0.25000   0.00000  Uiso   1.00
N632   N     0.44258   0.38805   0.19692   0.00000  Uiso   1.00
N633   N     0.54993   0.61160   0.31226   0.00000  Uiso   1.00
N634   N     0.54842   0.37900   0.31166   0.00000  Uiso   1.00
N635   N     0.43525   0.62430   0.20660   0.00000  Uiso   1.00
N636   N     0.53326   0.58331   0.12011   0.00000  Uiso   1.00
N637   N     0.55244   0.43502   0.39714   0.00000  Uiso   1.00
N638   N     0.43975   0.55399   0.37823   0.00000  Uiso   1.00
O639   O     0.43988   0.53958   0.24999   0.00000  Uiso   1.00
O640   O     0.57304   0.46804   0.48039   0.00000  Uiso   1.00
O641   O     0.44588   0.55937   0.47021   0.00000  Uiso   1.00
O642   O     0.50948   0.42641   0.02415   0.00000  Uiso   1.00
O643   O     0.56012   0.46042   0.25001   0.00000  Uiso   1.00
O644   O     0.56012   0.53958   0.25000   0.00000  Uiso   1.00
O645   O     0.43988   0.46042   0.24999   0.00000  Uiso   1.00
O646   O     0.50000   0.53959   0.18573   0.00000  Uiso   1.00
O647   O     0.50000   0.46041   0.31427   0.00000  Uiso   1.00
O648   O     0.50000   0.53959   0.31427   0.00000  Uiso   1.00
O649   O     0.50000   0.46041   0.18573   0.00000  Uiso   1.00
O650   O     0.51667   0.59280   0.02492   0.00000  Uiso   1.00
C651   C     0.75380   0.50127   0.24727   0.00000  Uiso   1.00
C652   C     0.97434   0.54274   0.23353   0.00000  Uiso   1.00
C653   C     0.98169   0.45988   0.23082   0.00000  Uiso   1.00
C654   C     0.68338   0.54412   0.24484   0.00000  Uiso   1.00
C655   C     0.84873   0.55030   0.04769   0.00000  Uiso   1.00
C656   C     0.87246   0.48722   0.45518   0.00000  Uiso   1.00
C657   C     0.80813   0.53267   0.45027   0.00000  Uiso   1.00
C658   C     0.84230   0.46663   0.04700   0.00000  Uiso   1.00
C659   C     0.85050   0.54719   0.09457   0.00000  Uiso   1.00
C660   C     0.86472   0.47479   0.41138   0.00000  Uiso   1.00
C661   C     0.80555   0.52924   0.40399   0.00000  Uiso   1.00
C662   C     0.91239   0.49936   0.24660   0.00000  Uiso   1.00
C663   C     0.84637   0.46355   0.09319   0.00000  Uiso   1.00
C664   C     0.84419   0.50401   0.11698   0.00000  Uiso   1.00
C665   C     0.83324   0.49872   0.38417   0.00000  Uiso   1.00
C666   C     0.84304   0.51003   0.02425   0.00000  Uiso   1.00
C667   C     0.84182   0.51169   0.47564   0.00000  Uiso   1.00
C668   C     0.95657   0.49949   0.23832   0.00000  Uiso   1.00
C669   C     0.70848   0.50425   0.23904   0.00000  Uiso   1.00
C670   C     0.77376   0.38413   0.14945   0.00000  Uiso   1.00
C671   C     0.87731   0.61650   0.35870   0.00000  Uiso   1.00
C672   C     0.92568   0.37081   0.31865   0.00000  Uiso   1.00
C673   C     0.83715   0.50099   0.16528   0.00000  Uiso   1.00
C674   C     0.76771   0.60694   0.16274   0.00000  Uiso   1.00
C675   C     0.88924   0.59841   0.00887   0.00000  Uiso   1.00
C676   C     0.94155   0.49232   0.47042   0.00000  Uiso   1.00
C677   C     0.74591   0.53194   0.47996   0.00000  Uiso   1.00
C678   C     0.80208   0.41358   0.01489   0.00000  Uiso   1.00
C679   C     0.86207   0.63162   0.10598   0.00000  Uiso   1.00
C680   C     0.87590   0.39270   0.42139   0.00000  Uiso   1.00
C681   C     0.77214   0.60399   0.37902   0.00000  Uiso   1.00
C682   C     0.90107   0.41422   0.12784   0.00000  Uiso   1.00
C683   C     0.71532   0.48315   0.14692   0.00000  Uiso   1.00
C684   C     0.83357   0.49910   0.33520   0.00000  Uiso   1.00
C685   C     0.93827   0.61758   0.21157   0.00000  Uiso   1.00
C686   C     0.99859   0.37633   0.24063   0.00000  Uiso   1.00
C687   C     0.68993   0.59529   0.30406   0.00000  Uiso   1.00
C688   C     0.80646   0.36072   0.22241   0.00000  Uiso   1.00
C689   C     0.85893   0.63926   0.27948   0.00000  Uiso   1.00
C690   C     0.85942   0.35587   0.27863   0.00000  Uiso   1.00
C691   C     0.80495   0.64447   0.22386   0.00000  Uiso   1.00
C692   C     0.68870   0.46759   0.21946   0.00000  Uiso   1.00
Cu693  Cu    0.83333   0.54689   0.25000   0.00000  Uiso   1.00
Cu694  Cu    0.83333   0.45311   0.25000   0.00000  Uiso   1.00
H695   H     0.74796   0.38685   0.21055   0.00000  Uiso   1.00
H696   H     0.93640   0.34242   0.29907   0.00000  Uiso   1.00
H697   H     0.93464   0.36146   0.35378   0.00000  Uiso   1.00
H698   H     0.94116   0.40305   0.31025   0.00000  Uiso   1.00
H699   H     0.74229   0.64340   0.21152   0.00000  Uiso   1.00
H700   H     0.74373   0.62598   0.14061   0.00000  Uiso   1.00
H701   H     0.75957   0.57032   0.16443   0.00000  Uiso   1.00
H702   H     0.79744   0.61009   0.14815   0.00000  Uiso   1.00
H703   H     0.89119   0.58278   0.47641   0.00000  Uiso   1.00
H704   H     0.91467   0.58457   0.03272   0.00000  Uiso   1.00
H705   H     0.89366   0.63594   0.00321   0.00000  Uiso   1.00
H706   H     0.79732   0.35920   0.13911   0.00000  Uiso   1.00
H707   H     0.94382   0.52311   0.49054   0.00000  Uiso   1.00
H708   H     0.94261   0.50288   0.43472   0.00000  Uiso   1.00
H709   H     0.96913   0.46952   0.47972   0.00000  Uiso   1.00
H710   H     0.75468   0.50688   0.00815   0.00000  Uiso   1.00
H711   H     0.73374   0.51365   0.45075   0.00000  Uiso   1.00
H712   H     0.72059   0.55484   0.49019   0.00000  Uiso   1.00
H713   H     0.78688   0.43623   0.48761   0.00000  Uiso   1.00
H714   H     0.78370   0.41377   0.04461   0.00000  Uiso   1.00
H715   H     0.80288   0.37777   0.00353   0.00000  Uiso   1.00
H716   H     0.89273   0.57395   0.13978   0.00000  Uiso   1.00
H717   H     0.77859   0.41828   0.13321   0.00000  Uiso   1.00
H718   H     0.86247   0.65212   0.13587   0.00000  Uiso   1.00
H719   H     0.83231   0.63956   0.08681   0.00000  Uiso   1.00
H720   H     0.88829   0.64192   0.08675   0.00000  Uiso   1.00
H721   H     0.91699   0.43864   0.39629   0.00000  Uiso   1.00
H722   H     0.88386   0.39392   0.45731   0.00000  Uiso   1.00
H723   H     0.89387   0.36291   0.41038   0.00000  Uiso   1.00
H724   H     0.84264   0.38634   0.41594   0.00000  Uiso   1.00
H725   H     0.76417   0.54110   0.34824   0.00000  Uiso   1.00
H726   H     0.77847   0.61915   0.34593   0.00000  Uiso   1.00
H727   H     0.79515   0.61640   0.40381   0.00000  Uiso   1.00
H728   H     0.74291   0.37321   0.13766   0.00000  Uiso   1.00
H729   H     0.74127   0.61653   0.38762   0.00000  Uiso   1.00
H730   H     0.84687   0.39223   0.09910   0.00000  Uiso   1.00
H731   H     0.91883   0.41269   0.09785   0.00000  Uiso   1.00
H732   H     0.90711   0.38152   0.14811   0.00000  Uiso   1.00
H733   H     0.91167   0.44328   0.14762   0.00000  Uiso   1.00
H734   H     0.68236   0.42708   0.16493   0.00000  Uiso   1.00
H735   H     0.71737   0.46714   0.11456   0.00000  Uiso   1.00
H736   H     0.74628   0.49457   0.15718   0.00000  Uiso   1.00
H737   H     0.69304   0.51326   0.14230   0.00000  Uiso   1.00
H738   H     0.97382   0.57747   0.17218   0.00000  Uiso   1.00
H739   H     0.91143   0.59842   0.30459   0.00000  Uiso   1.00
H740   H     0.95123   0.64676   0.19280   0.00000  Uiso   1.00
H741   H     0.94357   0.62225   0.24712   0.00000  Uiso   1.00
H742   H     0.90475   0.61840   0.20308   0.00000  Uiso   1.00
H743   H     0.94140   0.40714   0.21488   0.00000  Uiso   1.00
H744   H     0.98618   0.34675   0.25822   0.00000  Uiso   1.00
H745   H     0.69215   0.38649   0.26178   0.00000  Uiso   1.00
H746   H     0.67510   0.36441   0.20866   0.00000  Uiso   1.00
H747   H     0.69008   0.61312   0.23824   0.00000  Uiso   1.00
H748   H     0.98975   0.60197   0.30591   0.00000  Uiso   1.00
H749   H     0.70578   0.62656   0.31432   0.00000  Uiso   1.00
H750   H     0.90586   0.62796   0.37570   0.00000  Uiso   1.00
H751   H     0.69949   0.56557   0.32724   0.00000  Uiso   1.00
H752   H     0.87122   0.58252   0.37447   0.00000  Uiso   1.00
H753   H     0.85128   0.64096   0.36366   0.00000  Uiso   1.00
H754   H     0.86581   0.38176   0.33933   0.00000  Uiso   1.00
N755   N     0.83333   0.61736   0.25000   0.00000  Uiso   1.00
N756   N     0.85759   0.42010   0.11535   0.00000  Uiso   1.00
N757   N     0.70214   0.44960   0.17949   0.00000  Uiso   1.00
N758   N     0.95654   0.57428   0.19940   0.00000  Uiso   1.00
N759   N     0.96766   0.41391   0.23356   0.00000  Uiso   1.00
N760   N     0.69968   0.58563   0.25952   0.00000  Uiso   1.00
N761   N     0.83333   0.38264   0.25000   0.00000  Uiso   1.00
N762   N     0.77591   0.38805   0.19692   0.00000  Uiso   1.00
N763   N     0.88326   0.61160   0.31226   0.00000  Uiso   1.00
N764   N     0.88175   0.37900   0.31166   0.00000  Uiso   1.00
N765   N     0.76859   0.62430   0.20660   0.00000  Uiso   1.00
N766   N     0.86659   0.58331   0.12011   0.00000  Uiso   1.00
N767   N     0.88577   0.43502   0.39714   0.00000  Uiso   1.00
N768   N     0.77308   0.55399   0.37823   0.00000  Uiso   1.00
O769   O     0.77321   0.53958   0.24999   0.00000  Uiso   1.00
O770   O     0.90637   0.46804   0.48039   0.00000  Uiso   1.00
O771   O     0.77922   0.55937   0.47021   0.00000  Uiso   1.00
O772   O     0.84281   0.42641   0.02415   0.00000  Uiso   1.00
O773   O     0.89345   0.46042   0.25001   0.00000  Uiso   1.00
O774   O     0.89345   0.53958   0.25000   0.00000  Uiso   1.00
O775   O     0.77321   0.46042   0.24999   0.00000  Uiso   1.00
O776   O     0.83333   0.53959   0.18573   0.00000  Uiso   1.00
O777   O     0.83334   0.46041   0.31427   0.00000  Uiso   1.00
O778   O     0.83334   0.53959   0.31427   0.00000  Uiso   1.00
O779   O     0.83333   0.46041   0.18573   0.00000  Uiso   1.00
O780   O     0.85000   0.59280   0.02492   0.00000  Uiso   1.00
C781   C     0.08714   0.83460   0.24727   0.00000  Uiso   1.00
C782   C     0.30768   0.87608   0.23353   0.00000  Uiso   1.00
C783   C     0.31503   0.79322   0.23082   0.00000  Uiso   1.00
C784   C     0.01671   0.87745   0.24484   0.00000  Uiso   1.00
C785   C     0.18207   0.88363   0.04769   0.00000  Uiso   1.00
C786   C     0.20580   0.82055   0.45518   0.00000  Uiso   1.00
C787   C     0.14146   0.86601   0.45027   0.00000  Uiso   1.00
C788   C     0.17563   0.79996   0.04700   0.00000  Uiso   1.00
C789   C     0.18383   0.88052   0.09457   0.00000  Uiso   1.00
C790   C     0.19805   0.80813   0.41138   0.00000  Uiso   1.00
C791   C     0.13888   0.86257   0.40399   0.00000  Uiso   1.00
C792   C     0.24572   0.83269   0.24660   0.00000  Uiso   1.00
C793   C     0.17970   0.79688   0.09319   0.00000  Uiso   1.00
C794   C     0.17753   0.83734   0.11698   0.00000  Uiso   1.00
C795   C     0.16657   0.83205   0.38417   0.00000  Uiso   1.00
C796   C     0.17637   0.84337   0.02425   0.00000  Uiso   1.00
C797   C     0.17515   0.84503   0.47564   0.00000  Uiso   1.00
C798   C     0.28990   0.83283   0.23832   0.00000  Uiso   1.00
C799   C     0.04182   0.83759   0.23904   0.00000  Uiso   1.00
C800   C     0.10709   0.71747   0.14945   0.00000  Uiso   1.00
C801   C     0.21064   0.94983   0.35870   0.00000  Uiso   1.00
C802   C     0.25901   0.70414   0.31865   0.00000  Uiso   1.00
C803   C     0.17048   0.83432   0.16528   0.00000  Uiso   1.00
C804   C     0.10104   0.94027   0.16274   0.00000  Uiso   1.00
C805   C     0.22258   0.93174   0.00887   0.00000  Uiso   1.00
C806   C     0.27488   0.82565   0.47042   0.00000  Uiso   1.00
C807   C     0.07924   0.86527   0.47996   0.00000  Uiso   1.00
C808   C     0.13541   0.74692   0.01489   0.00000  Uiso   1.00
C809   C     0.19541   0.96496   0.10598   0.00000  Uiso   1.00
C810   C     0.20923   0.72603   0.42139   0.00000  Uiso   1.00
C811   C     0.10548   0.93732   0.37902   0.00000  Uiso   1.00
C812   C     0.23440   0.74756   0.12784   0.00000  Uiso   1.00
C813   C     0.04866   0.81648   0.14692   0.00000  Uiso   1.00
C814   C     0.16691   0.83244   0.33520   0.00000  Uiso   1.00
C815   C     0.27160   0.95092   0.21157   0.00000  Uiso   1.00
C816   C     0.33193   0.70966   0.24063   0.00000  Uiso   1.00
C817   C     0.02327   0.92862   0.30406   0.00000  Uiso   1.00
C818   C     0.13979   0.69405   0.22241   0.00000  Uiso   1.00
C819   C     0.19226   0.97259   0.27948   0.00000  Uiso   1.00
C820   C     0.19275   0.68920   0.27863   0.00000  Uiso   1.00
C821   C     0.13829   0.97781   0.22386   0.00000  Uiso   1.00
C822   C     0.02203   0.80092   0.21946   0.00000  Uiso   1.00
Cu823  Cu    0.16667   0.88022   0.25000   0.00000  Uiso   1.00
Cu824  Cu    0.16667   0.78645   0.25000   0.00000  Uiso   1.00
H825   H     0.08129   0.72018   0.21055   0.00000  Uiso   1.00
H826   H     0.26974   0.67575   0.29907   0.00000  Uiso   1.00
H827   H     0.26798   0.69480   0.35378   0.00000  Uiso   1.00
H828   H     0.27449   0.73638   0.31025   0.00000  Uiso   1.00
H829   H     0.07562   0.97673   0.21152   0.00000  Uiso   1.00
H830   H     0.07707   0.95932   0.14061   0.00000  Uiso   1.00
H831   H     0.09290   0.90366   0.16443   0.00000  Uiso   1.00
H832   H     0.13077   0.94342   0.14815   0.00000  Uiso   1.00
H833   H     0.22452   0.91611   0.47641   0.00000  Uiso   1.00
H834   H     0.24800   0.91790   0.03272   0.00000  Uiso   1.00
H835   H     0.22699   0.96928   0.00321   0.00000  Uiso   1.00
H836   H     0.13065   0.69254   0.13911   0.00000  Uiso   1.00
H837   H     0.27716   0.85644   0.49054   0.00000  Uiso   1.00
H838   H     0.27594   0.83622   0.43472   0.00000  Uiso   1.00
H839   H     0.30246   0.80285   0.47972   0.00000  Uiso   1.00
H840   H     0.08801   0.84021   0.00815   0.00000  Uiso   1.00
H841   H     0.06707   0.84699   0.45075   0.00000  Uiso   1.00
H842   H     0.05392   0.88818   0.49019   0.00000  Uiso   1.00
H843   H     0.12021   0.76957   0.48761   0.00000  Uiso   1.00
H844   H     0.11703   0.74710   0.04461   0.00000  Uiso   1.00
H845   H     0.13622   0.71110   0.00353   0.00000  Uiso   1.00
H846   H     0.22606   0.90729   0.13978   0.00000  Uiso   1.00
H847   H     0.11192   0.75161   0.13321   0.00000  Uiso   1.00
H848   H     0.19580   0.98546   0.13587   0.00000  Uiso   1.00
H849   H     0.16564   0.97289   0.08681   0.00000  Uiso   1.00
H850   H     0.22162   0.97526   0.08675   0.00000  Uiso   1.00
H851   H     0.25033   0.77197   0.39629   0.00000  Uiso   1.00
H852   H     0.21719   0.72726   0.45731   0.00000  Uiso   1.00
H853   H     0.22721   0.69624   0.41038   0.00000  Uiso   1.00
H854   H     0.17597   0.71967   0.41594   0.00000  Uiso   1.00
H855   H     0.09751   0.87444   0.34824   0.00000  Uiso   1.00
H856   H     0.11180   0.95248   0.34593   0.00000  Uiso   1.00
H857   H     0.12849   0.94973   0.40381   0.00000  Uiso   1.00
H858   H     0.07624   0.70654   0.13766   0.00000  Uiso   1.00
H859   H     0.07460   0.94986   0.38762   0.00000  Uiso   1.00
H860   H     0.18020   0.72556   0.09910   0.00000  Uiso   1.00
H861   H     0.25217   0.74602   0.09785   0.00000  Uiso   1.00
H862   H     0.24044   0.71485   0.14811   0.00000  Uiso   1.00
H863   H     0.24500   0.77661   0.14762   0.00000  Uiso   1.00
H864   H     0.01569   0.76041   0.16493   0.00000  Uiso   1.00
H865   H     0.05070   0.80047   0.11456   0.00000  Uiso   1.00
H866   H     0.07962   0.82791   0.15718   0.00000  Uiso   1.00
H867   H     0.02638   0.84660   0.14230   0.00000  Uiso   1.00
H868   H     0.30715   0.91081   0.17218   0.00000  Uiso   1.00
H869   H     0.24476   0.93175   0.30459   0.00000  Uiso   1.00
H870   H     0.28457   0.98010   0.19280   0.00000  Uiso   1.00
H871   H     0.27690   0.95558   0.24712   0.00000  Uiso   1.00
H872   H     0.23809   0.95173   0.20308   0.00000  Uiso   1.00
H873   H     0.27473   0.74048   0.21488   0.00000  Uiso   1.00
H874   H     0.31952   0.68009   0.25822   0.00000  Uiso   1.00
H875   H     0.02548   0.71982   0.26178   0.00000  Uiso   1.00
H876   H     0.00843   0.69774   0.20866   0.00000  Uiso   1.00
H877   H     0.02342   0.94645   0.23824   0.00000  Uiso   1.00
H878   H     0.32308   0.93531   0.30591   0.00000  Uiso   1.00
H879   H     0.03912   0.95989   0.31432   0.00000  Uiso   1.00
H880   H     0.23919   0.96129   0.37570   0.00000  Uiso   1.00
H881   H     0.03282   0.89890   0.32724   0.00000  Uiso   1.00
H882   H     0.20456   0.91585   0.37447   0.00000  Uiso   1.00
H883   H     0.18461   0.97429   0.36366   0.00000  Uiso   1.00
H884   H     0.19914   0.71509   0.33933   0.00000  Uiso   1.00
N885   N     0.16667   0.95069   0.25000   0.00000  Uiso   1.00
N886   N     0.19092   0.75343   0.11535   0.00000  Uiso   1.00
N887   N     0.03547   0.78293   0.17949   0.00000  Uiso   1.00
N888   N     0.28988   0.90761   0.19940   0.00000  Uiso   1.00
N889   N     0.30099   0.74724   0.23356   0.00000  Uiso   1.00
N890   N     0.03301   0.91896   0.25952   0.00000  Uiso   1.00
N891   N     0.16667   0.71598   0.25000   0.00000  Uiso   1.00
N892   N     0.10924   0.72139   0.19692   0.00000  Uiso   1.00
N893   N     0.21659   0.94493   0.31226   0.00000  Uiso   1.00
N894   N     0.21509   0.71234   0.31166   0.00000  Uiso   1.00
N895   N     0.10192   0.95763   0.20660   0.00000  Uiso   1.00
N896   N     0.19993   0.91665   0.12011   0.00000  Uiso   1.00
N897   N     0.21910   0.76836   0.39714   0.00000  Uiso   1.00
N898   N     0.10641   0.88732   0.37823   0.00000  Uiso   1.00
O899   O     0.10655   0.87291   0.24999   0.00000  Uiso   1.00
O900   O     0.23970   0.80138   0.48039   0.00000  Uiso   1.00
O901   O     0.11255   0.89270   0.47021   0.00000  Uiso   1.00
O902   O     0.17615   0.75975   0.02415   0.00000  Uiso   1.00
O903   O     0.22679   0.79375   0.25001   0.00000  Uiso   1.00
O904   O     0.22679   0.87291   0.25000   0.00000  Uiso   1.00
O905   O     0.10655   0.79375   0.24999   0.00000  Uiso   1.00
O906   O     0.16666   0.87293   0.18573   0.00000  Uiso   1.00
O907   O     0.16667   0.79374   0.31427   0.00000  Uiso   1.00
O908   O     0.16667   0.87293   0.31427   0.00000  Uiso   1.00
O909   O     0.16666   0.79374   0.18573   0.00000  Uiso   1.00
O910   O     0.18333   0.92614   0.02492   0.00000  Uiso   1.00
C911   C     0.42047   0.83460   0.24727   0.00000  Uiso   1.00
C912   C     0.64101   0.87608   0.23353   0.00000  Uiso   1.00
C913   C     0.64836   0.79322   0.23082   0.00000  Uiso   1.00
C914   C     0.35005   0.87745   0.24484   0.00000  Uiso   1.00
C915   C     0.51540   0.88363   0.04769   0.00000  Uiso   1.00
C916   C     0.53913   0.82055   0.45518   0.00000  Uiso   1.00
C917   C     0.47480   0.86601   0.45027   0.00000  Uiso   1.00
C918   C     0.50896   0.79996   0.04700   0.00000  Uiso   1.00
C919   C     0.51717   0.88052   0.09457   0.00000  Uiso   1.00
C920   C     0.53139   0.80813   0.41138   0.00000  Uiso   1.00
C921   C     0.47221   0.86257   0.40399   0.00000  Uiso   1.00
C922   C     0.57905   0.83269   0.24660   0.00000  Uiso   1.00
C923   C     0.51304   0.79688   0.09319   0.00000  Uiso   1.00
C924   C     0.51086   0.83734   0.11698   0.00000  Uiso   1.00
C925   C     0.49991   0.83205   0.38417   0.00000  Uiso   1.00
C926   C     0.50971   0.84337   0.02425   0.00000  Uiso   1.00
C927   C     0.50848   0.84503   0.47564   0.00000  Uiso   1.00
C928   C     0.62324   0.83283   0.23832   0.00000  Uiso   1.00
C929   C     0.37515   0.83759   0.23904   0.00000  Uiso   1.00
C930   C     0.44043   0.71747   0.14945   0.00000  Uiso   1.00
C931   C     0.54397   0.94983   0.35870   0.00000  Uiso   1.00
C932   C     0.59234   0.70414   0.31865   0.00000  Uiso   1.00
C933   C     0.50382   0.83432   0.16528   0.00000  Uiso   1.00
C934   C     0.43437   0.94027   0.16274   0.00000  Uiso   1.00
C935   C     0.55591   0.93174   0.00887   0.00000  Uiso   1.00
C936   C     0.60822   0.82565   0.47042   0.00000  Uiso   1.00
C937   C     0.41257   0.86527   0.47996   0.00000  Uiso   1.00
C938   C     0.46874   0.74692   0.01489   0.00000  Uiso   1.00
C939   C     0.52874   0.96496   0.10598   0.00000  Uiso   1.00
C940   C     0.54256   0.72603   0.42139   0.00000  Uiso   1.00
C941   C     0.43881   0.93732   0.37902   0.00000  Uiso   1.00
C942   C     0.56773   0.74756   0.12784   0.00000  Uiso   1.00
C943   C     0.38199   0.81648   0.14692   0.00000  Uiso   1.00
C944   C     0.50024   0.83244   0.33520   0.00000  Uiso   1.00
C945   C     0.60493   0.95092   0.21157   0.00000  Uiso   1.00
C946   C     0.66526   0.70966   0.24063   0.00000  Uiso   1.00
C947   C     0.35660   0.92862   0.30406   0.00000  Uiso   1.00
C948   C     0.47312   0.69405   0.22241   0.00000  Uiso   1.00
C949   C     0.52559   0.97259   0.27948   0.00000  Uiso   1.00
C950   C     0.52609   0.68920   0.27863   0.00000  Uiso   1.00
C951   C     0.47162   0.97781   0.22386   0.00000  Uiso   1.00
C952   C     0.35537   0.80092   0.21946   0.00000  Uiso   1.00
Cu953  Cu    0.50000   0.88022   0.25000   0.00000  Uiso   1.00
Cu954  Cu    0.50000   0.78645   0.25000   0.00000  Uiso   1.00
H955   H     0.41463   0.72018   0.21055   0.00000  Uiso   1.00
H956   H     0.60307   0.67575   0.29907   0.00000  Uiso   1.00
H957   H     0.60131   0.69480   0.35378   0.00000  Uiso   1.00
H958   H     0.60782   0.73638   0.31025   0.00000  Uiso   1.00
H959   H     0.40895   0.97673   0.21152   0.00000  Uiso   1.00
H960   H     0.41040   0.95932   0.14061   0.00000  Uiso   1.00
H961   H     0.42624   0.90366   0.16443   0.00000  Uiso   1.00
H962   H     0.46411   0.94342   0.14815   0.00000  Uiso   1.00
H963   H     0.55785   0.91611   0.47641   0.00000  Uiso   1.00
H964   H     0.58134   0.91790   0.03272   0.00000  Uiso   1.00
H965   H     0.56032   0.96928   0.00321   0.00000  Uiso   1.00
H966   H     0.46399   0.69254   0.13911   0.00000  Uiso   1.00
H967   H     0.61049   0.85644   0.49054   0.00000  Uiso   1.00
H968   H     0.60927   0.83622   0.43472   0.00000  Uiso   1.00
H969   H     0.63580   0.80285   0.47972   0.00000  Uiso   1.00
H970   H     0.42135   0.84021   0.00815   0.00000  Uiso   1.00
H971   H     0.40041   0.84699   0.45075   0.00000  Uiso   1.00
H972   H     0.38726   0.88818   0.49019   0.00000  Uiso   1.00
H973   H     0.45354   0.76957   0.48761   0.00000  Uiso   1.00
H974   H     0.45037   0.74710   0.04461   0.00000  Uiso   1.00
H975   H     0.46955   0.71110   0.00353   0.00000  Uiso   1.00
H976   H     0.55940   0.90729   0.13978   0.00000  Uiso   1.00
H977   H     0.44526   0.75161   0.13321   0.00000  Uiso   1.00
H978   H     0.52914   0.98546   0.13587   0.00000  Uiso   1.00
H979   H     0.49897   0.97289   0.08681   0.00000  Uiso   1.00
H980   H     0.55495   0.97526   0.08675   0.00000  Uiso   1.00
H981   H     0.58366   0.77197   0.39629   0.00000  Uiso   1.00
H982   H     0.55053   0.72726   0.45731   0.00000  Uiso   1.00
H983   H     0.56054   0.69624   0.41038   0.00000  Uiso   1.00
H984   H     0.50930   0.71967   0.41594   0.00000  Uiso   1.00
H985   H     0.43084   0.87444   0.34824   0.00000  Uiso   1.00
H986   H     0.44513   0.95248   0.34593   0.00000  Uiso   1.00
H987   H     0.46182   0.94973   0.40381   0.00000  Uiso   1.00
H988   H     0.40957   0.70654   0.13766   0.00000  Uiso   1.00
H989   H     0.40794   0.94986   0.38762   0.00000  Uiso   1.00
H990   H     0.51354   0.72556   0.09910   0.00000  Uiso   1.00
H991   H     0.58550   0.74602   0.09785   0.00000  Uiso   1.00
H992   H     0.57377   0.71485   0.14811   0.00000  Uiso   1.00
H993   H     0.57833   0.77661   0.14762   0.00000  Uiso   1.00
H994   H     0.34902   0.76041   0.16493   0.00000  Uiso   1.00
H995   H     0.38403   0.80047   0.11456   0.00000  Uiso   1.00
H996   H     0.41295   0.82791   0.15718   0.00000  Uiso   1.00
H997   H     0.35971   0.84660   0.14230   0.00000  Uiso   1.00
H998   H     0.64049   0.91081   0.17218   0.00000  Uiso   1.00
H999   H     0.57810   0.93175   0.30459   0.00000  Uiso   1.00
H1000  H     0.61790   0.98010   0.19280   0.00000  Uiso   1.00
H1001  H     0.61024   0.95558   0.24712   0.00000  Uiso   1.00
H1002  H     0.57142   0.95173   0.20308   0.00000  Uiso   1.00
H1003  H     0.60807   0.74048   0.21488   0.00000  Uiso   1.00
H1004  H     0.65285   0.68009   0.25822   0.00000  Uiso   1.00
H1005  H     0.35882   0.71982   0.26178   0.00000  Uiso   1.00
H1006  H     0.34176   0.69774   0.20866   0.00000  Uiso   1.00
H1007  H     0.35675   0.94645   0.23824   0.00000  Uiso   1.00
H1008  H     0.65641   0.93531   0.30591   0.00000  Uiso   1.00
H1009  H     0.37245   0.95989   0.31432   0.00000  Uiso   1.00
H1010  H     0.57253   0.96129   0.37570   0.00000  Uiso   1.00
H1011  H     0.36616   0.89890   0.32724   0.00000  Uiso   1.00
H1012  H     0.53789   0.91585   0.37447   0.00000  Uiso   1.00
H1013  H     0.51795   0.97429   0.36366   0.00000  Uiso   1.00
H1014  H     0.53247   0.71509   0.33933   0.00000  Uiso   1.00
N1015  N     0.50000   0.95069   0.25000   0.00000  Uiso   1.00
N1016  N     0.52425   0.75343   0.11535   0.00000  Uiso   1.00
N1017  N     0.36881   0.78293   0.17949   0.00000  Uiso   1.00
N1018  N     0.62321   0.90761   0.19940   0.00000  Uiso   1.00
N1019  N     0.63433   0.74724   0.23356   0.00000  Uiso   1.00
N1020  N     0.36634   0.91896   0.25952   0.00000  Uiso   1.00
N1021  N     0.50000   0.71598   0.25000   0.00000  Uiso   1.00
N1022  N     0.44258   0.72139   0.19692   0.00000  Uiso   1.00
N1023  N     0.54993   0.94493   0.31226   0.00000  Uiso   1.00
N1024  N     0.54842   0.71234   0.31166   0.00000  Uiso   1.00
N1025  N     0.43525   0.95763   0.20660   0.00000  Uiso   1.00
N1026  N     0.53326   0.91665   0.12011   0.00000  Uiso   1.00
N1027  N     0.55244   0.76836   0.39714   0.00000  Uiso   1.00
N1028  N     0.43975   0.88732   0.37823   0.00000  Uiso   1.00
O1029  O     0.43988   0.87291   0.24999   0.00000  Uiso   1.00
O1030  O     0.57304   0.80138   0.48039   0.00000  Uiso   1.00
O1031  O     0.44588   0.89270   0.47021   0.00000  Uiso   1.00
O1032  O     0.50948   0.75975   0.02415   0.00000  Uiso   1.00
O1033  O     0.56012   0.79375   0.25001   0.00000  Uiso   1.00
O1034  O     0.56012   0.87291   0.25000   0.00000  Uiso   1.00
O1035  O     0.43988   0.79375   0.24999   0.00000  Uiso   1.00
O1036  O     0.50000   0.87293   0.18573   0.00000  Uiso   1.00
O1037  O     0.50000   0.79374   0.31427   0.00000  Uiso   1.00
O1038  O     0.50000   0.87293   0.31427   0.00000  Uiso   1.00
O1039  O     0.50000   0.79374   0.18573   0.00000  Uiso   1.00
O1040  O     0.51667   0.92614   0.02492   0.00000  Uiso   1.00
C1041  C     0.75380   0.83460   0.24727   0.00000  Uiso   1.00
C1042  C     0.97434   0.87608   0.23353   0.00000  Uiso   1.00
C1043  C     0.98169   0.79322   0.23082   0.00000  Uiso   1.00
C1044  C     0.68338   0.87745   0.24484   0.00000  Uiso   1.00
C1045  C     0.84873   0.88363   0.04769   0.00000  Uiso   1.00
C1046  C     0.87246   0.82055   0.45518   0.00000  Uiso   1.00
C1047  C     0.80813   0.86601   0.45027   0.00000  Uiso   1.00
C1048  C     0.84230   0.79996   0.04700   0.00000  Uiso   1.00
C1049  C     0.85050   0.88052   0.09457   0.00000  Uiso   1.00
C1050  C     0.86472   0.80813   0.41138   0.00000  Uiso   1.00
C1051  C     0.80555   0.86257   0.40399   0.00000  Uiso   1.00
C1052  C     0.91239   0.83269   0.24660   0.00000  Uiso   1.00
C1053  C     0.84637   0.79688   0.09319   0.00000  Uiso   1.00
C1054  C     0.84419   0.83734   0.11698   0.00000  Uiso   1.00
C1055  C     0.83324   0.83205   0.38417   0.00000  Uiso   1.00
C1056  C     0.84304   0.84337   0.02425   0.00000  Uiso   1.00
C1057  C     0.84182   0.84503   0.47564   0.00000  Uiso   1.00
C1058  C     0.95657   0.83283   0.23832   0.00000  Uiso   1.00
C1059  C     0.70848   0.83759   0.23904   0.00000  Uiso   1.00
C1060  C     0.77376   0.71747   0.14945   0.00000  Uiso   1.00
C1061  C     0.87731   0.94983   0.35870   0.00000  Uiso   1.00
C1062  C     0.92568   0.70414   0.31865   0.00000  Uiso   1.00
C1063  C     0.83715   0.83432   0.16528   0.00000  Uiso   1.00
C1064  C     0.76771   0.94027   0.16274   0.00000  Uiso   1.00
C1065  C     0.88924   0.93174   0.00887   0.00000  Uiso   1.00
C1066  C     0.94155   0.82565   0.47042   0.00000  Uiso   1.00
C1067  C     0.74591   0.86527   0.47996   0.00000  Uiso   1.00
C1068  C     0.80208   0.74692   0.01489   0.00000  Uiso   1.00
C1069  C     0.86207   0.96496   0.10598   0.00000  Uiso   1.00
C1070  C     0.87590   0.72603   0.42139   0.00000  Uiso   1.00
C1071  C     0.77214   0.93732   0.37902   0.00000  Uiso   1.00
C1072  C     0.90107   0.74756   0.12784   0.00000  Uiso   1.00
C1073  C     0.71532   0.81648   0.14692   0.00000  Uiso   1.00
C1074  C     0.83357   0.83244   0.33520   0.00000  Uiso   1.00
C1075  C     0.93827   0.95092   0.21157   0.00000  Uiso   1.00
C1076  C     0.99859   0.70966   0.24063   0.00000  Uiso   1.00
C1077  C     0.68993   0.92862   0.30406   0.00000  Uiso   1.00
C1078  C     0.80646   0.69405   0.22241   0.00000  Uiso   1.00
C1079  C     0.85893   0.97259   0.27948   0.00000  Uiso   1.00
C1080  C     0.85942   0.68920   0.27863   0.00000  Uiso   1.00
C1081  C     0.80495   0.97781   0.22386   0.00000  Uiso   1.00
C1082  C     0.68870   0.80092   0.21946   0.00000  Uiso   1.00
Cu1083 Cu    0.83333   0.88022   0.25000   0.00000  Uiso   1.00
Cu1084 Cu    0.83333   0.78645   0.25000   0.00000  Uiso   1.00
H1085  H     0.74796   0.72018   0.21055   0.00000  Uiso   1.00
H1086  H     0.93640   0.67575   0.29907   0.00000  Uiso   1.00
H1087  H     0.93464   0.69480   0.35378   0.00000  Uiso   1.00
H1088  H     0.94116   0.73638   0.31025   0.00000  Uiso   1.00
H1089  H     0.74229   0.97673   0.21152   0.00000  Uiso   1.00
H1090  H     0.74373   0.95932   0.14061   0.00000  Uiso   1.00
H1091  H     0.75957   0.90366   0.16443   0.00000  Uiso   1.00
H1092  H     0.79744   0.94342   0.14815   0.00000  Uiso   1.00
H1093  H     0.89119   0.91611   0.47641   0.00000  Uiso   1.00
H1094  H     0.91467   0.91790   0.03272   0.00000  Uiso   1.00
H1095  H     0.89366   0.96928   0.00321   0.00000  Uiso   1.00
H1096  H     0.79732   0.69254   0.13911   0.00000  Uiso   1.00
H1097  H     0.94382   0.85644   0.49054   0.00000  Uiso   1.00
H1098  H     0.94261   0.83622   0.43472   0.00000  Uiso   1.00
H1099  H     0.96913   0.80285   0.47972   0.00000  Uiso   1.00
H1100  H     0.75468   0.84021   0.00815   0.00000  Uiso   1.00
H1101  H     0.73374   0.84699   0.45075   0.00000  Uiso   1.00
H1102  H     0.72059   0.88818   0.49019   0.00000  Uiso   1.00
H1103  H     0.78688   0.76957   0.48761   0.00000  Uiso   1.00
H1104  H     0.78370   0.74710   0.04461   0.00000  Uiso   1.00
H1105  H     0.80288   0.71110   0.00353   0.00000  Uiso   1.00
H1106  H     0.89273   0.90729   0.13978   0.00000  Uiso   1.00
H1107  H     0.77859   0.75161   0.13321   0.00000  Uiso   1.00
H1108  H     0.86247   0.98546   0.13587   0.00000  Uiso   1.00
H1109  H     0.83231   0.97289   0.08681   0.00000  Uiso   1.00
H1110  H     0.88829   0.97526   0.08675   0.00000  Uiso   1.00
H1111  H     0.91699   0.77197   0.39629   0.00000  Uiso   1.00
H1112  H     0.88386   0.72726   0.45731   0.00000  Uiso   1.00
H1113  H     0.89387   0.69624   0.41038   0.00000  Uiso   1.00
H1114  H     0.84264   0.71967   0.41594   0.00000  Uiso   1.00
H1115  H     0.76417   0.87444   0.34824   0.00000  Uiso   1.00
H1116  H     0.77847   0.95248   0.34593   0.00000  Uiso   1.00
H1117  H     0.79515   0.94973   0.40381   0.00000  Uiso   1.00
H1118  H     0.74291   0.70654   0.13766   0.00000  Uiso   1.00
H1119  H     0.74127   0.94986   0.38762   0.00000  Uiso   1.00
H1120  H     0.84687   0.72556   0.09910   0.00000  Uiso   1.00
H1121  H     0.91883   0.74602   0.09785   0.00000  Uiso   1.00
H1122  H     0.90711   0.71485   0.14811   0.00000  Uiso   1.00
H1123  H     0.91167   0.77661   0.14762   0.00000  Uiso   1.00
H1124  H     0.68236   0.76041   0.16493   0.00000  Uiso   1.00
H1125  H     0.71737   0.80047   0.11456   0.00000  Uiso   1.00
H1126  H     0.74628   0.82791   0.15718   0.00000  Uiso   1.00
H1127  H     0.69304   0.84660   0.14230   0.00000  Uiso   1.00
H1128  H     0.97382   0.91081   0.17218   0.00000  Uiso   1.00
H1129  H     0.91143   0.93175   0.30459   0.00000  Uiso   1.00
H1130  H     0.95123   0.98010   0.19280   0.00000  Uiso   1.00
H1131  H     0.94357   0.95558   0.24712   0.00000  Uiso   1.00
H1132  H     0.90475   0.95173   0.20308   0.00000  Uiso   1.00
H1133  H     0.94140   0.74048   0.21488   0.00000  Uiso   1.00
H1134  H     0.98618   0.68009   0.25822   0.00000  Uiso   1.00
H1135  H     0.69215   0.71982   0.26178   0.00000  Uiso   1.00
H1136  H     0.67510   0.69774   0.20866   0.00000  Uiso   1.00
H1137  H     0.69008   0.94645   0.23824   0.00000  Uiso   1.00
H1138  H     0.98975   0.93531   0.30591   0.00000  Uiso   1.00
H1139  H     0.70578   0.95989   0.31432   0.00000  Uiso   1.00
H1140  H     0.90586   0.96129   0.37570   0.00000  Uiso   1.00
H1141  H     0.69949   0.89890   0.32724   0.00000  Uiso   1.00
H1142  H     0.87122   0.91585   0.37447   0.00000  Uiso   1.00
H1143  H     0.85128   0.97429   0.36366   0.00000  Uiso   1.00
H1144  H     0.86581   0.71509   0.33933   0.00000  Uiso   1.00
N1145  N     0.83333   0.95069   0.25000   0.00000  Uiso   1.00
N1146  N     0.85759   0.75343   0.11535   0.00000  Uiso   1.00
N1147  N     0.70214   0.78293   0.17949   0.00000  Uiso   1.00
N1148  N     0.95654   0.90761   0.19940   0.00000  Uiso   1.00
N1149  N     0.96766   0.74724   0.23356   0.00000  Uiso   1.00
N1150  N     0.69968   0.91896   0.25952   0.00000  Uiso   1.00
N1151  N     0.83333   0.71598   0.25000   0.00000  Uiso   1.00
N1152  N     0.77591   0.72139   0.19692   0.00000  Uiso   1.00
N1153  N     0.88326   0.94493   0.31226   0.00000  Uiso   1.00
N1154  N     0.88175   0.71234   0.31166   0.00000  Uiso   1.00
N1155  N     0.76859   0.95763   0.20660   0.00000  Uiso   1.00
N1156  N     0.86659   0.91665   0.12011   0.00000  Uiso   1.00
N1157  N     0.88577   0.76836   0.39714   0.00000  Uiso   1.00
N1158  N     0.77308   0.88732   0.37823   0.00000  Uiso   1.00
O1159  O     0.77321   0.87291   0.24999   0.00000  Uiso   1.00
O1160  O     0.90637   0.80138   0.48039   0.00000  Uiso   1.00
O1161  O     0.77922   0.89270   0.47021   0.00000  Uiso   1.00
O1162  O     0.84281   0.75975   0.02415   0.00000  Uiso   1.00
O1163  O     0.89345   0.79375   0.25001   0.00000  Uiso   1.00
O1164  O     0.89345   0.87291   0.25000   0.00000  Uiso   1.00
O1165  O     0.77321   0.79375   0.24999   0.00000  Uiso   1.00
O1166  O     0.83333   0.87293   0.18573   0.00000  Uiso   1.00
O1167  O     0.83334   0.79374   0.31427   0.00000  Uiso   1.00
O1168  O     0.83334   0.87293   0.31427   0.00000  Uiso   1.00
O1169  O     0.83333   0.79374   0.18573   0.00000  Uiso   1.00
O1170  O     0.85000   0.92614   0.02492   0.00000  Uiso   1.00
C1171  C     0.08714   0.16794   0.74727   0.00000  Uiso   1.00
C1172  C     0.30768   0.20941   0.73353   0.00000  Uiso   1.00
C1173  C     0.31503   0.12655   0.73082   0.00000  Uiso   1.00
C1174  C     0.01671   0.21078   0.74484   0.00000  Uiso   1.00
C1175  C     0.18207   0.21696   0.54769   0.00000  Uiso   1.00
C1176  C     0.20580   0.15388   0.95518   0.00000  Uiso   1.00
C1177  C     0.14146   0.19934   0.95027   0.00000  Uiso   1.00
C1178  C     0.17563   0.13330   0.54700   0.00000  Uiso   1.00
C1179  C     0.18383   0.21385   0.59457   0.00000  Uiso   1.00
C1180  C     0.19805   0.14146   0.91138   0.00000  Uiso   1.00
C1181  C     0.13888   0.19591   0.90399   0.00000  Uiso   1.00
C1182  C     0.24572   0.16603   0.74660   0.00000  Uiso   1.00
C1183  C     0.17970   0.13021   0.59319   0.00000  Uiso   1.00
C1184  C     0.17753   0.17067   0.61698   0.00000  Uiso   1.00
C1185  C     0.16657   0.16538   0.88417   0.00000  Uiso   1.00
C1186  C     0.17637   0.17670   0.52425   0.00000  Uiso   1.00
C1187  C     0.17515   0.17836   0.97564   0.00000  Uiso   1.00
C1188  C     0.28990   0.16616   0.73832   0.00000  Uiso   1.00
C1189  C     0.04182   0.17092   0.73904   0.00000  Uiso   1.00
C1190  C     0.10709   0.05080   0.64945   0.00000  Uiso   1.00
C1191  C     0.21064   0.28316   0.85870   0.00000  Uiso   1.00
C1192  C     0.25901   0.03747   0.81865   0.00000  Uiso   1.00
C1193  C     0.17048   0.16766   0.66528   0.00000  Uiso   1.00
C1194  C     0.10104   0.27360   0.66274   0.00000  Uiso   1.00
C1195  C     0.22258   0.26508   0.50887   0.00000  Uiso   1.00
C1196  C     0.27488   0.15899   0.97042   0.00000  Uiso   1.00
C1197  C     0.07924   0.19860   0.97996   0.00000  Uiso   1.00
C1198  C     0.13541   0.08025   0.51489   0.00000  Uiso   1.00
C1199  C     0.19541   0.29829   0.60598   0.00000  Uiso   1.00
C1200  C     0.20923   0.05937   0.92139   0.00000  Uiso   1.00
C1201  C     0.10548   0.27066   0.87902   0.00000  Uiso   1.00
C1202  C     0.23440   0.08089   0.62784   0.00000  Uiso   1.00
C1203  C     0.04866   0.14982   0.64692   0.00000  Uiso   1.00
C1204  C     0.16691   0.16577   0.83520   0.00000  Uiso   1.00
C1205  C     0.27160   0.28425   0.71157   0.00000  Uiso   1.00
C1206  C     0.33193   0.04300   0.74063   0.00000  Uiso   1.00
C1207  C     0.02327   0.26195   0.80406   0.00000  Uiso   1.00
C1208  C     0.13979   0.02739   0.72241   0.00000  Uiso   1.00
C1209  C     0.19226   0.30592   0.77948   0.00000  Uiso   1.00
C1210  C     0.19275   0.02254   0.77863   0.00000  Uiso   1.00
C1211  C     0.13829   0.31114   0.72386   0.00000  Uiso   1.00
C1212  C     0.02203   0.13426   0.71946   0.00000  Uiso   1.00
Cu1213 Cu    0.16667   0.21355   0.75000   0.00000  Uiso   1.00
Cu1214 Cu    0.16667   0.11978   0.75000   0.00000  Uiso   1.00
H1215  H     0.08129   0.05352   0.71055   0.00000  Uiso   1.00
H1216  H     0.26974   0.00908   0.79907   0.00000  Uiso   1.00
H1217  H     0.26798   0.02813   0.85378   0.00000  Uiso   1.00
H1218  H     0.27449   0.06971   0.81025   0.00000  Uiso   1.00
H1219  H     0.07562   0.31007   0.71152   0.00000  Uiso   1.00
H1220  H     0.07707   0.29265   0.64061   0.00000  Uiso   1.00
H1221  H     0.09290   0.23699   0.66443   0.00000  Uiso   1.00
H1222  H     0.13077   0.27675   0.64815   0.00000  Uiso   1.00
H1223  H     0.22452   0.24945   0.97641   0.00000  Uiso   1.00
H1224  H     0.24800   0.25123   0.53272   0.00000  Uiso   1.00
H1225  H     0.22699   0.30261   0.50321   0.00000  Uiso   1.00
H1226  H     0.13065   0.02587   0.63911   0.00000  Uiso   1.00
H1227  H     0.27716   0.18978   0.99054   0.00000  Uiso   1.00
H1228  H     0.27594   0.16955   0.93472   0.00000  Uiso   1.00
H1229  H     0.30246   0.13618   0.97972   0.00000  Uiso   1.00
H1230  H     0.08801   0.17355   0.50815   0.00000  Uiso   1.00
H1231  H     0.06707   0.18032   0.95075   0.00000  Uiso   1.00
H1232  H     0.05392   0.22151   0.99019   0.00000  Uiso   1.00
H1233  H     0.12021   0.10290   0.98761   0.00000  Uiso   1.00
H1234  H     0.11703   0.08044   0.54461   0.00000  Uiso   1.00
H1235  H     0.13622   0.04444   0.50353   0.00000  Uiso   1.00
H1236  H     0.22606   0.24062   0.63978   0.00000  Uiso   1.00
H1237  H     0.11192   0.08494   0.63321   0.00000  Uiso   1.00
H1238  H     0.19580   0.31879   0.63587   0.00000  Uiso   1.00
H1239  H     0.16564   0.30622   0.58681   0.00000  Uiso   1.00
H1240  H     0.22162   0.30859   0.58675   0.00000  Uiso   1.00
H1241  H     0.25033   0.10530   0.89629   0.00000  Uiso   1.00
H1242  H     0.21719   0.06059   0.95731   0.00000  Uiso   1.00
H1243  H     0.22721   0.02958   0.91038   0.00000  Uiso   1.00
H1244  H     0.17597   0.05300   0.91594   0.00000  Uiso   1.00
H1245  H     0.09751   0.20777   0.84824   0.00000  Uiso   1.00
H1246  H     0.11180   0.28581   0.84593   0.00000  Uiso   1.00
H1247  H     0.12849   0.28307   0.90381   0.00000  Uiso   1.00
H1248  H     0.07624   0.03988   0.63766   0.00000  Uiso   1.00
H1249  H     0.07460   0.28319   0.88762   0.00000  Uiso   1.00
H1250  H     0.18020   0.05889   0.59910   0.00000  Uiso   1.00
H1251  H     0.25217   0.07935   0.59785   0.00000  Uiso   1.00
H1252  H     0.24044   0.04818   0.64811   0.00000  Uiso   1.00
H1253  H     0.24500   0.10995   0.64762   0.00000  Uiso   1.00
H1254  H     0.01569   0.09374   0.66493   0.00000  Uiso   1.00
H1255  H     0.05070   0.13380   0.61456   0.00000  Uiso   1.00
H1256  H     0.07962   0.16124   0.65718   0.00000  Uiso   1.00
H1257  H     0.02638   0.17993   0.64230   0.00000  Uiso   1.00
H1258  H     0.30715   0.24414   0.67218   0.00000  Uiso   1.00
H1259  H     0.24476   0.26508   0.80459   0.00000  Uiso   1.00
H1260  H     0.28457   0.31343   0.69280   0.00000  Uiso   1.00
H1261  H     0.27690   0.28892   0.74712   0.00000  Uiso   1.00
H1262  H     0.23809   0.28507   0.70308   0.00000  Uiso   1.00
H1263  H     0.27473   0.07381   0.71488   0.00000  Uiso   1.00
H1264  H     0.31952   0.01342   0.75822   0.00000  Uiso   1.00
H1265  H     0.02548   0.05315   0.76178   0.00000  Uiso   1.00
H1266  H     0.00843   0.03108   0.70866   0.00000  Uiso   1.00
H1267  H     0.02342   0.27978   0.73824   0.00000  Uiso   1.00
H1268  H     0.32308   0.26864   0.80591   0.00000  Uiso   1.00
H1269  H     0.03912   0.29323   0.81432   0.00000  Uiso   1.00
H1270  H     0.23919   0.29462   0.87570   0.00000  Uiso   1.00
H1271  H     0.03282   0.23224   0.82724   0.00000  Uiso   1.00
H1272  H     0.20456   0.24918   0.87447   0.00000  Uiso   1.00
H1273  H     0.18461   0.30762   0.86366   0.00000  Uiso   1.00
H1274  H     0.19914   0.04842   0.83933   0.00000  Uiso   1.00
N1275  N     0.16667   0.28402   0.75000   0.00000  Uiso   1.00
N1276  N     0.19092   0.08676   0.61535   0.00000  Uiso   1.00
N1277  N     0.03547   0.11626   0.67949   0.00000  Uiso   1.00
N1278  N     0.28988   0.24094   0.69940   0.00000  Uiso   1.00
N1279  N     0.30099   0.08057   0.73356   0.00000  Uiso   1.00
N1280  N     0.03301   0.25229   0.75952   0.00000  Uiso   1.00
N1281  N     0.16667   0.04931   0.75000   0.00000  Uiso   1.00
N1282  N     0.10924   0.05472   0.69692   0.00000  Uiso   1.00
N1283  N     0.21659   0.27827   0.81226   0.00000  Uiso   1.00
N1284  N     0.21509   0.04567   0.81166   0.00000  Uiso   1.00
N1285  N     0.10192   0.29097   0.70660   0.00000  Uiso   1.00
N1286  N     0.19993   0.24998   0.62011   0.00000  Uiso   1.00
N1287  N     0.21910   0.10169   0.89714   0.00000  Uiso   1.00
N1288  N     0.10641   0.22065   0.87823   0.00000  Uiso   1.00
O1289  O     0.10655   0.20625   0.74999   0.00000  Uiso   1.00
O1290  O     0.23970   0.13471   0.98039   0.00000  Uiso   1.00
O1291  O     0.11255   0.22603   0.97021   0.00000  Uiso   1.00
O1292  O     0.17615   0.09308   0.52415   0.00000  Uiso   1.00
O1293  O     0.22679   0.12709   0.75001   0.00000  Uiso   1.00
O1294  O     0.22679   0.20625   0.75000   0.00000  Uiso   1.00
O1295  O     0.10655   0.12709   0.74999   0.00000  Uiso   1.00
O1296  O     0.16666   0.20626   0.68573   0.00000  Uiso   1.00
O1297  O     0.16667   0.12707   0.81427   0.00000  Uiso   1.00
O1298  O     0.16667   0.20626   0.81427   0.00000  Uiso   1.00
O1299  O     0.16666   0.12707   0.68573   0.00000  Uiso   1.00
O1300  O     0.18333   0.25947   0.52492   0.00000  Uiso   1.00
C1301  C     0.42047   0.16794   0.74727   0.00000  Uiso   1.00
C1302  C     0.64101   0.20941   0.73353   0.00000  Uiso   1.00
C1303  C     0.64836   0.12655   0.73082   0.00000  Uiso   1.00
C1304  C     0.35005   0.21078   0.74484   0.00000  Uiso   1.00
C1305  C     0.51540   0.21696   0.54769   0.00000  Uiso   1.00
C1306  C     0.53913   0.15388   0.95518   0.00000  Uiso   1.00
C1307  C     0.47480   0.19934   0.95027   0.00000  Uiso   1.00
C1308  C     0.50896   0.13330   0.54700   0.00000  Uiso   1.00
C1309  C     0.51717   0.21385   0.59457   0.00000  Uiso   1.00
C1310  C     0.53139   0.14146   0.91138   0.00000  Uiso   1.00
C1311  C     0.47221   0.19591   0.90399   0.00000  Uiso   1.00
C1312  C     0.57905   0.16603   0.74660   0.00000  Uiso   1.00
C1313  C     0.51304   0.13021   0.59319   0.00000  Uiso   1.00
C1314  C     0.51086   0.17067   0.61698   0.00000  Uiso   1.00
C1315  C     0.49991   0.16538   0.88417   0.00000  Uiso   1.00
C1316  C     0.50971   0.17670   0.52425   0.00000  Uiso   1.00
C1317  C     0.50848   0.17836   0.97564   0.00000  Uiso   1.00
C1318  C     0.62324   0.16616   0.73832   0.00000  Uiso   1.00
C1319  C     0.37515   0.17092   0.73904   0.00000  Uiso   1.00
C1320  C     0.44043   0.05080   0.64945   0.00000  Uiso   1.00
C1321  C     0.54397   0.28316   0.85870   0.00000  Uiso   1.00
C1322  C     0.59234   0.03747   0.81865   0.00000  Uiso   1.00
C1323  C     0.50382   0.16766   0.66528   0.00000  Uiso   1.00
C1324  C     0.43437   0.27360   0.66274   0.00000  Uiso   1.00
C1325  C     0.55591   0.26508   0.50887   0.00000  Uiso   1.00
C1326  C     0.60822   0.15899   0.97042   0.00000  Uiso   1.00
C1327  C     0.41257   0.19860   0.97996   0.00000  Uiso   1.00
C1328  C     0.46874   0.08025   0.51489   0.00000  Uiso   1.00
C1329  C     0.52874   0.29829   0.60598   0.00000  Uiso   1.00
C1330  C     0.54256   0.05937   0.92139   0.00000  Uiso   1.00
C1331  C     0.43881   0.27066   0.87902   0.00000  Uiso   1.00
C1332  C     0.56773   0.08089   0.62784   0.00000  Uiso   1.00
C1333  C     0.38199   0.14982   0.64692   0.00000  Uiso   1.00
C1334  C     0.50024   0.16577   0.83520   0.00000  Uiso   1.00
C1335  C     0.60493   0.28425   0.71157   0.00000  Uiso   1.00
C1336  C     0.66526   0.04300   0.74063   0.00000  Uiso   1.00
C1337  C     0.35660   0.26195   0.80406   0.00000  Uiso   1.00
C1338  C     0.47312   0.02739   0.72241   0.00000  Uiso   1.00
C1339  C     0.52559   0.30592   0.77948   0.00000  Uiso   1.00
C1340  C     0.52609   0.02254   0.77863   0.00000  Uiso   1.00
C1341  C     0.47162   0.31114   0.72386   0.00000  Uiso   1.00
C1342  C     0.35537   0.13426   0.71946   0.00000  Uiso   1.00
Cu1343 Cu    0.50000   0.21355   0.75000   0.00000  Uiso   1.00
Cu1344 Cu    0.50000   0.11978   0.75000   0.00000  Uiso   1.00
H1345  H     0.41463   0.05352   0.71055   0.00000  Uiso   1.00
H1346  H     0.60307   0.00908   0.79907   0.00000  Uiso   1.00
H1347  H     0.60131   0.02813   0.85378   0.00000  Uiso   1.00
H1348  H     0.60782   0.06971   0.81025   0.00000  Uiso   1.00
H1349  H     0.40895   0.31007   0.71152   0.00000  Uiso   1.00
H1350  H     0.41040   0.29265   0.64061   0.00000  Uiso   1.00
H1351  H     0.42624   0.23699   0.66443   0.00000  Uiso   1.00
H1352  H     0.46411   0.27675   0.64815   0.00000  Uiso   1.00
H1353  H     0.55785   0.24945   0.97641   0.00000  Uiso   1.00
H1354  H     0.58134   0.25123   0.53272   0.00000  Uiso   1.00
H1355  H     0.56032   0.30261   0.50321   0.00000  Uiso   1.00
H1356  H     0.46399   0.02587   0.63911   0.00000  Uiso   1.00
H1357  H     0.61049   0.18978   0.99054   0.00000  Uiso   1.00
H1358  H     0.60927   0.16955   0.93472   0.00000  Uiso   1.00
H1359  H     0.63580   0.13618   0.97972   0.00000  Uiso   1.00
H1360  H     0.42135   0.17355   0.50815   0.00000  Uiso   1.00
H1361  H     0.40041   0.18032   0.95075   0.00000  Uiso   1.00
H1362  H     0.38726   0.22151   0.99019   0.00000  Uiso   1.00
H1363  H     0.45354   0.10290   0.98761   0.00000  Uiso   1.00
H1364  H     0.45037   0.08044   0.54461   0.00000  Uiso   1.00
H1365  H     0.46955   0.04444   0.50353   0.00000  Uiso   1.00
H1366  H     0.55940   0.24062   0.63978   0.00000  Uiso   1.00
H1367  H     0.44526   0.08494   0.63321   0.00000  Uiso   1.00
H1368  H     0.52914   0.31879   0.63587   0.00000  Uiso   1.00
H1369  H     0.49897   0.30622   0.58681   0.00000  Uiso   1.00
H1370  H     0.55495   0.30859   0.58675   0.00000  Uiso   1.00
H1371  H     0.58366   0.10530   0.89629   0.00000  Uiso   1.00
H1372  H     0.55053   0.06059   0.95731   0.00000  Uiso   1.00
H1373  H     0.56054   0.02958   0.91038   0.00000  Uiso   1.00
H1374  H     0.50930   0.05300   0.91594   0.00000  Uiso   1.00
H1375  H     0.43084   0.20777   0.84824   0.00000  Uiso   1.00
H1376  H     0.44513   0.28581   0.84593   0.00000  Uiso   1.00
H1377  H     0.46182   0.28307   0.90381   0.00000  Uiso   1.00
H1378  H     0.40957   0.03988   0.63766   0.00000  Uiso   1.00
H1379  H     0.40794   0.28319   0.88762   0.00000  Uiso   1.00
H1380  H     0.51354   0.05889   0.59910   0.00000  Uiso   1.00
H1381  H     0.58550   0.07935   0.59785   0.00000  Uiso   1.00
H1382  H     0.57377   0.04818   0.64811   0.00000  Uiso   1.00
H1383  H     0.57833   0.10995   0.64762   0.00000  Uiso   1.00
H1384  H     0.34902   0.09374   0.66493   0.00000  Uiso   1.00
H1385  H     0.38403   0.13380   0.61456   0.00000  Uiso   1.00
H1386  H     0.41295   0.16124   0.65718   0.00000  Uiso   1.00
H1387  H     0.35971   0.17993   0.64230   0.00000  Uiso   1.00
H1388  H     0.64049   0.24414   0.67218   0.00000  Uiso   1.00
H1389  H     0.57810   0.26508   0.80459   0.00000  Uiso   1.00
H1390  H     0.61790   0.31343   0.69280   0.00000  Uiso   1.00
H1391  H     0.61024   0.28892   0.74712   0.00000  Uiso   1.00
H1392  H     0.57142   0.28507   0.70308   0.00000  Uiso   1.00
H1393  H     0.60807   0.07381   0.71488   0.00000  Uiso   1.00
H1394  H     0.65285   0.01342   0.75822   0.00000  Uiso   1.00
H1395  H     0.35882   0.05315   0.76178   0.00000  Uiso   1.00
H1396  H     0.34176   0.03108   0.70866   0.00000  Uiso   1.00
H1397  H     0.35675   0.27978   0.73824   0.00000  Uiso   1.00
H1398  H     0.65641   0.26864   0.80591   0.00000  Uiso   1.00
H1399  H     0.37245   0.29323   0.81432   0.00000  Uiso   1.00
H1400  H     0.57253   0.29462   0.87570   0.00000  Uiso   1.00
H1401  H     0.36616   0.23224   0.82724   0.00000  Uiso   1.00
H1402  H     0.53789   0.24918   0.87447   0.00000  Uiso   1.00
H1403  H     0.51795   0.30762   0.86366   0.00000  Uiso   1.00
H1404  H     0.53247   0.04842   0.83933   0.00000  Uiso   1.00
N1405  N     0.50000   0.28402   0.75000   0.00000  Uiso   1.00
N1406  N     0.52425   0.08676   0.61535   0.00000  Uiso   1.00
N1407  N     0.36881   0.11626   0.67949   0.00000  Uiso   1.00
N1408  N     0.62321   0.24094   0.69940   0.00000  Uiso   1.00
N1409  N     0.63433   0.08057   0.73356   0.00000  Uiso   1.00
N1410  N     0.36634   0.25229   0.75952   0.00000  Uiso   1.00
N1411  N     0.50000   0.04931   0.75000   0.00000  Uiso   1.00
N1412  N     0.44258   0.05472   0.69692   0.00000  Uiso   1.00
N1413  N     0.54993   0.27827   0.81226   0.00000  Uiso   1.00
N1414  N     0.54842   0.04567   0.81166   0.00000  Uiso   1.00
N1415  N     0.43525   0.29097   0.70660   0.00000  Uiso   1.00
N1416  N     0.53326   0.24998   0.62011   0.00000  Uiso   1.00
N1417  N     0.55244   0.10169   0.89714   0.00000  Uiso   1.00
N1418  N     0.43975   0.22065   0.87823   0.00000  Uiso   1.00
O1419  O     0.43988   0.20625   0.74999   0.00000  Uiso   1.00
O1420  O     0.57304   0.13471   0.98039   0.00000  Uiso   1.00
O1421  O     0.44588   0.22603   0.97021   0.00000  Uiso   1.00
O1422  O     0.50948   0.09308   0.52415   0.00000  Uiso   1.00
O1423  O     0.56012   0.12709   0.75001   0.00000  Uiso   1.00
O1424  O     0.56012   0.20625   0.75000   0.00000  Uiso   1.00
O1425  O     0.43988   0.12709   0.74999   0.00000  Uiso   1.00
O1426  O     0.50000   0.20626   0.68573   0.00000  Uiso   1.00
O1427  O     0.50000   0.12707   0.81427   0.00000  Uiso   1.00
O1428  O     0.50000   0.20626   0.81427   0.00000  Uiso   1.00
O1429  O     0.50000   0.12707   0.68573   0.00000  Uiso   1.00
O1430  O     0.51667   0.25947   0.52492   0.00000  Uiso   1.00
C1431  C     0.75380   0.16794   0.74727   0.00000  Uiso   1.00
C1432  C     0.97434   0.20941   0.73353   0.00000  Uiso   1.00
C1433  C     0.98169   0.12655   0.73082   0.00000  Uiso   1.00
C1434  C     0.68338   0.21078   0.74484   0.00000  Uiso   1.00
C1435  C     0.84873   0.21696   0.54769   0.00000  Uiso   1.00
C1436  C     0.87246   0.15388   0.95518   0.00000  Uiso   1.00
C1437  C     0.80813   0.19934   0.95027   0.00000  Uiso   1.00
C1438  C     0.84230   0.13330   0.54700   0.00000  Uiso   1.00
C1439  C     0.85050   0.21385   0.59457   0.00000  Uiso   1.00
C1440  C     0.86472   0.14146   0.91138   0.00000  Uiso   1.00
C1441  C     0.80555   0.19591   0.90399   0.00000  Uiso   1.00
C1442  C     0.91239   0.16603   0.74660   0.00000  Uiso   1.00
C1443  C     0.84637   0.13021   0.59319   0.00000  Uiso   1.00
C1444  C     0.84419   0.17067   0.61698   0.00000  Uiso   1.00
C1445  C     0.83324   0.16538   0.88417   0.00000  Uiso   1.00
C1446  C     0.84304   0.17670   0.52425   0.00000  Uiso   1.00
C1447  C     0.84182   0.17836   0.97564   0.00000  Uiso   1.00
C1448  C     0.95657   0.16616   0.73832   0.00000  Uiso   1.00
C1449  C     0.70848   0.17092   0.73904   0.00000  Uiso   1.00
C1450  C     0.77376   0.05080   0.64945   0.00000  Uiso   1.00
C1451  C     0.87731   0.28316   0.85870   0.00000  Uiso   1.00
C1452  C     0.92568   0.03747   0.81865   0.00000  Uiso   1.00
C1453  C     0.83715   0.16766   0.66528   0.00000  Uiso   1.00
C1454  C     0.76771   0.27360   0.66274   0.00000  Uiso   1.00
C1455  C     0.88924   0.26508   0.50887   0.00000  Uiso   1.00
C1456  C     0.94155   0.15899   0.97042   0.00000  Uiso   1.00
C1457  C     0.74591   0.19860   0.97996   0.00000  Uiso   1.00
C1458  C     0.80208   0.08025   0.51489   0.00000  Uiso   1.00
C1459  C     0.86207   0.29829   0.60598   0.00000  Uiso   1.00
C1460  C     0.87590   0.05937   0.92139   0.00000  Uiso   1.00
C1461  C     0.77214   0.27066   0.87902   0.00000  Uiso   1.00
C1462  C     0.90107   0.08089   0.62784   0.00000  Uiso   1.00
C1463  C     0.71532   0.14982   0.64692   0.00000  Uiso   1.00
C1464  C     0.83357   0.16577   0.83520   0.00000  Uiso   1.00
C1465  C     0.93827   0.28425   0.71157   0.00000  Uiso   1.00
C1466  C     0.99859   0.04300   0.74063   0.00000  Uiso   1.00
C1467  C     0.68993   0.26195   0.80406   0.00000  Uiso   1.00
C1468  C     0.80646   0.02739   0.72241   0.00000  Uiso   1.00
C1469  C     0.85893   0.30592   0.77948   0.00000  Uiso   1.00
C1470  C     0.85942   0.02254   0.77863   0.00000  Uiso   1.00
C1471  C     0.80495   0.31114   0.72386   0.00000  Uiso   1.00
C1472  C     0.68870   0.13426   0.71946   0.00000  Uiso   1.00
Cu1473 Cu    0.83333   0.21355   0.75000   0.00000  Uiso   1.00
Cu1474 Cu    0.83333   0.11978   0.75000   0.00000  Uiso   1.00
H1475  H     0.74796   0.05352   0.71055   0.00000  Uiso   1.00
H1476  H     0.93640   0.00908   0.79907   0.00000  Uiso   1.00
H1477  H     0.93464   0.02813   0.85378   0.00000  Uiso   1.00
H1478  H     0.94116   0.06971   0.81025   0.00000  Uiso   1.00
H1479  H     0.74229   0.31007   0.71152   0.00000  Uiso   1.00
H1480  H     0.74373   0.29265   0.64061   0.00000  Uiso   1.00
H1481  H     0.75957   0.23699   0.66443   0.00000  Uiso   1.00
H1482  H     0.79744   0.27675   0.64815   0.00000  Uiso   1.00
H1483  H     0.89119   0.24945   0.97641   0.00000  Uiso   1.00
H1484  H     0.91467   0.25123   0.53272   0.00000  Uiso   1.00
H1485  H     0.89366   0.30261   0.50321   0.00000  Uiso   1.00
H1486  H     0.79732   0.02587   0.63911   0.00000  Uiso   1.00
H1487  H     0.94382   0.18978   0.99054   0.00000  Uiso   1.00
H1488  H     0.94261   0.16955   0.93472   0.00000  Uiso   1.00
H1489  H     0.96913   0.13618   0.97972   0.00000  Uiso   1.00
H1490  H     0.75468   0.17355   0.50815   0.00000  Uiso   1.00
H1491  H     0.73374   0.18032   0.95075   0.00000  Uiso   1.00
H1492  H     0.72059   0.22151   0.99019   0.00000  Uiso   1.00
H1493  H     0.78688   0.10290   0.98761   0.00000  Uiso   1.00
H1494  H     0.78370   0.08044   0.54461   0.00000  Uiso   1.00
H1495  H     0.80288   0.04444   0.50353   0.00000  Uiso   1.00
H1496  H     0.89273   0.24062   0.63978   0.00000  Uiso   1.00
H1497  H     0.77859   0.08494   0.63321   0.00000  Uiso   1.00
H1498  H     0.86247   0.31879   0.63587   0.00000  Uiso   1.00
H1499  H     0.83231   0.30622   0.58681   0.00000  Uiso   1.00
H1500  H     0.88829   0.30859   0.58675   0.00000  Uiso   1.00
H1501  H     0.91699   0.10530   0.89629   0.00000  Uiso   1.00
H1502  H     0.88386   0.06059   0.95731   0.00000  Uiso   1.00
H1503  H     0.89387   0.02958   0.91038   0.00000  Uiso   1.00
H1504  H     0.84264   0.05300   0.91594   0.00000  Uiso   1.00
H1505  H     0.76417   0.20777   0.84824   0.00000  Uiso   1.00
H1506  H     0.77847   0.28581   0.84593   0.00000  Uiso   1.00
H1507  H     0.79515   0.28307   0.90381   0.00000  Uiso   1.00
H1508  H     0.74291   0.03988   0.63766   0.00000  Uiso   1.00
H1509  H     0.74127   0.28319   0.88762   0.00000  Uiso   1.00
H1510  H     0.84687   0.05889   0.59910   0.00000  Uiso   1.00
H1511  H     0.91883   0.07935   0.59785   0.00000  Uiso   1.00
H1512  H     0.90711   0.04818   0.64811   0.00000  Uiso   1.00
H1513  H     0.91167   0.10995   0.64762   0.00000  Uiso   1.00
H1514  H     0.68236   0.09374   0.66493   0.00000  Uiso   1.00
H1515  H     0.71737   0.13380   0.61456   0.00000  Uiso   1.00
H1516  H     0.74628   0.16124   0.65718   0.00000  Uiso   1.00
H1517  H     0.69304   0.17993   0.64230   0.00000  Uiso   1.00
H1518  H     0.97382   0.24414   0.67218   0.00000  Uiso   1.00
H1519  H     0.91143   0.26508   0.80459   0.00000  Uiso   1.00
H1520  H     0.95123   0.31343   0.69280   0.00000  Uiso   1.00
H1521  H     0.94357   0.28892   0.74712   0.00000  Uiso   1.00
H1522  H     0.90475   0.28507   0.70308   0.00000  Uiso   1.00
H1523  H     0.94140   0.07381   0.71488   0.00000  Uiso   1.00
H1524  H     0.98618   0.01342   0.75822   0.00000  Uiso   1.00
H1525  H     0.69215   0.05315   0.76178   0.00000  Uiso   1.00
H1526  H     0.67510   0.03108   0.70866   0.00000  Uiso   1.00
H1527  H     0.69008   0.27978   0.73824   0.00000  Uiso   1.00
H1528  H     0.98975   0.26864   0.80591   0.00000  Uiso   1.00
H1529  H     0.70578   0.29323   0.81432   0.00000  Uiso   1.00
H1530  H     0.90586   0.29462   0.87570   0.00000  Uiso   1.00
H1531  H     0.69949   0.23224   0.82724   0.00000  Uiso   1.00
H1532  H     0.87122   0.24918   0.87447   0.00000  Uiso   1.00
H1533  H     0.85128   0.30762   0.86366   0.00000  Uiso   1.00
H1534  H     0.86581   0.04842   0.83933   0.00000  Uiso   1.00
N1535  N     0.83333   0.28402   0.75000   0.00000  Uiso   1.00
N1536  N     0.85759   0.08676   0.61535   0.00000  Uiso   1.00
N1537  N     0.70214   0.11626   0.67949   0.00000  Uiso   1.00
N1538  N     0.95654   0.24094   0.69940   0.00000  Uiso   1.00
N1539  N     0.96766   0.08057   0.73356   0.00000  Uiso   1.00
N1540  N     0.69968   0.25229   0.75952   0.00000  Uiso   1.00
N1541  N     0.83333   0.04931   0.75000   0.00000  Uiso   1.00
N1542  N     0.77591   0.05472   0.69692   0.00000  Uiso   1.00
N1543  N     0.88326   0.27827   0.81226   0.00000  Uiso   1.00
N1544  N     0.88175   0.04567   0.81166   0.00000  Uiso   1.00
N1545  N     0.76859   0.29097   0.70660   0.00000  Uiso   1.00
N1546  N     0.86659   0.24998   0.62011   0.00000  Uiso   1.00
N1547  N     0.88577   0.10169   0.89714   0.00000  Uiso   1.00
N1548  N     0.77308   0.22065   0.87823   0.00000  Uiso   1.00
O1549  O     0.77321   0.20625   0.74999   0.00000  Uiso   1.00
O1550  O     0.90637   0.13471   0.98039   0.00000  Uiso   1.00
O1551  O     0.77922   0.22603   0.97021   0.00000  Uiso   1.00
O1552  O     0.84281   0.09308   0.52415   0.00000  Uiso   1.00
O1553  O     0.89345   0.12709   0.75001   0.00000  Uiso   1.00
O1554  O     0.89345   0.20625   0.75000   0.00000  Uiso   1.00
O1555  O     0.77321   0.12709   0.74999   0.00000  Uiso   1.00
O1556  O     0.83333   0.20626   0.68573   0.00000  Uiso   1.00
O1557  O     0.83334   0.12707   0.81427   0.00000  Uiso   1.00
O1558  O     0.83334   0.20626   0.81427   0.00000  Uiso   1.00
O1559  O     0.83333   0.12707   0.68573   0.00000  Uiso   1.00
O1560  O     0.85000   0.25947   0.52492   0.00000  Uiso   1.00
C1561  C     0.08714   0.50127   0.74727   0.00000  Uiso   1.00
C1562  C     0.30768   0.54274   0.73353   0.00000  Uiso   1.00
C1563  C     0.31503   0.45988   0.73082   0.00000  Uiso   1.00
C1564  C     0.01671   0.54412   0.74484   0.00000  Uiso   1.00
C1565  C     0.18207   0.55030   0.54769   0.00000  Uiso   1.00
C1566  C     0.20580   0.48722   0.95518   0.00000  Uiso   1.00
C1567  C     0.14146   0.53267   0.95027   0.00000  Uiso   1.00
C1568  C     0.17563   0.46663   0.54700   0.00000  Uiso   1.00
C1569  C     0.18383   0.54719   0.59457   0.00000  Uiso   1.00
C1570  C     0.19805   0.47479   0.91138   0.00000  Uiso   1.00
C1571  C     0.13888   0.52924   0.90399   0.00000  Uiso   1.00
C1572  C     0.24572   0.49936   0.74660   0.00000  Uiso   1.00
C1573  C     0.17970   0.46355   0.59319   0.00000  Uiso   1.00
C1574  C     0.17753   0.50401   0.61698   0.00000  Uiso   1.00
C1575  C     0.16657   0.49872   0.88417   0.00000  Uiso   1.00
C1576  C     0.17637   0.51003   0.52425   0.00000  Uiso   1.00
C1577  C     0.17515   0.51169   0.97564   0.00000  Uiso   1.00
C1578  C     0.28990   0.49949   0.73832   0.00000  Uiso   1.00
C1579  C     0.04182   0.50425   0.73904   0.00000  Uiso   1.00
C1580  C     0.10709   0.38413   0.64945   0.00000  Uiso   1.00
C1581  C     0.21064   0.61650   0.85870   0.00000  Uiso   1.00
C1582  C     0.25901   0.37081   0.81865   0.00000  Uiso   1.00
C1583  C     0.17048   0.50099   0.66528   0.00000  Uiso   1.00
C1584  C     0.10104   0.60694   0.66274   0.00000  Uiso   1.00
C1585  C     0.22258   0.59841   0.50887   0.00000  Uiso   1.00
C1586  C     0.27488   0.49232   0.97042   0.00000  Uiso   1.00
C1587  C     0.07924   0.53194   0.97996   0.00000  Uiso   1.00
C1588  C     0.13541   0.41358   0.51489   0.00000  Uiso   1.00
C1589  C     0.19541   0.63162   0.60598   0.00000  Uiso   1.00
C1590  C     0.20923   0.39270   0.92139   0.00000  Uiso   1.00
C1591  C     0.10548   0.60399   0.87902   0.00000  Uiso   1.00
C1592  C     0.23440   0.41422   0.62784   0.00000  Uiso   1.00
C1593  C     0.04866   0.48315   0.64692   0.00000  Uiso   1.00
C1594  C     0.16691   0.49910   0.83520   0.00000  Uiso   1.00
C1595  C     0.27160   0.61758   0.71157   0.00000  Uiso   1.00
C1596  C     0.33193   0.37633   0.74063   0.00000  Uiso   1.00
C1597  C     0.02327   0.59529   0.80406   0.00000  Uiso   1.00
C1598  C     0.13979   0.36072   0.72241   0.00000  Uiso   1.00
C1599  C     0.19226   0.63926   0.77948   0.00000  Uiso   1.00
C1600  C     0.19275   0.35587   0.77863   0.00000  Uiso   1.00
C1601  C     0.13829   0.64447   0.72386   0.00000  Uiso   1.00
C1602  C     0.02203   0.46759   0.71946   0.00000  Uiso   1.00
Cu1603 Cu    0.16667   0.54689   0.75000   0.00000  Uiso   1.00
Cu1604 Cu    0.16667   0.45311   0.75000   0.00000  Uiso   1.00
H1605  H     0.08129   0.38685   0.71055   0.00000  Uiso   1.00
H1606  H     0.26974   0.34242   0.79907   0.00000  Uiso   1.00
H1607  H     0.26798   0.36146   0.85378   0.00000  Uiso   1.00
H1608  H     0.27449   0.40305   0.81025   0.00000  Uiso   1.00
H1609  H     0.07562   0.64340   0.71152   0.00000  Uiso   1.00
H1610  H     0.07707   0.62598   0.64061   0.00000  Uiso   1.00
H1611  H     0.09290   0.57032   0.66443   0.00000  Uiso   1.00
H1612  H     0.13077   0.61009   0.64815   0.00000  Uiso   1.00
H1613  H     0.22452   0.58278   0.97641   0.00000  Uiso   1.00
H1614  H     0.24800   0.58457   0.53272   0.00000  Uiso   1.00
H1615  H     0.22699   0.63594   0.50321   0.00000  Uiso   1.00
H1616  H     0.13065   0.35920   0.63911   0.00000  Uiso   1.00
H1617  H     0.27716   0.52311   0.99054   0.00000  Uiso   1.00
H1618  H     0.27594   0.50288   0.93472   0.00000  Uiso   1.00
H1619  H     0.30246   0.46952   0.97972   0.00000  Uiso   1.00
H1620  H     0.08801   0.50688   0.50815   0.00000  Uiso   1.00
H1621  H     0.06707   0.51365   0.95075   0.00000  Uiso   1.00
H1622  H     0.05392   0.55484   0.99019   0.00000  Uiso   1.00
H1623  H     0.12021   0.43623   0.98761   0.00000  Uiso   1.00
H1624  H     0.11703   0.41377   0.54461   0.00000  Uiso   1.00
H1625  H     0.13622   0.37777   0.50353   0.00000  Uiso   1.00
H1626  H     0.22606   0.57395   0.63978   0.00000  Uiso   1.00
H1627  H     0.11192   0.41828   0.63321   0.00000  Uiso   1.00
H1628  H     0.19580   0.65212   0.63587   0.00000  Uiso   1.00
H1629  H     0.16564   0.63956   0.58681   0.00000  Uiso   1.00
H1630  H     0.22162   0.64192   0.58675   0.00000  Uiso   1.00
H1631  H     0.25033   0.43864   0.89629   0.00000  Uiso   1.00
H1632  H     0.21719   0.39392   0.95731   0.00000  Uiso   1.00
H1633  H     0.22721   0.36291   0.91038   0.00000  Uiso   1.00
H1634  H     0.17597   0.38634   0.91594   0.00000  Uiso   1.00
H1635  H     0.09751   0.54110   0.84824   0.00000  Uiso   1.00
H1636  H     0.11180   0.61915   0.84593   0.00000  Uiso   1.00
H1637  H     0.12849   0.61640   0.90381   0.00000  Uiso   1.00
H1638  H     0.07624   0.37321   0.63766   0.00000  Uiso   1.00
H1639  H     0.07460   0.61653   0.88762   0.00000  Uiso   1.00
H1640  H     0.18020   0.39223   0.59910   0.00000  Uiso   1.00
H1641  H     0.25217   0.41269   0.59785   0.00000  Uiso   1.00
H1642  H     0.24044   0.38152   0.64811   0.00000  Uiso   1.00
H1643  H     0.24500   0.44328   0.64762   0.00000  Uiso   1.00
H1644  H     0.01569   0.42708   0.66493   0.00000  Uiso   1.00
H1645  H     0.05070   0.46714   0.61456   0.00000  Uiso   1.00
H1646  H     0.07962   0.49457   0.65718   0.00000  Uiso   1.00
H1647  H     0.02638   0.51326   0.64230   0.00000  Uiso   1.00
H1648  H     0.30715   0.57747   0.67218   0.00000  Uiso   1.00
H1649  H     0.24476   0.59842   0.80459   0.00000  Uiso   1.00
H1650  H     0.28457   0.64676   0.69280   0.00000  Uiso   1.00
H1651  H     0.27690   0.62225   0.74712   0.00000  Uiso   1.00
H1652  H     0.23809   0.61840   0.70308   0.00000  Uiso   1.00
H1653  H     0.27473   0.40714   0.71488   0.00000  Uiso   1.00
H1654  H     0.31952   0.34675   0.75822   0.00000  Uiso   1.00
H1655  H     0.02548   0.38649   0.76178   0.00000  Uiso   1.00
H1656  H     0.00843   0.36441   0.70866   0.00000  Uiso   1.00
H1657  H     0.02342   0.61312   0.73824   0.00000  Uiso   1.00
H1658  H     0.32308   0.60197   0.80591   0.00000  Uiso   1.00
H1659  H     0.03912   0.62656   0.81432   0.00000  Uiso   1.00
H1660  H     0.23919   0.62796   0.87570   0.00000  Uiso   1.00
H1661  H     0.03282   0.56557   0.82724   0.00000  Uiso   1.00
H1662  H     0.20456   0.58252   0.87447   0.00000  Uiso   1.00
H1663  H     0.18461   0.64096   0.86366   0.00000  Uiso   1.00
H1664  H     0.19914   0.38176   0.83933   0.00000  Uiso   1.00
N1665  N     0.16667   0.61736   0.75000   0.00000  Uiso   1.00
N1666  N     0.19092   0.42010   0.61535   0.00000  Uiso   1.00
N1667  N     0.03547   0.44960   0.67949   0.00000  Uiso   1.00
N1668  N     0.28988   0.57428   0.69940   0.00000  Uiso   1.00
N1669  N     0.30099   0.41391   0.73356   0.00000  Uiso   1.00
N1670  N     0.03301   0.58563   0.75952   0.00000  Uiso   1.00
N1671  N     0.16667   0.38264   0.75000   0.00000  Uiso   1.00
N1672  N     0.10924   0.38805   0.69692   0.00000  Uiso   1.00
N1673  N     0.21659   0.61160   0.81226   0.00000  Uiso   1.00
N1674  N     0.21509   0.37900   0.81166   0.00000  Uiso   1.00
N1675  N     0.10192   0.62430   0.70660   0.00000  Uiso   1.00
N1676  N     0.19993   0.58331   0.62011   0.00000  Uiso   1.00
N1677  N     0.21910   0.43502   0.89714   0.00000  Uiso   1.00
N1678  N     0.10641   0.55399   0.87823   0.00000  Uiso   1.00
O1679  O     0.10655   0.53958   0.74999   0.00000  Uiso   1.00
O1680  O     0.23970   0.46804   0.98039   0.00000  Uiso   1.00
O1681  O     0.11255   0.55937   0.97021   0.00000  Uiso   1.00
O1682  O     0.17615   0.42641   0.52415   0.00000  Uiso   1.00
O1683  O     0.22679   0.46042   0.75001   0.00000  Uiso   1.00
O1684  O     0.22679   0.53958   0.75000   0.00000  Uiso   1.00
O1685  O     0.10655   0.46042   0.74999   0.00000  Uiso   1.00
O1686  O     0.16666   0.53959   0.68573   0.00000  Uiso   1.00
O1687  O     0.16667   0.46041   0.81427   0.00000  Uiso   1.00
O1688  O     0.16667   0.53959   0.81427   0.00000  Uiso   1.00
O1689  O     0.16666   0.46041   0.68573   0.00000  Uiso   1.00
O1690  O     0.18333   0.59280   0.52492   0.00000  Uiso   1.00
C1691  C     0.42047   0.50127   0.74727   0.00000  Uiso   1.00
C1692  C     0.64101   0.54274   0.73353   0.00000  Uiso   1.00
C1693  C     0.64836   0.45988   0.73082   0.00000  Uiso   1.00
C1694  C     0.35005   0.54412   0.74484   0.00000  Uiso   1.00
C1695  C     0.51540   0.55030   0.54769   0.00000  Uiso   1.00
C1696  C     0.53913   0.48722   0.95518   0.00000  Uiso   1.00
C1697  C     0.47480   0.53267   0.95027   0.00000  Uiso   1.00
C1698  C     0.50896   0.46663   0.54700   0.00000  Uiso   1.00
C1699  C     0.51717   0.54719   0.59457   0.00000  Uiso   1.00
C1700  C     0.53139   0.47479   0.91138   0.00000  Uiso   1.00
C1701  C     0.47221   0.52924   0.90399   0.00000  Uiso   1.00
C1702  C     0.57905   0.49936   0.74660   0.00000  Uiso   1.00
C1703  C     0.51304   0.46355   0.59319   0.00000  Uiso   1.00
C1704  C     0.51086   0.50401   0.61698   0.00000  Uiso   1.00
C1705  C     0.49991   0.49872   0.88417   0.00000  Uiso   1.00
C1706  C     0.50971   0.51003   0.52425   0.00000  Uiso   1.00
C1707  C     0.50848   0.51169   0.97564   0.00000  Uiso   1.00
C1708  C     0.62324   0.49949   0.73832   0.00000  Uiso   1.00
C1709  C     0.37515   0.50425   0.73904   0.00000  Uiso   1.00
C1710  C     0.44043   0.38413   0.64945   0.00000  Uiso   1.00
C1711  C     0.54397   0.61650   0.85870   0.00000  Uiso   1.00
C1712  C     0.59234   0.37081   0.81865   0.00000  Uiso   1.00
C1713  C     0.50382   0.50099   0.66528   0.00000  Uiso   1.00
C1714  C     0.43437   0.60694   0.66274   0.00000  Uiso   1.00
C1715  C     0.55591   0.59841   0.50887   0.00000  Uiso   1.00
C1716  C     0.60822   0.49232   0.97042   0.00000  Uiso   1.00
C1717  C     0.41257   0.53194   0.97996   0.00000  Uiso   1.00
C1718  C     0.46874   0.41358   0.51489   0.00000  Uiso   1.00
C1719  C     0.52874   0.63162   0.60598   0.00000  Uiso   1.00
C1720  C     0.54256   0.39270   0.92139   0.00000  Uiso   1.00
C1721  C     0.43881   0.60399   0.87902   0.00000  Uiso   1.00
C1722  C     0.56773   0.41422   0.62784   0.00000  Uiso   1.00
C1723  C     0.38199   0.48315   0.64692   0.00000  Uiso   1.00
C1724  C     0.50024   0.49910   0.83520   0.00000  Uiso   1.00
C1725  C     0.60493   0.61758   0.71157   0.00000  Uiso   1.00
C1726  C     0.66526   0.37633   0.74063   0.00000  Uiso   1.00
C1727  C     0.35660   0.59529   0.80406   0.00000  Uiso   1.00
C1728  C     0.47312   0.36072   0.72241   0.00000  Uiso   1.00
C1729  C     0.52559   0.63926   0.77948   0.00000  Uiso   1.00
C1730  C     0.52609   0.35587   0.77863   0.00000  Uiso   1.00
C1731  C     0.47162   0.64447   0.72386   0.00000  Uiso   1.00
C1732  C     0.35537   0.46759   0.71946   0.00000  Uiso   1.00
Cu1733 Cu    0.50000   0.54689   0.75000   0.00000  Uiso   1.00
Cu1734 Cu    0.50000   0.45311   0.75000   0.00000  Uiso   1.00
H1735  H     0.41463   0.38685   0.71055   0.00000  Uiso   1.00
H1736  H     0.60307   0.34242   0.79907   0.00000  Uiso   1.00
H1737  H     0.60131   0.36146   0.85378   0.00000  Uiso   1.00
H1738  H     0.60782   0.40305   0.81025   0.00000  Uiso   1.00
H1739  H     0.40895   0.64340   0.71152   0.00000  Uiso   1.00
H1740  H     0.41040   0.62598   0.64061   0.00000  Uiso   1.00
H1741  H     0.42624   0.57032   0.66443   0.00000  Uiso   1.00
H1742  H     0.46411   0.61009   0.64815   0.00000  Uiso   1.00
H1743  H     0.55785   0.58278   0.97641   0.00000  Uiso   1.00
H1744  H     0.58134   0.58457   0.53272   0.00000  Uiso   1.00
H1745  H     0.56032   0.63594   0.50321   0.00000  Uiso   1.00
H1746  H     0.46399   0.35920   0.63911   0.00000  Uiso   1.00
H1747  H     0.61049   0.52311   0.99054   0.00000  Uiso   1.00
H1748  H     0.60927   0.50288   0.93472   0.00000  Uiso   1.00
H1749  H     0.63580   0.46952   0.97972   0.00000  Uiso   1.00
H1750  H     0.42135   0.50688   0.50815   0.00000  Uiso   1.00
H1751  H     0.40041   0.51365   0.95075   0.00000  Uiso   1.00
H1752  H     0.38726   0.55484   0.99019   0.00000  Uiso   1.00
H1753  H     0.45354   0.43623   0.98761   0.00000  Uiso   1.00
H1754  H     0.45037   0.41377   0.54461   0.00000  Uiso   1.00
H1755  H     0.46955   0.37777   0.50353   0.00000  Uiso   1.00
H1756  H     0.55940   0.57395   0.63978   0.00000  Uiso   1.00
H1757  H     0.44526   0.41828   0.63321   0.00000  Uiso   1.00
H1758  H     0.52914   0.65212   0.63587   0.00000  Uiso   1.00
H1759  H     0.49897   0.63956   0.58681   0.00000  Uiso   1.00
H1760  H     0.55495   0.64192   0.58675   0.00000  Uiso   1.00
H1761  H     0.58366   0.43864   0.89629   0.00000  Uiso   1.00
H1762  H     0.55053   0.39392   0.95731   0.00000  Uiso   1.00
H1763  H     0.56054   0.36291   0.91038   0.00000  Uiso   1.00
H1764  H     0.50930   0.38634   0.91594   0.00000  Uiso   1.00
H1765  H     0.43084   0.54110   0.84824   0.00000  Uiso   1.00
H1766  H     0.44513   0.61915   0.84593   0.00000  Uiso   1.00
H1767  H     0.46182   0.61640   0.90381   0.00000  Uiso   1.00
H1768  H     0.40957   0.37321   0.63766   0.00000  Uiso   1.00
H1769  H     0.40794   0.61653   0.88762   0.00000  Uiso   1.00
H1770  H     0.51354   0.39223   0.59910   0.00000  Uiso   1.00
H1771  H     0.58550   0.41269   0.59785   0.00000  Uiso   1.00
H1772  H     0.57377   0.38152   0.64811   0.00000  Uiso   1.00
H1773  H     0.57833   0.44328   0.64762   0.00000  Uiso   1.00
H1774  H     0.34902   0.42708   0.66493   0.00000  Uiso   1.00
H1775  H     0.38403   0.46714   0.61456   0.00000  Uiso   1.00
H1776  H     0.41295   0.49457   0.65718   0.00000  Uiso   1.00
H1777  H     0.35971   0.51326   0.64230   0.00000  Uiso   1.00
H1778  H     0.64049   0.57747   0.67218   0.00000  Uiso   1.00
H1779  H     0.57810   0.59842   0.80459   0.00000  Uiso   1.00
H1780  H     0.61790   0.64676   0.69280   0.00000  Uiso   1.00
H1781  H     0.61024   0.62225   0.74712   0.00000  Uiso   1.00
H1782  H     0.57142   0.61840   0.70308   0.00000  Uiso   1.00
H1783  H     0.60807   0.40714   0.71488   0.00000  Uiso   1.00
H1784  H     0.65285   0.34675   0.75822   0.00000  Uiso   1.00
H1785  H     0.35882   0.38649   0.76178   0.00000  Uiso   1.00
H1786  H     0.34176   0.36441   0.70866   0.00000  Uiso   1.00
H1787  H     0.35675   0.61312   0.73824   0.00000  Uiso   1.00
H1788  H     0.65641   0.60197   0.80591   0.00000  Uiso   1.00
H1789  H     0.37245   0.62656   0.81432   0.00000  Uiso   1.00
H1790  H     0.57253   0.62796   0.87570   0.00000  Uiso   1.00
H1791  H     0.36616   0.56557   0.82724   0.00000  Uiso   1.00
H1792  H     0.53789   0.58252   0.87447   0.00000  Uiso   1.00
H1793  H     0.51795   0.64096   0.86366   0.00000  Uiso   1.00
H1794  H     0.53247   0.38176   0.83933   0.00000  Uiso   1.00
N1795  N     0.50000   0.61736   0.75000   0.00000  Uiso   1.00
N1796  N     0.52425   0.42010   0.61535   0.00000  Uiso   1.00
N1797  N     0.36881   0.44960   0.67949   0.00000  Uiso   1.00
N1798  N     0.62321   0.57428   0.69940   0.00000  Uiso   1.00
N1799  N     0.63433   0.41391   0.73356   0.00000  Uiso   1.00
N1800  N     0.36634   0.58563   0.75952   0.00000  Uiso   1.00
N1801  N     0.50000   0.38264   0.75000   0.00000  Uiso   1.00
N1802  N     0.44258   0.38805   0.69692   0.00000  Uiso   1.00
N1803  N     0.54993   0.61160   0.81226   0.00000  Uiso   1.00
N1804  N     0.54842   0.37900   0.81166   0.00000  Uiso   1.00
N1805  N     0.43525   0.62430   0.70660   0.00000  Uiso   1.00
N1806  N     0.53326   0.58331   0.62011   0.00000  Uiso   1.00
N1807  N     0.55244   0.43502   0.89714   0.00000  Uiso   1.00
N1808  N     0.43975   0.55399   0.87823   0.00000  Uiso   1.00
O1809  O     0.43988   0.53958   0.74999   0.00000  Uiso   1.00
O1810  O     0.57304   0.46804   0.98039   0.00000  Uiso   1.00
O1811  O     0.44588   0.55937   0.97021   0.00000  Uiso   1.00
O1812  O     0.50948   0.42641   0.52415   0.00000  Uiso   1.00
O1813  O     0.56012   0.46042   0.75001   0.00000  Uiso   1.00
O1814  O     0.56012   0.53958   0.75000   0.00000  Uiso   1.00
O1815  O     0.43988   0.46042   0.74999   0.00000  Uiso   1.00
O1816  O     0.50000   0.53959   0.68573   0.00000  Uiso   1.00
O1817  O     0.50000   0.46041   0.81427   0.00000  Uiso   1.00
O1818  O     0.50000   0.53959   0.81427   0.00000  Uiso   1.00
O1819  O     0.50000   0.46041   0.68573   0.00000  Uiso   1.00
O1820  O     0.51667   0.59280   0.52492   0.00000  Uiso   1.00
C1821  C     0.75380   0.50127   0.74727   0.00000  Uiso   1.00
C1822  C     0.97434   0.54274   0.73353   0.00000  Uiso   1.00
C1823  C     0.98169   0.45988   0.73082   0.00000  Uiso   1.00
C1824  C     0.68338   0.54412   0.74484   0.00000  Uiso   1.00
C1825  C     0.84873   0.55030   0.54769   0.00000  Uiso   1.00
C1826  C     0.87246   0.48722   0.95518   0.00000  Uiso   1.00
C1827  C     0.80813   0.53267   0.95027   0.00000  Uiso   1.00
C1828  C     0.84230   0.46663   0.54700   0.00000  Uiso   1.00
C1829  C     0.85050   0.54719   0.59457   0.00000  Uiso   1.00
C1830  C     0.86472   0.47479   0.91138   0.00000  Uiso   1.00
C1831  C     0.80555   0.52924   0.90399   0.00000  Uiso   1.00
C1832  C     0.91239   0.49936   0.74660   0.00000  Uiso   1.00
C1833  C     0.84637   0.46355   0.59319   0.00000  Uiso   1.00
C1834  C     0.84419   0.50401   0.61698   0.00000  Uiso   1.00
C1835  C     0.83324   0.49872   0.88417   0.00000  Uiso   1.00
C1836  C     0.84304   0.51003   0.52425   0.00000  Uiso   1.00
C1837  C     0.84182   0.51169   0.97564   0.00000  Uiso   1.00
C1838  C     0.95657   0.49949   0.73832   0.00000  Uiso   1.00
C1839  C     0.70848   0.50425   0.73904   0.00000  Uiso   1.00
C1840  C     0.77376   0.38413   0.64945   0.00000  Uiso   1.00
C1841  C     0.87731   0.61650   0.85870   0.00000  Uiso   1.00
C1842  C     0.92568   0.37081   0.81865   0.00000  Uiso   1.00
C1843  C     0.83715   0.50099   0.66528   0.00000  Uiso   1.00
C1844  C     0.76771   0.60694   0.66274   0.00000  Uiso   1.00
C1845  C     0.88924   0.59841   0.50887   0.00000  Uiso   1.00
C1846  C     0.94155   0.49232   0.97042   0.00000  Uiso   1.00
C1847  C     0.74591   0.53194   0.97996   0.00000  Uiso   1.00
C1848  C     0.80208   0.41358   0.51489   0.00000  Uiso   1.00
C1849  C     0.86207   0.63162   0.60598   0.00000  Uiso   1.00
C1850  C     0.87590   0.39270   0.92139   0.00000  Uiso   1.00
C1851  C     0.77214   0.60399   0.87902   0.00000  Uiso   1.00
C1852  C     0.90107   0.41422   0.62784   0.00000  Uiso   1.00
C1853  C     0.71532   0.48315   0.64692   0.00000  Uiso   1.00
C1854  C     0.83357   0.49910   0.83520   0.00000  Uiso   1.00
C1855  C     0.93827   0.61758   0.71157   0.00000  Uiso   1.00
C1856  C     0.99859   0.37633   0.74063   0.00000  Uiso   1.00
C1857  C     0.68993   0.59529   0.80406   0.00000  Uiso   1.00
C1858  C     0.80646   0.36072   0.72241   0.00000  Uiso   1.00
C1859  C     0.85893   0.63926   0.77948   0.00000  Uiso   1.00
C1860  C     0.85942   0.35587   0.77863   0.00000  Uiso   1.00
C1861  C     0.80495   0.64447   0.72386   0.00000  Uiso   1.00
C1862  C     0.68870   0.46759   0.71946   0.00000  Uiso   1.00
Cu1863 Cu    0.83333   0.54689   0.75000   0.00000  Uiso   1.00
Cu1864 Cu    0.83333   0.45311   0.75000   0.00000  Uiso   1.00
H1865  H     0.74796   0.38685   0.71055   0.00000  Uiso   1.00
H1866  H     0.93640   0.34242   0.79907   0.00000  Uiso   1.00
H1867  H     0.93464   0.36146   0.85378   0.00000  Uiso   1.00
H1868  H     0.94116   0.40305   0.81025   0.00000  Uiso   1.00
H1869  H     0.74229   0.64340   0.71152   0.00000  Uiso   1.00
H1870  H     0.74373   0.62598   0.64061   0.00000  Uiso   1.00
H1871  H     0.75957   0.57032   0.66443   0.00000  Uiso   1.00
H1872  H     0.79744   0.61009   0.64815   0.00000  Uiso   1.00
H1873  H     0.89119   0.58278   0.97641   0.00000  Uiso   1.00
H1874  H     0.91467   0.58457   0.53272   0.00000  Uiso   1.00
H1875  H     0.89366   0.63594   0.50321   0.00000  Uiso   1.00
H1876  H     0.79732   0.35920   0.63911   0.00000  Uiso   1.00
H1877  H     0.94382   0.52311   0.99054   0.00000  Uiso   1.00
H1878  H     0.94261   0.50288   0.93472   0.00000  Uiso   1.00
H1879  H     0.96913   0.46952   0.97972   0.00000  Uiso   1.00
H1880  H     0.75468   0.50688   0.50815   0.00000  Uiso   1.00
H1881  H     0.73374   0.51365   0.95075   0.00000  Uiso   1.00
H1882  H     0.72059   0.55484   0.99019   0.00000  Uiso   1.00
H1883  H     0.78688   0.43623   0.98761   0.00000  Uiso   1.00
H1884  H     0.78370   0.41377   0.54461   0.00000  Uiso   1.00
H1885  H     0.80288   0.37777   0.50353   0.00000  Uiso   1.00
H1886  H     0.89273   0.57395   0.63978   0.00000  Uiso   1.00
H1887  H     0.77859   0.41828   0.63321   0.00000  Uiso   1.00
H1888  H     0.86247   0.65212   0.63587   0.00000  Uiso   1.00
H1889  H     0.83231   0.63956   0.58681   0.00000  Uiso   1.00
H1890  H     0.88829   0.64192   0.58675   0.00000  Uiso   1.00
H1891  H     0.91699   0.43864   0.89629   0.00000  Uiso   1.00
H1892  H     0.88386   0.39392   0.95731   0.00000  Uiso   1.00
H1893  H     0.89387   0.36291   0.91038   0.00000  Uiso   1.00
H1894  H     0.84264   0.38634   0.91594   0.00000  Uiso   1.00
H1895  H     0.76417   0.54110   0.84824   0.00000  Uiso   1.00
H1896  H     0.77847   0.61915   0.84593   0.00000  Uiso   1.00
H1897  H     0.79515   0.61640   0.90381   0.00000  Uiso   1.00
H1898  H     0.74291   0.37321   0.63766   0.00000  Uiso   1.00
H1899  H     0.74127   0.61653   0.88762   0.00000  Uiso   1.00
H1900  H     0.84687   0.39223   0.59910   0.00000  Uiso   1.00
H1901  H     0.91883   0.41269   0.59785   0.00000  Uiso   1.00
H1902  H     0.90711   0.38152   0.64811   0.00000  Uiso   1.00
H1903  H     0.91167   0.44328   0.64762   0.00000  Uiso   1.00
H1904  H     0.68236   0.42708   0.66493   0.00000  Uiso   1.00
H1905  H     0.71737   0.46714   0.61456   0.00000  Uiso   1.00
H1906  H     0.74628   0.49457   0.65718   0.00000  Uiso   1.00
H1907  H     0.69304   0.51326   0.64230   0.00000  Uiso   1.00
H1908  H     0.97382   0.57747   0.67218   0.00000  Uiso   1.00
H1909  H     0.91143   0.59842   0.80459   0.00000  Uiso   1.00
H1910  H     0.95123   0.64676   0.69280   0.00000  Uiso   1.00
H1911  H     0.94357   0.62225   0.74712   0.00000  Uiso   1.00
H1912  H     0.90475   0.61840   0.70308   0.00000  Uiso   1.00
H1913  H     0.94140   0.40714   0.71488   0.00000  Uiso   1.00
H1914  H     0.98618   0.34675   0.75822   0.00000  Uiso   1.00
H1915  H     0.69215   0.38649   0.76178   0.00000  Uiso   1.00
H1916  H     0.67510   0.36441   0.70866   0.00000  Uiso   1.00
H1917  H     0.69008   0.61312   0.73824   0.00000  Uiso   1.00
H1918  H     0.98975   0.60197   0.80591   0.00000  Uiso   1.00
H1919  H     0.70578   0.62656   0.81432   0.00000  Uiso   1.00
H1920  H     0.90586   0.62796   0.87570   0.00000  Uiso   1.00
H1921  H     0.69949   0.56557   0.82724   0.00000  Uiso   1.00
H1922  H     0.87122   0.58252   0.87447   0.00000  Uiso   1.00
H1923  H     0.85128   0.64096   0.86366   0.00000  Uiso   1.00
H1924  H     0.86581   0.38176   0.83933   0.00000  Uiso   1.00
N1925  N     0.83333   0.61736   0.75000   0.00000  Uiso   1.00
N1926  N     0.85759   0.42010   0.61535   0.00000  Uiso   1.00
N1927  N     0.70214   0.44960   0.67949   0.00000  Uiso   1.00
N1928  N     0.95654   0.57428   0.69940   0.00000  Uiso   1.00
N1929  N     0.96766   0.41391   0.73356   0.00000  Uiso   1.00
N1930  N     0.69968   0.58563   0.75952   0.00000  Uiso   1.00
N1931  N     0.83333   0.38264   0.75000   0.00000  Uiso   1.00
N1932  N     0.77591   0.38805   0.69692   0.00000  Uiso   1.00
N1933  N     0.88326   0.61160   0.81226   0.00000  Uiso   1.00
N1934  N     0.88175   0.37900   0.81166   0.00000  Uiso   1.00
N1935  N     0.76859   0.62430   0.70660   0.00000  Uiso   1.00
N1936  N     0.86659   0.58331   0.62011   0.00000  Uiso   1.00
N1937  N     0.88577   0.43502   0.89714   0.00000  Uiso   1.00
N1938  N     0.77308   0.55399   0.87823   0.00000  Uiso   1.00
O1939  O     0.77321   0.53958   0.74999   0.00000  Uiso   1.00
O1940  O     0.90637   0.46804   0.98039   0.00000  Uiso   1.00
O1941  O     0.77922   0.55937   0.97021   0.00000  Uiso   1.00
O1942  O     0.84281   0.42641   0.52415   0.00000  Uiso   1.00
O1943  O     0.89345   0.46042   0.75001   0.00000  Uiso   1.00
O1944  O     0.89345   0.53958   0.75000   0.00000  Uiso   1.00
O1945  O     0.77321   0.46042   0.74999   0.00000  Uiso   1.00
O1946  O     0.83333   0.53959   0.68573   0.00000  Uiso   1.00
O1947  O     0.83334   0.46041   0.81427   0.00000  Uiso   1.00
O1948  O     0.83334   0.53959   0.81427   0.00000  Uiso   1.00
O1949  O     0.83333   0.46041   0.68573   0.00000  Uiso   1.00
O1950  O     0.85000   0.59280   0.52492   0.00000  Uiso   1.00
C1951  C     0.08714   0.83460   0.74727   0.00000  Uiso   1.00
C1952  C     0.30768   0.87608   0.73353   0.00000  Uiso   1.00
C1953  C     0.31503   0.79322   0.73082   0.00000  Uiso   1.00
C1954  C     0.01671   0.87745   0.74484   0.00000  Uiso   1.00
C1955  C     0.18207   0.88363   0.54769   0.00000  Uiso   1.00
C1956  C     0.20580   0.82055   0.95518   0.00000  Uiso   1.00
C1957  C     0.14146   0.86601   0.95027   0.00000  Uiso   1.00
C1958  C     0.17563   0.79996   0.54700   0.00000  Uiso   1.00
C1959  C     0.18383   0.88052   0.59457   0.00000  Uiso   1.00
C1960  C     0.19805   0.80813   0.91138   0.00000  Uiso   1.00
C1961  C     0.13888   0.86257   0.90399   0.00000  Uiso   1.00
C1962  C     0.24572   0.83269   0.74660   0.00000  Uiso   1.00
C1963  C     0.17970   0.79688   0.59319   0.00000  Uiso   1.00
C1964  C     0.17753   0.83734   0.61698   0.00000  Uiso   1.00
C1965  C     0.16657   0.83205   0.88417   0.00000  Uiso   1.00
C1966  C     0.17637   0.84337   0.52425   0.00000  Uiso   1.00
C1967  C     0.17515   0.84503   0.97564   0.00000  Uiso   1.00
C1968  C     0.28990   0.83283   0.73832   0.00000  Uiso   1.00
C1969  C     0.04182   0.83759   0.73904   0.00000  Uiso   1.00
C1970  C     0.10709   0.71747   0.64945   0.00000  Uiso   1.00
C1971  C     0.21064   0.94983   0.85870   0.00000  Uiso   1.00
C1972  C     0.25901   0.70414   0.81865   0.00000  Uiso   1.00
C1973  C     0.17048   0.83432   0.66528   0.00000  Uiso   1.00
C1974  C     0.10104   0.94027   0.66274   0.00000  Uiso   1.00
C1975  C     0.22258   0.93174   0.50887   0.00000  Uiso   1.00
C1976  C     0.27488   0.82565   0.97042   0.00000  Uiso   1.00
C1977  C     0.07924   0.86527   0.97996   0.00000  Uiso   1.00
C1978  C     0.13541   0.74692   0.51489   0.00000  Uiso   1.00
C1979  C     0.19541   0.96496   0.60598   0.00000  Uiso   1.00
C1980  C     0.20923   0.72603   0.92139   0.00000  Uiso   1.00
C1981  C     0.10548   0.93732   0.87902   0.00000  Uiso   1.00
C1982  C     0.23440   0.74756   0.62784   0.00000  Uiso   1.00
C1983  C     0.04866   0.81648   0.64692   0.00000  Uiso   1.00
C1984  C     0.16691   0.83244   0.83520   0.00000  Uiso   1.00
C1985  C     0.27160   0.95092   0.71157   0.00000  Uiso   1.00
C1986  C     0.33193   0.70966   0.74063   0.00000  Uiso   1.00
C1987  C     0.02327   0.92862   0.80406   0.00000  Uiso   1.00
C1988  C     0.13979   0.69405   0.72241   0.00000  Uiso   1.00
C1989  C     0.19226   0.97259   0.77948   0.00000  Uiso   1.00
C1990  C     0.19275   0.68920   0.77863   0.00000  Uiso   1.00
C1991  C     0.13829   0.97781   0.72386   0.00000  Uiso   1.00
C1992  C     0.02203   0.80092   0.71946   0.00000  Uiso   1.00
Cu1993 Cu    0.16667   0.88022   0.75000   0.00000  Uiso   1.00
Cu1994 Cu    0.16667   0.78645   0.75000   0.00000  Uiso   1.00
H1995  H     0.08129   0.72018   0.71055   0.00000  Uiso   1.00
H1996  H     0.26974   0.67575   0.79907   0.00000  Uiso   1.00
H1997  H     0.26798   0.69480   0.85378   0.00000  Uiso   1.00
H1998  H     0.27449   0.73638   0.81025   0.00000  Uiso   1.00
H1999  H     0.07562   0.97673   0.71152   0.00000  Uiso   1.00
H2000  H     0.07707   0.95932   0.64061   0.00000  Uiso   1.00
H2001  H     0.09290   0.90366   0.66443   0.00000  Uiso   1.00
H2002  H     0.13077   0.94342   0.64815   0.00000  Uiso   1.00
H2003  H     0.22452   0.91611   0.97641   0.00000  Uiso   1.00
H2004  H     0.24800   0.91790   0.53272   0.00000  Uiso   1.00
H2005  H     0.22699   0.96928   0.50321   0.00000  Uiso   1.00
H2006  H     0.13065   0.69254   0.63911   0.00000  Uiso   1.00
H2007  H     0.27716   0.85644   0.99054   0.00000  Uiso   1.00
H2008  H     0.27594   0.83622   0.93472   0.00000  Uiso   1.00
H2009  H     0.30246   0.80285   0.97972   0.00000  Uiso   1.00
H2010  H     0.08801   0.84021   0.50815   0.00000  Uiso   1.00
H2011  H     0.06707   0.84699   0.95075   0.00000  Uiso   1.00
H2012  H     0.05392   0.88818   0.99019   0.00000  Uiso   1.00
H2013  H     0.12021   0.76957   0.98761   0.00000  Uiso   1.00
H2014  H     0.11703   0.74710   0.54461   0.00000  Uiso   1.00
H2015  H     0.13622   0.71110   0.50353   0.00000  Uiso   1.00
H2016  H     0.22606   0.90729   0.63978   0.00000  Uiso   1.00
H2017  H     0.11192   0.75161   0.63321   0.00000  Uiso   1.00
H2018  H     0.19580   0.98546   0.63587   0.00000  Uiso   1.00
H2019  H     0.16564   0.97289   0.58681   0.00000  Uiso   1.00
H2020  H     0.22162   0.97526   0.58675   0.00000  Uiso   1.00
H2021  H     0.25033   0.77197   0.89629   0.00000  Uiso   1.00
H2022  H     0.21719   0.72726   0.95731   0.00000  Uiso   1.00
H2023  H     0.22721   0.69624   0.91038   0.00000  Uiso   1.00
H2024  H     0.17597   0.71967   0.91594   0.00000  Uiso   1.00
H2025  H     0.09751   0.87444   0.84824   0.00000  Uiso   1.00
H2026  H     0.11180   0.95248   0.84593   0.00000  Uiso   1.00
H2027  H     0.12849   0.94973   0.90381   0.00000  Uiso   1.00
H2028  H     0.07624   0.70654   0.63766   0.00000  Uiso   1.00
H2029  H     0.07460   0.94986   0.88762   0.00000  Uiso   1.00
H2030  H     0.18020   0.72556   0.59910   0.00000  Uiso   1.00
H2031  H     0.25217   0.74602   0.59785   0.00000  Uiso   1.00
H2032  H     0.24044   0.71485   0.64811   0.00000  Uiso   1.00
H2033  H     0.24500   0.77661   0.64762   0.00000  Uiso   1.00
H2034  H     0.01569   0.76041   0.66493   0.00000  Uiso   1.00
H2035  H     0.05070   0.80047   0.61456   0.00000  Uiso   1.00
H2036  H     0.07962   0.82791   0.65718   0.00000  Uiso   1.00
H2037  H     0.02638   0.84660   0.64230   0.00000  Uiso   1.00
H2038  H     0.30715   0.91081   0.67218   0.00000  Uiso   1.00
H2039  H     0.24476   0.93175   0.80459   0.00000  Uiso   1.00
H2040  H     0.28457   0.98010   0.69280   0.00000  Uiso   1.00
H2041  H     0.27690   0.95558   0.74712   0.00000  Uiso   1.00
H2042  H     0.23809   0.95173   0.70308   0.00000  Uiso   1.00
H2043  H     0.27473   0.74048   0.71488   0.00000  Uiso   1.00
H2044  H     0.31952   0.68009   0.75822   0.00000  Uiso   1.00
H2045  H     0.02548   0.71982   0.76178   0.00000  Uiso   1.00
H2046  H     0.00843   0.69774   0.70866   0.00000  Uiso   1.00
H2047  H     0.02342   0.94645   0.73824   0.00000  Uiso   1.00
H2048  H     0.32308   0.93531   0.80591   0.00000  Uiso   1.00
H2049  H     0.03912   0.95989   0.81432   0.00000  Uiso   1.00
H2050  H     0.23919   0.96129   0.87570   0.00000  Uiso   1.00
H2051  H     0.03282   0.89890   0.82724   0.00000  Uiso   1.00
H2052  H     0.20456   0.91585   0.87447   0.00000  Uiso   1.00
H2053  H     0.18461   0.97429   0.86366   0.00000  Uiso   1.00
H2054  H     0.19914   0.71509   0.83933   0.00000  Uiso   1.00
N2055  N     0.16667   0.95069   0.75000   0.00000  Uiso   1.00
N2056  N     0.19092   0.75343   0.61535   0.00000  Uiso   1.00
N2057  N     0.03547   0.78293   0.67949   0.00000  Uiso   1.00
N2058  N     0.28988   0.90761   0.69940   0.00000  Uiso   1.00
N2059  N     0.30099   0.74724   0.73356   0.00000  Uiso   1.00
N2060  N     0.03301   0.91896   0.75952   0.00000  Uiso   1.00
N2061  N     0.16667   0.71598   0.75000   0.00000  Uiso   1.00
N2062  N     0.10924   0.72139   0.69692   0.00000  Uiso   1.00
N2063  N     0.21659   0.94493   0.81226   0.00000  Uiso   1.00
N2064  N     0.21509   0.71234   0.81166   0.00000  Uiso   1.00
N2065  N     0.10192   0.95763   0.70660   0.00000  Uiso   1.00
N2066  N     0.19993   0.91665   0.62011   0.00000  Uiso   1.00
N2067  N     0.21910   0.76836   0.89714   0.00000  Uiso   1.00
N2068  N     0.10641   0.88732   0.87823   0.00000  Uiso   1.00
O2069  O     0.10655   0.87291   0.74999   0.00000  Uiso   1.00
O2070  O     0.23970   0.80138   0.98039   0.00000  Uiso   1.00
O2071  O     0.11255   0.89270   0.97021   0.00000  Uiso   1.00
O2072  O     0.17615   0.75975   0.52415   0.00000  Uiso   1.00
O2073  O     0.22679   0.79375   0.75001   0.00000  Uiso   1.00
O2074  O     0.22679   0.87291   0.75000   0.00000  Uiso   1.00
O2075  O     0.10655   0.79375   0.74999   0.00000  Uiso   1.00
O2076  O     0.16666   0.87293   0.68573   0.00000  Uiso   1.00
O2077  O     0.16667   0.79374   0.81427   0.00000  Uiso   1.00
O2078  O     0.16667   0.87293   0.81427   0.00000  Uiso   1.00
O2079  O     0.16666   0.79374   0.68573   0.00000  Uiso   1.00
O2080  O     0.18333   0.92614   0.52492   0.00000  Uiso   1.00
C2081  C     0.42047   0.83460   0.74727   0.00000  Uiso   1.00
C2082  C     0.64101   0.87608   0.73353   0.00000  Uiso   1.00
C2083  C     0.64836   0.79322   0.73082   0.00000  Uiso   1.00
C2084  C     0.35005   0.87745   0.74484   0.00000  Uiso   1.00
C2085  C     0.51540   0.88363   0.54769   0.00000  Uiso   1.00
C2086  C     0.53913   0.82055   0.95518   0.00000  Uiso   1.00
C2087  C     0.47480   0.86601   0.95027   0.00000  Uiso   1.00
C2088  C     0.50896   0.79996   0.54700   0.00000  Uiso   1.00
C2089  C     0.51717   0.88052   0.59457   0.00000  Uiso   1.00
C2090  C     0.53139   0.80813   0.91138   0.00000  Uiso   1.00
C2091  C     0.47221   0.86257   0.90399   0.00000  Uiso   1.00
C2092  C     0.57905   0.83269   0.74660   0.00000  Uiso   1.00
C2093  C     0.51304   0.79688   0.59319   0.00000  Uiso   1.00
C2094  C     0.51086   0.83734   0.61698   0.00000  Uiso   1.00
C2095  C     0.49991   0.83205   0.88417   0.00000  Uiso   1.00
C2096  C     0.50971   0.84337   0.52425   0.00000  Uiso   1.00
C2097  C     0.50848   0.84503   0.97564   0.00000  Uiso   1.00
C2098  C     0.62324   0.83283   0.73832   0.00000  Uiso   1.00
C2099  C     0.37515   0.83759   0.73904   0.00000  Uiso   1.00
C2100  C     0.44043   0.71747   0.64945   0.00000  Uiso   1.00
C2101  C     0.54397   0.94983   0.85870   0.00000  Uiso   1.00
C2102  C     0.59234   0.70414   0.81865   0.00000  Uiso   1.00
C2103  C     0.50382   0.83432   0.66528   0.00000  Uiso   1.00
C2104  C     0.43437   0.94027   0.66274   0.00000  Uiso   1.00
C2105  C     0.55591   0.93174   0.50887   0.00000  Uiso   1.00
C2106  C     0.60822   0.82565   0.97042   0.00000  Uiso   1.00
C2107  C     0.41257   0.86527   0.97996   0.00000  Uiso   1.00
C2108  C     0.46874   0.74692   0.51489   0.00000  Uiso   1.00
C2109  C     0.52874   0.96496   0.60598   0.00000  Uiso   1.00
C2110  C     0.54256   0.72603   0.92139   0.00000  Uiso   1.00
C2111  C     0.43881   0.93732   0.87902   0.00000  Uiso   1.00
C2112  C     0.56773   0.74756   0.62784   0.00000  Uiso   1.00
C2113  C     0.38199   0.81648   0.64692   0.00000  Uiso   1.00
C2114  C     0.50024   0.83244   0.83520   0.00000  Uiso   1.00
C2115  C     0.60493   0.95092   0.71157   0.00000  Uiso   1.00
C2116  C     0.66526   0.70966   0.74063   0.00000  Uiso   1.00
C2117  C     0.35660   0.92862   0.80406   0.00000  Uiso   1.00
C2118  C     0.47312   0.69405   0.72241   0.00000  Uiso   1.00
C2119  C     0.52559   0.97259   0.77948   0.00000  Uiso   1.00
C2120  C     0.52609   0.68920   0.77863   0.00000  Uiso   1.00
C2121  C     0.47162   0.97781   0.72386   0.00000  Uiso   1.00
C2122  C     0.35537   0.80092   0.71946   0.00000  Uiso   1.00
Cu2123 Cu    0.50000   0.88022   0.75000   0.00000  Uiso   1.00
Cu2124 Cu    0.50000   0.78645   0.75000   0.00000  Uiso   1.00
H2125  H     0.41463   0.72018   0.71055   0.00000  Uiso   1.00
H2126  H     0.60307   0.67575   0.79907   0.00000  Uiso   1.00
H2127  H     0.60131   0.69480   0.85378   0.00000  Uiso   1.00
H2128  H     0.60782   0.73638   0.81025   0.00000  Uiso   1.00
H2129  H     0.40895   0.97673   0.71152   0.00000  Uiso   1.00
H2130  H     0.41040   0.95932   0.64061   0.00000  Uiso   1.00
H2131  H     0.42624   0.90366   0.66443   0.00000  Uiso   1.00
H2132  H     0.46411   0.94342   0.64815   0.00000  Uiso   1.00
H2133  H     0.55785   0.91611   0.97641   0.00000  Uiso   1.00
H2134  H     0.58134   0.91790   0.53272   0.00000  Uiso   1.00
H2135  H     0.56032   0.96928   0.50321   0.00000  Uiso   1.00
H2136  H     0.46399   0.69254   0.63911   0.00000  Uiso   1.00
H2137  H     0.61049   0.85644   0.99054   0.00000  Uiso   1.00
H2138  H     0.60927   0.83622   0.93472   0.00000  Uiso   1.00
H2139  H     0.63580   0.80285   0.97972   0.00000  Uiso   1.00
H2140  H     0.42135   0.84021   0.50815   0.00000  Uiso   1.00
H2141  H     0.40041   0.84699   0.95075   0.00000  Uiso   1.00
H2142  H     0.38726   0.88818   0.99019   0.00000  Uiso   1.00
H2143  H     0.45354   0.76957   0.98761   0.00000  Uiso   1.00
H2144  H     0.45037   0.74710   0.54461   0.00000  Uiso   1.00
H2145  H     0.46955   0.71110   0.50353   0.00000  Uiso   1.00
H2146  H     0.55940   0.90729   0.63978   0.00000  Uiso   1.00
H2147  H     0.44526   0.75161   0.63321   0.00000  Uiso   1.00
H2148  H     0.52914   0.98546   0.63587   0.00000  Uiso   1.00
H2149  H     0.49897   0.97289   0.58681   0.00000  Uiso   1.00
H2150  H     0.55495   0.97526   0.58675   0.00000  Uiso   1.00
H2151  H     0.58366   0.77197   0.89629   0.00000  Uiso   1.00
H2152  H     0.55053   0.72726   0.95731   0.00000  Uiso   1.00
H2153  H     0.56054   0.69624   0.91038   0.00000  Uiso   1.00
H2154  H     0.50930   0.71967   0.91594   0.00000  Uiso   1.00
H2155  H     0.43084   0.87444   0.84824   0.00000  Uiso   1.00
H2156  H     0.44513   0.95248   0.84593   0.00000  Uiso   1.00
H2157  H     0.46182   0.94973   0.90381   0.00000  Uiso   1.00
H2158  H     0.40957   0.70654   0.63766   0.00000  Uiso   1.00
H2159  H     0.40794   0.94986   0.88762   0.00000  Uiso   1.00
H2160  H     0.51354   0.72556   0.59910   0.00000  Uiso   1.00
H2161  H     0.58550   0.74602   0.59785   0.00000  Uiso   1.00
H2162  H     0.57377   0.71485   0.64811   0.00000  Uiso   1.00
H2163  H     0.57833   0.77661   0.64762   0.00000  Uiso   1.00
H2164  H     0.34902   0.76041   0.66493   0.00000  Uiso   1.00
H2165  H     0.38403   0.80047   0.61456   0.00000  Uiso   1.00
H2166  H     0.41295   0.82791   0.65718   0.00000  Uiso   1.00
H2167  H     0.35971   0.84660   0.64230   0.00000  Uiso   1.00
H2168  H     0.64049   0.91081   0.67218   0.00000  Uiso   1.00
H2169  H     0.57810   0.93175   0.80459   0.00000  Uiso   1.00
H2170  H     0.61790   0.98010   0.69280   0.00000  Uiso   1.00
H2171  H     0.61024   0.95558   0.74712   0.00000  Uiso   1.00
H2172  H     0.57142   0.95173   0.70308   0.00000  Uiso   1.00
H2173  H     0.60807   0.74048   0.71488   0.00000  Uiso   1.00
H2174  H     0.65285   0.68009   0.75822   0.00000  Uiso   1.00
H2175  H     0.35882   0.71982   0.76178   0.00000  Uiso   1.00
H2176  H     0.34176   0.69774   0.70866   0.00000  Uiso   1.00
H2177  H     0.35675   0.94645   0.73824   0.00000  Uiso   1.00
H2178  H     0.65641   0.93531   0.80591   0.00000  Uiso   1.00
H2179  H     0.37245   0.95989   0.81432   0.00000  Uiso   1.00
H2180  H     0.57253   0.96129   0.87570   0.00000  Uiso   1.00
H2181  H     0.36616   0.89890   0.82724   0.00000  Uiso   1.00
H2182  H     0.53789   0.91585   0.87447   0.00000  Uiso   1.00
H2183  H     0.51795   0.97429   0.86366   0.00000  Uiso   1.00
H2184  H     0.53247   0.71509   0.83933   0.00000  Uiso   1.00
N2185  N     0.50000   0.95069   0.75000   0.00000  Uiso   1.00
N2186  N     0.52425   0.75343   0.61535   0.00000  Uiso   1.00
N2187  N     0.36881   0.78293   0.67949   0.00000  Uiso   1.00
N2188  N     0.62321   0.90761   0.69940   0.00000  Uiso   1.00
N2189  N     0.63433   0.74724   0.73356   0.00000  Uiso   1.00
N2190  N     0.36634   0.91896   0.75952   0.00000  Uiso   1.00
N2191  N     0.50000   0.71598   0.75000   0.00000  Uiso   1.00
N2192  N     0.44258   0.72139   0.69692   0.00000  Uiso   1.00
N2193  N     0.54993   0.94493   0.81226   0.00000  Uiso   1.00
N2194  N     0.54842   0.71234   0.81166   0.00000  Uiso   1.00
N2195  N     0.43525   0.95763   0.70660   0.00000  Uiso   1.00
N2196  N     0.53326   0.91665   0.62011   0.00000  Uiso   1.00
N2197  N     0.55244   0.76836   0.89714   0.00000  Uiso   1.00
N2198  N     0.43975   0.88732   0.87823   0.00000  Uiso   1.00
O2199  O     0.43988   0.87291   0.74999   0.00000  Uiso   1.00
O2200  O     0.57304   0.80138   0.98039   0.00000  Uiso   1.00
O2201  O     0.44588   0.89270   0.97021   0.00000  Uiso   1.00
O2202  O     0.50948   0.75975   0.52415   0.00000  Uiso   1.00
O2203  O     0.56012   0.79375   0.75001   0.00000  Uiso   1.00
O2204  O     0.56012   0.87291   0.75000   0.00000  Uiso   1.00
O2205  O     0.43988   0.79375   0.74999   0.00000  Uiso   1.00
O2206  O     0.50000   0.87293   0.68573   0.00000  Uiso   1.00
O2207  O     0.50000   0.79374   0.81427   0.00000  Uiso   1.00
O2208  O     0.50000   0.87293   0.81427   0.00000  Uiso   1.00
O2209  O     0.50000   0.79374   0.68573   0.00000  Uiso   1.00
O2210  O     0.51667   0.92614   0.52492   0.00000  Uiso   1.00
C2211  C     0.75380   0.83460   0.74727   0.00000  Uiso   1.00
C2212  C     0.97434   0.87608   0.73353   0.00000  Uiso   1.00
C2213  C     0.98169   0.79322   0.73082   0.00000  Uiso   1.00
C2214  C     0.68338   0.87745   0.74484   0.00000  Uiso   1.00
C2215  C     0.84873   0.88363   0.54769   0.00000  Uiso   1.00
C2216  C     0.87246   0.82055   0.95518   0.00000  Uiso   1.00
C2217  C     0.80813   0.86601   0.95027   0.00000  Uiso   1.00
C2218  C     0.84230   0.79996   0.54700   0.00000  Uiso   1.00
C2219  C     0.85050   0.88052   0.59457   0.00000  Uiso   1.00
C2220  C     0.86472   0.80813   0.91138   0.00000  Uiso   1.00
C2221  C     0.80555   0.86257   0.90399   0.00000  Uiso   1.00
C2222  C     0.91239   0.83269   0.74660   0.00000  Uiso   1.00
C2223  C     0.84637   0.79688   0.59319   0.00000  Uiso   1.00
C2224  C     0.84419   0.83734   0.61698   0.00000  Uiso   1.00
C2225  C     0.83324   0.83205   0.88417   0.00000  Uiso   1.00
C2226  C     0.84304   0.84337   0.52425   0.00000  Uiso   1.00
C2227  C     0.84182   0.84503   0.97564   0.00000  Uiso   1.00
C2228  C     0.95657   0.83283   0.73832   0.00000  Uiso   1.00
C2229  C     0.70848   0.83759   0.73904   0.00000  Uiso   1.00
C2230  C     0.77376   0.71747   0.64945   0.00000  Uiso   1.00
C2231  C     0.87731   0.94983   0.85870   0.00000  Uiso   1.00
C2232  C     0.92568   0.70414   0.81865   0.00000  Uiso   1.00
C2233  C     0.83715   0.83432   0.66528   0.00000  Uiso   1.00
C2234  C     0.76771   0.94027   0.66274   0.00000  Uiso   1.00
C2235  C     0.88924   0.93174   0.50887   0.00000  Uiso   1.00
C2236  C     0.94155   0.82565   0.97042   0.00000  Uiso   1.00
C2237  C     0.74591   0.86527   0.97996   0.00000  Uiso   1.00
C2238  C     0.80208   0.74692   0.51489   0.00000  Uiso   1.00
C2239  C     0.86207   0.96496   0.60598   0.00000  Uiso   1.00
C2240  C     0.87590   0.72603   0.92139   0.00000  Uiso   1.00
C2241  C     0.77214   0.93732   0.87902   0.00000  Uiso   1.00
C2242  C     0.90107   0.74756   0.62784   0.00000  Uiso   1.00
C2243  C     0.71532   0.81648   0.64692   0.00000  Uiso   1.00
C2244  C     0.83357   0.83244   0.83520   0.00000  Uiso   1.00
C2245  C     0.93827   0.95092   0.71157   0.00000  Uiso   1.00
C2246  C     0.99859   0.70966   0.74063   0.00000  Uiso   1.00
C2247  C     0.68993   0.92862   0.80406   0.00000  Uiso   1.00
C2248  C     0.80646   0.69405   0.72241   0.00000  Uiso   1.00
C2249  C     0.85893   0.97259   0.77948   0.00000  Uiso   1.00
C2250  C     0.85942   0.68920   0.77863   0.00000  Uiso   1.00
C2251  C     0.80495   0.97781   0.72386   0.00000  Uiso   1.00
C2252  C     0.68870   0.80092   0.71946   0.00000  Uiso   1.00
Cu2253 Cu    0.83333   0.88022   0.75000   0.00000  Uiso   1.00
Cu2254 Cu    0.83333   0.78645   0.75000   0.00000  Uiso   1.00
H2255  H     0.74796   0.72018   0.71055   0.00000  Uiso   1.00
H2256  H     0.93640   0.67575   0.79907   0.00000  Uiso   1.00
H2257  H     0.93464   0.69480   0.85378   0.00000  Uiso   1.00
H2258  H     0.94116   0.73638   0.81025   0.00000  Uiso   1.00
H2259  H     0.74229   0.97673   0.71152   0.00000  Uiso   1.00
H2260  H     0.74373   0.95932   0.64061   0.00000  Uiso   1.00
H2261  H     0.75957   0.90366   0.66443   0.00000  Uiso   1.00
H2262  H     0.79744   0.94342   0.64815   0.00000  Uiso   1.00
H2263  H     0.89119   0.91611   0.97641   0.00000  Uiso   1.00
H2264  H     0.91467   0.91790   0.53272   0.00000  Uiso   1.00
H2265  H     0.89366   0.96928   0.50321   0.00000  Uiso   1.00
H2266  H     0.79732   0.69254   0.63911   0.00000  Uiso   1.00
H2267  H     0.94382   0.85644   0.99054   0.00000  Uiso   1.00
H2268  H     0.94261   0.83622   0.93472   0.00000  Uiso   1.00
H2269  H     0.96913   0.80285   0.97972   0.00000  Uiso   1.00
H2270  H     0.75468   0.84021   0.50815   0.00000  Uiso   1.00
H2271  H     0.73374   0.84699   0.95075   0.00000  Uiso   1.00
H2272  H     0.72059   0.88818   0.99019   0.00000  Uiso   1.00
H2273  H     0.78688   0.76957   0.98761   0.00000  Uiso   1.00
H2274  H     0.78370   0.74710   0.54461   0.00000  Uiso   1.00
H2275  H     0.80288   0.71110   0.50353   0.00000  Uiso   1.00
H2276  H     0.89273   0.90729   0.63978   0.00000  Uiso   1.00
H2277  H     0.77859   0.75161   0.63321   0.00000  Uiso   1.00
H2278  H     0.86247   0.98546   0.63587   0.00000  Uiso   1.00
H2279  H     0.83231   0.97289   0.58681   0.00000  Uiso   1.00
H2280  H     0.88829   0.97526   0.58675   0.00000  Uiso   1.00
H2281  H     0.91699   0.77197   0.89629   0.00000  Uiso   1.00
H2282  H     0.88386   0.72726   0.95731   0.00000  Uiso   1.00
H2283  H     0.89387   0.69624   0.91038   0.00000  Uiso   1.00
H2284  H     0.84264   0.71967   0.91594   0.00000  Uiso   1.00
H2285  H     0.76417   0.87444   0.84824   0.00000  Uiso   1.00
H2286  H     0.77847   0.95248   0.84593   0.00000  Uiso   1.00
H2287  H     0.79515   0.94973   0.90381   0.00000  Uiso   1.00
H2288  H     0.74291   0.70654   0.63766   0.00000  Uiso   1.00
H2289  H     0.74127   0.94986   0.88762   0.00000  Uiso   1.00
H2290  H     0.84687   0.72556   0.59910   0.00000  Uiso   1.00
H2291  H     0.91883   0.74602   0.59785   0.00000  Uiso   1.00
H2292  H     0.90711   0.71485   0.64811   0.00000  Uiso   1.00
H2293  H     0.91167   0.77661   0.64762   0.00000  Uiso   1.00
H2294  H     0.68236   0.76041   0.66493   0.00000  Uiso   1.00
H2295  H     0.71737   0.80047   0.61456   0.00000  Uiso   1.00
H2296  H     0.74628   0.82791   0.65718   0.00000  Uiso   1.00
H2297  H     0.69304   0.84660   0.64230   0.00000  Uiso   1.00
H2298  H     0.97382   0.91081   0.67218   0.00000  Uiso   1.00
H2299  H     0.91143   0.93175   0.80459   0.00000  Uiso   1.00
H2300  H     0.95123   0.98010   0.69280   0.00000  Uiso   1.00
H2301  H     0.94357   0.95558   0.74712   0.00000  Uiso   1.00
H2302  H     0.90475   0.95173   0.70308   0.00000  Uiso   1.00
H2303  H     0.94140   0.74048   0.71488   0.00000  Uiso   1.00
H2304  H     0.98618   0.68009   0.75822   0.00000  Uiso   1.00
H2305  H     0.69215   0.71982   0.76178   0.00000  Uiso   1.00
H2306  H     0.67510   0.69774   0.70866   0.00000  Uiso   1.00
H2307  H     0.69008   0.94645   0.73824   0.00000  Uiso   1.00
H2308  H     0.98975   0.93531   0.80591   0.00000  Uiso   1.00
H2309  H     0.70578   0.95989   0.81432   0.00000  Uiso   1.00
H2310  H     0.90586   0.96129   0.87570   0.00000  Uiso   1.00
H2311  H     0.69949   0.89890   0.82724   0.00000  Uiso   1.00
H2312  H     0.87122   0.91585   0.87447   0.00000  Uiso   1.00
H2313  H     0.85128   0.97429   0.86366   0.00000  Uiso   1.00
H2314  H     0.86581   0.71509   0.83933   0.00000  Uiso   1.00
N2315  N     0.83333   0.95069   0.75000   0.00000  Uiso   1.00
N2316  N     0.85759   0.75343   0.61535   0.00000  Uiso   1.00
N2317  N     0.70214   0.78293   0.67949   0.00000  Uiso   1.00
N2318  N     0.95654   0.90761   0.69940   0.00000  Uiso   1.00
N2319  N     0.96766   0.74724   0.73356   0.00000  Uiso   1.00
N2320  N     0.69968   0.91896   0.75952   0.00000  Uiso   1.00
N2321  N     0.83333   0.71598   0.75000   0.00000  Uiso   1.00
N2322  N     0.77591   0.72139   0.69692   0.00000  Uiso   1.00
N2323  N     0.88326   0.94493   0.81226   0.00000  Uiso   1.00
N2324  N     0.88175   0.71234   0.81166   0.00000  Uiso   1.00
N2325  N     0.76859   0.95763   0.70660   0.00000  Uiso   1.00
N2326  N     0.86659   0.91665   0.62011   0.00000  Uiso   1.00
N2327  N     0.88577   0.76836   0.89714   0.00000  Uiso   1.00
N2328  N     0.77308   0.88732   0.87823   0.00000  Uiso   1.00
O2329  O     0.77321   0.87291   0.74999   0.00000  Uiso   1.00
O2330  O     0.90637   0.80138   0.98039   0.00000  Uiso   1.00
O2331  O     0.77922   0.89270   0.97021   0.00000  Uiso   1.00
O2332  O     0.84281   0.75975   0.52415   0.00000  Uiso   1.00
O2333  O     0.89345   0.79375   0.75001   0.00000  Uiso   1.00
O2334  O     0.89345   0.87291   0.75000   0.00000  Uiso   1.00
O2335  O     0.77321   0.79375   0.74999   0.00000  Uiso   1.00
O2336  O     0.83333   0.87293   0.68573   0.00000  Uiso   1.00
O2337  O     0.83334   0.79374   0.81427   0.00000  Uiso   1.00
O2338  O     0.83334   0.87293   0.81427   0.00000  Uiso   1.00
O2339  O     0.83333   0.79374   0.68573   0.00000  Uiso   1.00
O2340  O     0.85000   0.92614   0.52492   0.00000  Uiso   1.00
loop_
_geom_bond_atom_site_label_1
_geom_bond_atom_site_label_2
_geom_bond_distance
_geom_bond_site_symmetry_2
_ccdc_geom_bond_type
C1     O125    1.317   .     A
C1     O119    1.303   .     A
C1     C19     1.483   .     S
C2     C18     1.407   .     A
C2     N108    1.427   .     S
C2     C134    1.406   .     S
C3     C18     1.421   .     A
C3     N109    1.426   .     S
C3     C172    1.406   .     S
C4     C19     1.415   .     A
C4     N110    1.414   .     S
C4     C262    1.406   1_455 S
C5     C16     1.408   .     A
C5     C9      1.419   .     A
C5     O130    1.386   .     S
C6     O120    1.386   .     S
C6     C17     1.399   .     A
C6     C10     1.404   .     A
C7     C11     1.410   .     A
C7     O121    1.385   .     S
C7     C17     1.402   .     A
C8     C13     1.398   .     A
C8     C16     1.407   .     A
C8     O122    1.385   .     S
C9     C14     1.424   .     A
C9     N116    1.429   .     S
C10    C15     1.414   .     A
C10    N117    1.418   .     S
C11    C15     1.421   .     A
C11    N118    1.425   .     S
C12    O124    1.310   .     A
C12    O123    1.310   .     A
C12    C18     1.480   .     S
C13    C14     1.408   .     A
C13    N106    1.422   .     S
C14    C23     1.497   .     S
C15    C34     1.486   .     S
C16    C1187   1.471   1_554 S
C17    C1186   1.471   .     S
C19    C42     1.402   .     A
C20    H67     1.105   .     S
C20    H56     1.105   .     S
C20    N112    1.448   .     S
C20    H78     1.110   .     S
C21    N113    1.448   .     S
C21    H102    1.105   .     S
C21    H100    1.106   .     S
C21    H103    1.108   .     S
C22    H48     1.106   .     S
C22    H47     1.105   .     S
C22    H46     1.098   .     S
C22    N114    1.445   .     S
C23    O129    1.317   .     A
C23    O126    1.311   .     A
C24    H52     1.097   .     S
C24    H51     1.104   .     S
C24    H50     1.110   .     S
C24    N115    1.444   .     S
C25    O130    1.412   .     S
C25    H54     1.115   .     S
C25    H55     1.109   .     S
C25    H1223   1.108   1_554 S
C26    H58     1.115   .     S
C26    H59     1.109   .     S
C26    O120    1.411   .     S
C26    H57     1.108   .     S
C27    O121    1.410   .     S
C27    H61     1.114   .     S
C27    H62     1.109   .     S
C27    H1230   1.111   .     S
C28    O122    1.409   .     S
C28    H64     1.115   .     S
C28    H65     1.109   .     S
C28    H1233   1.110   1_554 S
C29    H69     1.110   .     S
C29    H68     1.108   .     S
C29    N116    1.444   .     S
C29    H70     1.108   .     S
C30    H74     1.111   .     S
C30    H73     1.102   .     S
C30    H72     1.107   .     S
C30    N117    1.457   .     S
C31    H77     1.111   .     S
C31    N118    1.450   .     S
C31    H79     1.109   .     S
C31    H76     1.111   .     S
C32    H81     1.112   .     S
C32    H83     1.111   .     S
C32    N106    1.447   .     S
C32    H82     1.109   .     S
C33    N107    1.450   .     S
C33    H85     1.111   .     S
C33    H86     1.106   .     S
C33    H87     1.112   .     S
C34    O127    1.315   .     A
C34    O128    1.307   .     A
C35    N108    1.443   .     S
C35    H92     1.107   .     S
C35    H90     1.109   .     S
C35    H91     1.097   .     S
C36    H94     1.093   .     S
C36    N109    1.455   .     S
C36    H225    1.111   .     S
C36    H226    1.108   .     S
C37    N110    1.446   .     S
C37    H99     1.109   .     S
C37    H101    1.107   .     S
C37    H358    1.109   1_455 S
C38    N112    1.415   .     S
C38    N111    1.369   .     A
C38    C821    1.438   1_545 S
C39    N105    1.379   .     A
C39    N113    1.427   .     S
C39    C430    1.447   .     S
C40    N114    1.413   .     S
C40    N111    1.368   .     A
C40    C819    1.447   1_545 S
C41    N105    1.376   .     A
C41    N115    1.425   .     S
C41    C428    1.438   .     S
C42    N107    1.431   .     S
C42    C263    1.406   1_455 S
Cu43   N105    2.043   .     S
Cu43   O126    1.972   .     S
Cu43   O119    1.982   .     S
Cu43   Cu44    2.718   .     S
Cu43   O128    1.952   .     S
Cu43   O124    1.966   .     S
Cu44   O127    1.972   .     S
Cu44   O125    1.966   .     S
Cu44   O129    1.952   .     S
Cu44   O123    1.982   .     S
Cu44   N111    2.043   .     S
H45    N112    1.027   .     S
H49    N115    1.026   .     S
H53    C1195   1.108   .     S
H60    C1197   1.111   1_554 S
H63    C1198   1.110   .     S
H66    N116    1.029   .     S
H71    N117    1.030   .     S
H75    N118    1.029   .     S
H80    N106    1.028   .     S
H84    N107    1.031   .     S
H88    N108    1.032   .     S
H89    N113    1.027   .     S
H93    N109    1.028   .     S
H95    C296    1.111   1_455 S
H96    C296    1.108   1_455 S
H97    N110    1.027   .     S
H98    C167    1.109   .     S
H104   N114    1.021   .     S
C131   O255    1.317   .     A
C131   O249    1.303   .     A
C131   C149    1.483   .     S
C132   C148    1.407   .     A
C132   N238    1.427   .     S
C132   C264    1.406   .     S
C133   C148    1.421   .     A
C133   N239    1.426   .     S
C133   C302    1.406   .     S
C134   C149    1.415   .     A
C134   N240    1.414   .     S
C135   C146    1.408   .     A
C135   C139    1.419   .     A
C135   O260    1.386   .     S
C136   O250    1.386   .     S
C136   C147    1.399   .     A
C136   C140    1.404   .     A
C137   C141    1.410   .     A
C137   O251    1.385   .     S
C137   C147    1.402   .     A
C138   C143    1.398   .     A
C138   C146    1.407   .     A
C138   O252    1.385   .     S
C139   C144    1.424   .     A
C139   N246    1.429   .     S
C140   C145    1.414   .     A
C140   N247    1.418   .     S
C141   C145    1.421   .     A
C141   N248    1.425   .     S
C142   O254    1.310   .     A
C142   O253    1.310   .     A
C142   C148    1.480   .     S
C143   C144    1.408   .     A
C143   N236    1.422   .     S
C144   C153    1.497   .     S
C145   C164    1.486   .     S
C146   C1317   1.471   1_554 S
C147   C1316   1.471   .     S
C149   C172    1.402   .     A
C150   H197    1.105   .     S
C150   H186    1.105   .     S
C150   N242    1.448   .     S
C150   H208    1.110   .     S
C151   N243    1.448   .     S
C151   H232    1.105   .     S
C151   H230    1.106   .     S
C151   H233    1.108   .     S
C152   H178    1.106   .     S
C152   H177    1.105   .     S
C152   H176    1.098   .     S
C152   N244    1.445   .     S
C153   O259    1.317   .     A
C153   O256    1.311   .     A
C154   H182    1.097   .     S
C154   H181    1.104   .     S
C154   H180    1.110   .     S
C154   N245    1.444   .     S
C155   O260    1.412   .     S
C155   H184    1.115   .     S
C155   H185    1.109   .     S
C155   H1353   1.108   1_554 S
C156   H188    1.115   .     S
C156   H189    1.109   .     S
C156   O250    1.411   .     S
C156   H187    1.108   .     S
C157   O251    1.410   .     S
C157   H191    1.114   .     S
C157   H192    1.109   .     S
C157   H1360   1.111   .     S
C158   O252    1.409   .     S
C158   H194    1.115   .     S
C158   H195    1.109   .     S
C158   H1363   1.110   1_554 S
C159   H199    1.110   .     S
C159   H198    1.108   .     S
C159   N246    1.444   .     S
C159   H200    1.108   .     S
C160   H204    1.111   .     S
C160   H203    1.102   .     S
C160   H202    1.107   .     S
C160   N247    1.457   .     S
C161   H207    1.111   .     S
C161   N248    1.450   .     S
C161   H209    1.109   .     S
C161   H206    1.111   .     S
C162   H211    1.112   .     S
C162   H213    1.111   .     S
C162   N236    1.447   .     S
C162   H212    1.109   .     S
C163   N237    1.450   .     S
C163   H215    1.111   .     S
C163   H216    1.106   .     S
C163   H217    1.112   .     S
C164   O257    1.315   .     A
C164   O258    1.307   .     A
C165   N238    1.443   .     S
C165   H222    1.107   .     S
C165   H220    1.109   .     S
C165   H221    1.097   .     S
C166   H224    1.093   .     S
C166   N239    1.455   .     S
C166   H355    1.111   .     S
C166   H356    1.108   .     S
C167   N240    1.446   .     S
C167   H229    1.109   .     S
C167   H231    1.107   .     S
C168   N242    1.415   .     S
C168   N241    1.369   .     A
C168   C951    1.438   1_545 S
C169   N235    1.379   .     A
C169   N243    1.427   .     S
C169   C560    1.447   .     S
C170   N244    1.413   .     S
C170   N241    1.368   .     A
C170   C949    1.447   1_545 S
C171   N235    1.376   .     A
C171   N245    1.425   .     S
C171   C558    1.438   .     S
C172   N237    1.431   .     S
Cu173  N235    2.043   .     S
Cu173  O256    1.972   .     S
Cu173  O249    1.982   .     S
Cu173  Cu174   2.718   .     S
Cu173  O258    1.952   .     S
Cu173  O254    1.966   .     S
Cu174  O257    1.972   .     S
Cu174  O255    1.966   .     S
Cu174  O259    1.952   .     S
Cu174  O253    1.982   .     S
Cu174  N241    2.043   .     S
H175   N242    1.027   .     S
H179   N245    1.026   .     S
H183   C1325   1.108   .     S
H190   C1327   1.111   1_554 S
H193   C1328   1.110   .     S
H196   N246    1.029   .     S
H201   N247    1.030   .     S
H205   N248    1.029   .     S
H210   N236    1.028   .     S
H214   N237    1.031   .     S
H218   N238    1.032   .     S
H219   N243    1.027   .     S
H223   N239    1.028   .     S
H227   N240    1.027   .     S
H228   C297    1.109   .     S
H234   N244    1.021   .     S
C261   O385    1.317   .     A
C261   O379    1.303   .     A
C261   C279    1.483   .     S
C262   C278    1.407   .     A
C262   N368    1.427   .     S
C262   C4      1.406   1_655 S
C263   C278    1.421   .     A
C263   N369    1.426   .     S
C263   C42     1.406   1_655 S
C264   C279    1.415   .     A
C264   N370    1.414   .     S
C265   C276    1.408   .     A
C265   C269    1.419   .     A
C265   O390    1.386   .     S
C266   O380    1.386   .     S
C266   C277    1.399   .     A
C266   C270    1.404   .     A
C267   C271    1.410   .     A
C267   O381    1.385   .     S
C267   C277    1.402   .     A
C268   C273    1.398   .     A
C268   C276    1.407   .     A
C268   O382    1.385   .     S
C269   C274    1.424   .     A
C269   N376    1.429   .     S
C270   C275    1.414   .     A
C270   N377    1.418   .     S
C271   C275    1.421   .     A
C271   N378    1.425   .     S
C272   O384    1.310   .     A
C272   O383    1.310   .     A
C272   C278    1.480   .     S
C273   C274    1.408   .     A
C273   N366    1.422   .     S
C274   C283    1.497   .     S
C275   C294    1.486   .     S
C276   C1447   1.471   1_554 S
C277   C1446   1.471   .     S
C279   C302    1.402   .     A
C280   H327    1.105   .     S
C280   H316    1.105   .     S
C280   N372    1.448   .     S
C280   H338    1.110   .     S
C281   N373    1.448   .     S
C281   H362    1.105   .     S
C281   H360    1.106   .     S
C281   H363    1.108   .     S
C282   H308    1.106   .     S
C282   H307    1.105   .     S
C282   H306    1.098   .     S
C282   N374    1.445   .     S
C283   O389    1.317   .     A
C283   O386    1.311   .     A
C284   H312    1.097   .     S
C284   H311    1.104   .     S
C284   H310    1.110   .     S
C284   N375    1.444   .     S
C285   O390    1.412   .     S
C285   H314    1.115   .     S
C285   H315    1.109   .     S
C285   H1483   1.108   1_554 S
C286   H318    1.115   .     S
C286   H319    1.109   .     S
C286   O380    1.411   .     S
C286   H317    1.108   .     S
C287   O381    1.410   .     S
C287   H321    1.114   .     S
C287   H322    1.109   .     S
C287   H1490   1.111   .     S
C288   O382    1.409   .     S
C288   H324    1.115   .     S
C288   H325    1.109   .     S
C288   H1493   1.110   1_554 S
C289   H329    1.110   .     S
C289   H328    1.108   .     S
C289   N376    1.444   .     S
C289   H330    1.108   .     S
C290   H334    1.111   .     S
C290   H333    1.102   .     S
C290   H332    1.107   .     S
C290   N377    1.457   .     S
C291   H337    1.111   .     S
C291   N378    1.450   .     S
C291   H339    1.109   .     S
C291   H336    1.111   .     S
C292   H341    1.112   .     S
C292   H343    1.111   .     S
C292   N366    1.447   .     S
C292   H342    1.109   .     S
C293   N367    1.450   .     S
C293   H345    1.111   .     S
C293   H346    1.106   .     S
C293   H347    1.112   .     S
C294   O387    1.315   .     A
C294   O388    1.307   .     A
C295   N368    1.443   .     S
C295   H352    1.107   .     S
C295   H350    1.109   .     S
C295   H351    1.097   .     S
C296   H354    1.093   .     S
C296   N369    1.455   .     S
C296   H95     1.111   1_655 S
C296   H96     1.108   1_655 S
C297   N370    1.446   .     S
C297   H359    1.109   .     S
C297   H361    1.107   .     S
C298   N372    1.415   .     S
C298   N371    1.369   .     A
C298   C1081   1.438   1_545 S
C299   N365    1.379   .     A
C299   N373    1.427   .     S
C299   C690    1.447   .     S
C300   N374    1.413   .     S
C300   N371    1.368   .     A
C300   C1079   1.447   1_545 S
C301   N365    1.376   .     A
C301   N375    1.425   .     S
C301   C688    1.438   .     S
C302   N367    1.431   .     S
Cu303  N365    2.043   .     S
Cu303  O386    1.972   .     S
Cu303  O379    1.982   .     S
Cu303  Cu304   2.718   .     S
Cu303  O388    1.952   .     S
Cu303  O384    1.966   .     S
Cu304  O387    1.972   .     S
Cu304  O385    1.966   .     S
Cu304  O389    1.952   .     S
Cu304  O383    1.982   .     S
Cu304  N371    2.043   .     S
H305   N372    1.027   .     S
H309   N375    1.026   .     S
H313   C1455   1.108   .     S
H320   C1457   1.111   1_554 S
H323   C1458   1.110   .     S
H326   N376    1.029   .     S
H331   N377    1.030   .     S
H335   N378    1.029   .     S
H340   N366    1.028   .     S
H344   N367    1.031   .     S
H348   N368    1.032   .     S
H349   N373    1.027   .     S
H353   N369    1.028   .     S
H357   N370    1.027   .     S
H358   C37     1.109   1_655 S
H364   N374    1.021   .     S
C391   O515    1.317   .     A
C391   O509    1.303   .     A
C391   C409    1.483   .     S
C392   C408    1.407   .     A
C392   N498    1.427   .     S
C392   C524    1.406   .     S
C393   C408    1.421   .     A
C393   N499    1.426   .     S
C393   C562    1.406   .     S
C394   C409    1.415   .     A
C394   N500    1.414   .     S
C394   C652    1.406   1_455 S
C395   C406    1.408   .     A
C395   C399    1.419   .     A
C395   O520    1.386   .     S
C396   O510    1.386   .     S
C396   C407    1.399   .     A
C396   C400    1.404   .     A
C397   C401    1.410   .     A
C397   O511    1.385   .     S
C397   C407    1.402   .     A
C398   C403    1.398   .     A
C398   C406    1.407   .     A
C398   O512    1.385   .     S
C399   C404    1.424   .     A
C399   N506    1.429   .     S
C400   C405    1.414   .     A
C400   N507    1.418   .     S
C401   C405    1.421   .     A
C401   N508    1.425   .     S
C402   O514    1.310   .     A
C402   O513    1.310   .     A
C402   C408    1.480   .     S
C403   C404    1.408   .     A
C403   N496    1.422   .     S
C404   C413    1.497   .     S
C405   C424    1.486   .     S
C406   C1577   1.471   1_554 S
C407   C1576   1.471   .     S
C409   C432    1.402   .     A
C410   H457    1.105   .     S
C410   H446    1.105   .     S
C410   N502    1.448   .     S
C410   H468    1.110   .     S
C411   N503    1.448   .     S
C411   H492    1.105   .     S
C411   H490    1.106   .     S
C411   H493    1.108   .     S
C412   H438    1.106   .     S
C412   H437    1.105   .     S
C412   H436    1.098   .     S
C412   N504    1.445   .     S
C413   O519    1.317   .     A
C413   O516    1.311   .     A
C414   H442    1.097   .     S
C414   H441    1.104   .     S
C414   H440    1.110   .     S
C414   N505    1.444   .     S
C415   O520    1.412   .     S
C415   H444    1.115   .     S
C415   H445    1.109   .     S
C415   H1613   1.108   1_554 S
C416   H448    1.115   .     S
C416   H449    1.109   .     S
C416   O510    1.411   .     S
C416   H447    1.108   .     S
C417   O511    1.410   .     S
C417   H451    1.114   .     S
C417   H452    1.109   .     S
C417   H1620   1.111   .     S
C418   O512    1.409   .     S
C418   H454    1.115   .     S
C418   H455    1.109   .     S
C418   H1623   1.110   1_554 S
C419   H459    1.110   .     S
C419   H458    1.108   .     S
C419   N506    1.444   .     S
C419   H460    1.108   .     S
C420   H464    1.111   .     S
C420   H463    1.102   .     S
C420   H462    1.107   .     S
C420   N507    1.457   .     S
C421   H467    1.111   .     S
C421   N508    1.450   .     S
C421   H469    1.109   .     S
C421   H466    1.111   .     S
C422   H471    1.112   .     S
C422   H473    1.111   .     S
C422   N496    1.447   .     S
C422   H472    1.109   .     S
C423   N497    1.450   .     S
C423   H475    1.111   .     S
C423   H476    1.106   .     S
C423   H477    1.112   .     S
C424   O517    1.315   .     A
C424   O518    1.307   .     A
C425   N498    1.443   .     S
C425   H482    1.107   .     S
C425   H480    1.109   .     S
C425   H481    1.097   .     S
C426   H484    1.093   .     S
C426   N499    1.455   .     S
C426   H615    1.111   .     S
C426   H616    1.108   .     S
C427   N500    1.446   .     S
C427   H489    1.109   .     S
C427   H491    1.107   .     S
C427   H748    1.109   1_455 S
C428   N502    1.415   .     S
C428   N501    1.369   .     A
C429   N495    1.379   .     A
C429   N503    1.427   .     S
C429   C820    1.447   .     S
C430   N504    1.413   .     S
C430   N501    1.368   .     A
C431   N495    1.376   .     A
C431   N505    1.425   .     S
C431   C818    1.438   .     S
C432   N497    1.431   .     S
C432   C653    1.406   1_455 S
Cu433  N495    2.043   .     S
Cu433  O516    1.972   .     S
Cu433  O509    1.982   .     S
Cu433  Cu434   2.718   .     S
Cu433  O518    1.952   .     S
Cu433  O514    1.966   .     S
Cu434  O517    1.972   .     S
Cu434  O515    1.966   .     S
Cu434  O519    1.952   .     S
Cu434  O513    1.982   .     S
Cu434  N501    2.043   .     S
H435   N502    1.027   .     S
H439   N505    1.026   .     S
H443   C1585   1.108   .     S
H450   C1587   1.111   1_554 S
H453   C1588   1.110   .     S
H456   N506    1.029   .     S
H461   N507    1.030   .     S
H465   N508    1.029   .     S
H470   N496    1.028   .     S
H474   N497    1.031   .     S
H478   N498    1.032   .     S
H479   N503    1.027   .     S
H483   N499    1.028   .     S
H485   C686    1.111   1_455 S
H486   C686    1.108   1_455 S
H487   N500    1.027   .     S
H488   C557    1.109   .     S
H494   N504    1.021   .     S
C521   O645    1.317   .     A
C521   O639    1.303   .     A
C521   C539    1.483   .     S
C522   C538    1.407   .     A
C522   N628    1.427   .     S
C522   C654    1.406   .     S
C523   C538    1.421   .     A
C523   N629    1.426   .     S
C523   C692    1.406   .     S
C524   C539    1.415   .     A
C524   N630    1.414   .     S
C525   C536    1.408   .     A
C525   C529    1.419   .     A
C525   O650    1.386   .     S
C526   O640    1.386   .     S
C526   C537    1.399   .     A
C526   C530    1.404   .     A
C527   C531    1.410   .     A
C527   O641    1.385   .     S
C527   C537    1.402   .     A
C528   C533    1.398   .     A
C528   C536    1.407   .     A
C528   O642    1.385   .     S
C529   C534    1.424   .     A
C529   N636    1.429   .     S
C530   C535    1.414   .     A
C530   N637    1.418   .     S
C531   C535    1.421   .     A
C531   N638    1.425   .     S
C532   O644    1.310   .     A
C532   O643    1.310   .     A
C532   C538    1.480   .     S
C533   C534    1.408   .     A
C533   N626    1.422   .     S
C534   C543    1.497   .     S
C535   C554    1.486   .     S
C536   C1707   1.471   1_554 S
C537   C1706   1.471   .     S
C539   C562    1.402   .     A
C540   H587    1.105   .     S
C540   H576    1.105   .     S
C540   N632    1.448   .     S
C540   H598    1.110   .     S
C541   N633    1.448   .     S
C541   H622    1.105   .     S
C541   H620    1.106   .     S
C541   H623    1.108   .     S
C542   H568    1.106   .     S
C542   H567    1.105   .     S
C542   H566    1.098   .     S
C542   N634    1.445   .     S
C543   O649    1.317   .     A
C543   O646    1.311   .     A
C544   H572    1.097   .     S
C544   H571    1.104   .     S
C544   H570    1.110   .     S
C544   N635    1.444   .     S
C545   O650    1.412   .     S
C545   H574    1.115   .     S
C545   H575    1.109   .     S
C545   H1743   1.108   1_554 S
C546   H578    1.115   .     S
C546   H579    1.109   .     S
C546   O640    1.411   .     S
C546   H577    1.108   .     S
C547   O641    1.410   .     S
C547   H581    1.114   .     S
C547   H582    1.109   .     S
C547   H1750   1.111   .     S
C548   O642    1.409   .     S
C548   H584    1.115   .     S
C548   H585    1.109   .     S
C548   H1753   1.110   1_554 S
C549   H589    1.110   .     S
C549   H588    1.108   .     S
C549   N636    1.444   .     S
C549   H590    1.108   .     S
C550   H594    1.111   .     S
C550   H593    1.102   .     S
C550   H592    1.107   .     S
C550   N637    1.457   .     S
C551   H597    1.111   .     S
C551   N638    1.450   .     S
C551   H599    1.109   .     S
C551   H596    1.111   .     S
C552   H601    1.112   .     S
C552   H603    1.111   .     S
C552   N626    1.447   .     S
C552   H602    1.109   .     S
C553   N627    1.450   .     S
C553   H605    1.111   .     S
C553   H606    1.106   .     S
C553   H607    1.112   .     S
C554   O647    1.315   .     A
C554   O648    1.307   .     A
C555   N628    1.443   .     S
C555   H612    1.107   .     S
C555   H610    1.109   .     S
C555   H611    1.097   .     S
C556   H614    1.093   .     S
C556   N629    1.455   .     S
C556   H745    1.111   .     S
C556   H746    1.108   .     S
C557   N630    1.446   .     S
C557   H619    1.109   .     S
C557   H621    1.107   .     S
C558   N632    1.415   .     S
C558   N631    1.369   .     A
C559   N625    1.379   .     A
C559   N633    1.427   .     S
C559   C950    1.447   .     S
C560   N634    1.413   .     S
C560   N631    1.368   .     A
C561   N625    1.376   .     A
C561   N635    1.425   .     S
C561   C948    1.438   .     S
C562   N627    1.431   .     S
Cu563  N625    2.043   .     S
Cu563  O646    1.972   .     S
Cu563  O639    1.982   .     S
Cu563  Cu564   2.718   .     S
Cu563  O648    1.952   .     S
Cu563  O644    1.966   .     S
Cu564  O647    1.972   .     S
Cu564  O645    1.966   .     S
Cu564  O649    1.952   .     S
Cu564  O643    1.982   .     S
Cu564  N631    2.043   .     S
H565   N632    1.027   .     S
H569   N635    1.026   .     S
H573   C1715   1.108   .     S
H580   C1717   1.111   1_554 S
H583   C1718   1.110   .     S
H586   N636    1.029   .     S
H591   N637    1.030   .     S
H595   N638    1.029   .     S
H600   N626    1.028   .     S
H604   N627    1.031   .     S
H608   N628    1.032   .     S
H609   N633    1.027   .     S
H613   N629    1.028   .     S
H617   N630    1.027   .     S
H618   C687    1.109   .     S
H624   N634    1.021   .     S
C651   O775    1.317   .     A
C651   O769    1.303   .     A
C651   C669    1.483   .     S
C652   C668    1.407   .     A
C652   N758    1.427   .     S
C652   C394    1.406   1_655 S
C653   C668    1.421   .     A
C653   N759    1.426   .     S
C653   C432    1.406   1_655 S
C654   C669    1.415   .     A
C654   N760    1.414   .     S
C655   C666    1.408   .     A
C655   C659    1.419   .     A
C655   O780    1.386   .     S
C656   O770    1.386   .     S
C656   C667    1.399   .     A
C656   C660    1.404   .     A
C657   C661    1.410   .     A
C657   O771    1.385   .     S
C657   C667    1.402   .     A
C658   C663    1.398   .     A
C658   C666    1.407   .     A
C658   O772    1.385   .     S
C659   C664    1.424   .     A
C659   N766    1.429   .     S
C660   C665    1.414   .     A
C660   N767    1.418   .     S
C661   C665    1.421   .     A
C661   N768    1.425   .     S
C662   O774    1.310   .     A
C662   O773    1.310   .     A
C662   C668    1.480   .     S
C663   C664    1.408   .     A
C663   N756    1.422   .     S
C664   C673    1.497   .     S
C665   C684    1.486   .     S
C666   C1837   1.471   1_554 S
C667   C1836   1.471   .     S
C669   C692    1.402   .     A
C670   H717    1.105   .     S
C670   H706    1.105   .     S
C670   N762    1.448   .     S
C670   H728    1.110   .     S
C671   N763    1.448   .     S
C671   H752    1.105   .     S
C671   H750    1.106   .     S
C671   H753    1.108   .     S
C672   H698    1.106   .     S
C672   H697    1.105   .     S
C672   H696    1.098   .     S
C672   N764    1.445   .     S
C673   O779    1.317   .     A
C673   O776    1.311   .     A
C674   H702    1.097   .     S
C674   H701    1.104   .     S
C674   H700    1.110   .     S
C674   N765    1.444   .     S
C675   O780    1.412   .     S
C675   H704    1.115   .     S
C675   H705    1.109   .     S
C675   H1873   1.108   1_554 S
C676   H708    1.115   .     S
C676   H709    1.109   .     S
C676   O770    1.411   .     S
C676   H707    1.108   .     S
C677   O771    1.410   .     S
C677   H711    1.114   .     S
C677   H712    1.109   .     S
C677   H1880   1.111   .     S
C678   O772    1.409   .     S
C678   H714    1.115   .     S
C678   H715    1.109   .     S
C678   H1883   1.110   1_554 S
C679   H719    1.110   .     S
C679   H718    1.108   .     S
C679   N766    1.444   .     S
C679   H720    1.108   .     S
C680   H724    1.111   .     S
C680   H723    1.102   .     S
C680   H722    1.107   .     S
C680   N767    1.457   .     S
C681   H727    1.111   .     S
C681   N768    1.450   .     S
C681   H729    1.109   .     S
C681   H726    1.111   .     S
C682   H731    1.112   .     S
C682   H733    1.111   .     S
C682   N756    1.447   .     S
C682   H732    1.109   .     S
C683   N757    1.450   .     S
C683   H735    1.111   .     S
C683   H736    1.106   .     S
C683   H737    1.112   .     S
C684   O777    1.315   .     A
C684   O778    1.307   .     A
C685   N758    1.443   .     S
C685   H742    1.107   .     S
C685   H740    1.109   .     S
C685   H741    1.097   .     S
C686   H744    1.093   .     S
C686   N759    1.455   .     S
C686   H485    1.111   1_655 S
C686   H486    1.108   1_655 S
C687   N760    1.446   .     S
C687   H749    1.109   .     S
C687   H751    1.107   .     S
C688   N762    1.415   .     S
C688   N761    1.369   .     A
C689   N755    1.379   .     A
C689   N763    1.427   .     S
C689   C1080   1.447   .     S
C690   N764    1.413   .     S
C690   N761    1.368   .     A
C691   N755    1.376   .     A
C691   N765    1.425   .     S
C691   C1078   1.438   .     S
C692   N757    1.431   .     S
Cu693  N755    2.043   .     S
Cu693  O776    1.972   .     S
Cu693  O769    1.982   .     S
Cu693  Cu694   2.718   .     S
Cu693  O778    1.952   .     S
Cu693  O774    1.966   .     S
Cu694  O777    1.972   .     S
Cu694  O775    1.966   .     S
Cu694  O779    1.952   .     S
Cu694  O773    1.982   .     S
Cu694  N761    2.043   .     S
H695   N762    1.027   .     S
H699   N765    1.026   .     S
H703   C1845   1.108   .     S
H710   C1847   1.111   1_554 S
H713   C1848   1.110   .     S
H716   N766    1.029   .     S
H721   N767    1.030   .     S
H725   N768    1.029   .     S
H730   N756    1.028   .     S
H734   N757    1.031   .     S
H738   N758    1.032   .     S
H739   N763    1.027   .     S
H743   N759    1.028   .     S
H747   N760    1.027   .     S
H748   C427    1.109   1_655 S
H754   N764    1.021   .     S
C781   O905    1.317   .     A
C781   O899    1.303   .     A
C781   C799    1.483   .     S
C782   C798    1.407   .     A
C782   N888    1.427   .     S
C782   C914    1.406   .     S
C783   C798    1.421   .     A
C783   N889    1.426   .     S
C783   C952    1.406   .     S
C784   C799    1.415   .     A
C784   N890    1.414   .     S
C784   C1042   1.406   1_455 S
C785   C796    1.408   .     A
C785   C789    1.419   .     A
C785   O910    1.386   .     S
C786   O900    1.386   .     S
C786   C797    1.399   .     A
C786   C790    1.404   .     A
C787   C791    1.410   .     A
C787   O901    1.385   .     S
C787   C797    1.402   .     A
C788   C793    1.398   .     A
C788   C796    1.407   .     A
C788   O902    1.385   .     S
C789   C794    1.424   .     A
C789   N896    1.429   .     S
C790   C795    1.414   .     A
C790   N897    1.418   .     S
C791   C795    1.421   .     A
C791   N898    1.425   .     S
C792   O904    1.310   .     A
C792   O903    1.310   .     A
C792   C798    1.480   .     S
C793   C794    1.408   .     A
C793   N886    1.422   .     S
C794   C803    1.497   .     S
C795   C814    1.486   .     S
C796   C1967   1.471   1_554 S
C797   C1966   1.471   .     S
C799   C822    1.402   .     A
C800   H847    1.105   .     S
C800   H836    1.105   .     S
C800   N892    1.448   .     S
C800   H858    1.110   .     S
C801   N893    1.448   .     S
C801   H882    1.105   .     S
C801   H880    1.106   .     S
C801   H883    1.108   .     S
C802   H828    1.106   .     S
C802   H827    1.105   .     S
C802   H826    1.098   .     S
C802   N894    1.445   .     S
C803   O909    1.317   .     A
C803   O906    1.311   .     A
C804   H832    1.097   .     S
C804   H831    1.104   .     S
C804   H830    1.110   .     S
C804   N895    1.444   .     S
C805   O910    1.412   .     S
C805   H834    1.115   .     S
C805   H835    1.109   .     S
C805   H2003   1.108   1_554 S
C806   H838    1.115   .     S
C806   H839    1.109   .     S
C806   O900    1.411   .     S
C806   H837    1.108   .     S
C807   O901    1.410   .     S
C807   H841    1.114   .     S
C807   H842    1.109   .     S
C807   H2010   1.111   .     S
C808   O902    1.409   .     S
C808   H844    1.115   .     S
C808   H845    1.109   .     S
C808   H2013   1.110   1_554 S
C809   H849    1.110   .     S
C809   H848    1.108   .     S
C809   N896    1.444   .     S
C809   H850    1.108   .     S
C810   H854    1.111   .     S
C810   H853    1.102   .     S
C810   H852    1.107   .     S
C810   N897    1.457   .     S
C811   H857    1.111   .     S
C811   N898    1.450   .     S
C811   H859    1.109   .     S
C811   H856    1.111   .     S
C812   H861    1.112   .     S
C812   H863    1.111   .     S
C812   N886    1.447   .     S
C812   H862    1.109   .     S
C813   N887    1.450   .     S
C813   H865    1.111   .     S
C813   H866    1.106   .     S
C813   H867    1.112   .     S
C814   O907    1.315   .     A
C814   O908    1.307   .     A
C815   N888    1.443   .     S
C815   H872    1.107   .     S
C815   H870    1.109   .     S
C815   H871    1.097   .     S
C816   H874    1.093   .     S
C816   N889    1.455   .     S
C816   H1005   1.111   .     S
C816   H1006   1.108   .     S
C817   N890    1.446   .     S
C817   H879    1.109   .     S
C817   H881    1.107   .     S
C817   H1138   1.109   1_455 S
C818   N892    1.415   .     S
C818   N891    1.369   .     A
C819   N885    1.379   .     A
C819   N893    1.427   .     S
C819   C40     1.447   1_565 S
C820   N894    1.413   .     S
C820   N891    1.368   .     A
C821   N885    1.376   .     A
C821   N895    1.425   .     S
C821   C38     1.438   1_565 S
C822   N887    1.431   .     S
C822   C1043   1.406   1_455 S
Cu823  N885    2.043   .     S
Cu823  O906    1.972   .     S
Cu823  O899    1.982   .     S
Cu823  Cu824   2.718   .     S
Cu823  O908    1.952   .     S
Cu823  O904    1.966   .     S
Cu824  O907    1.972   .     S
Cu824  O905    1.966   .     S
Cu824  O909    1.952   .     S
Cu824  O903    1.982   .     S
Cu824  N891    2.043   .     S
H825   N892    1.027   .     S
H829   N895    1.026   .     S
H833   C1975   1.108   .     S
H840   C1977   1.111   1_554 S
H843   C1978   1.110   .     S
H846   N896    1.029   .     S
H851   N897    1.030   .     S
H855   N898    1.029   .     S
H860   N886    1.028   .     S
H864   N887    1.031   .     S
H868   N888    1.032   .     S
H869   N893    1.027   .     S
H873   N889    1.028   .     S
H875   C1076   1.111   1_455 S
H876   C1076   1.108   1_455 S
H877   N890    1.027   .     S
H878   C947    1.109   .     S
H884   N894    1.021   .     S
C911   O1035   1.317   .     A
C911   O1029   1.303   .     A
C911   C929    1.483   .     S
C912   C928    1.407   .     A
C912   N1018   1.427   .     S
C912   C1044   1.406   .     S
C913   C928    1.421   .     A
C913   N1019   1.426   .     S
C913   C1082   1.406   .     S
C914   C929    1.415   .     A
C914   N1020   1.414   .     S
C915   C926    1.408   .     A
C915   C919    1.419   .     A
C915   O1040   1.386   .     S
C916   O1030   1.386   .     S
C916   C927    1.399   .     A
C916   C920    1.404   .     A
C917   C921    1.410   .     A
C917   O1031   1.385   .     S
C917   C927    1.402   .     A
C918   C923    1.398   .     A
C918   C926    1.407   .     A
C918   O1032   1.385   .     S
C919   C924    1.424   .     A
C919   N1026   1.429   .     S
C920   C925    1.414   .     A
C920   N1027   1.418   .     S
C921   C925    1.421   .     A
C921   N1028   1.425   .     S
C922   O1034   1.310   .     A
C922   O1033   1.310   .     A
C922   C928    1.480   .     S
C923   C924    1.408   .     A
C923   N1016   1.422   .     S
C924   C933    1.497   .     S
C925   C944    1.486   .     S
C926   C2097   1.471   1_554 S
C927   C2096   1.471   .     S
C929   C952    1.402   .     A
C930   H977    1.105   .     S
C930   H966    1.105   .     S
C930   N1022   1.448   .     S
C930   H988    1.110   .     S
C931   N1023   1.448   .     S
C931   H1012   1.105   .     S
C931   H1010   1.106   .     S
C931   H1013   1.108   .     S
C932   H958    1.106   .     S
C932   H957    1.105   .     S
C932   H956    1.098   .     S
C932   N1024   1.445   .     S
C933   O1039   1.317   .     A
C933   O1036   1.311   .     A
C934   H962    1.097   .     S
C934   H961    1.104   .     S
C934   H960    1.110   .     S
C934   N1025   1.444   .     S
C935   O1040   1.412   .     S
C935   H964    1.115   .     S
C935   H965    1.109   .     S
C935   H2133   1.108   1_554 S
C936   H968    1.115   .     S
C936   H969    1.109   .     S
C936   O1030   1.411   .     S
C936   H967    1.108   .     S
C937   O1031   1.410   .     S
C937   H971    1.114   .     S
C937   H972    1.109   .     S
C937   H2140   1.111   .     S
C938   O1032   1.409   .     S
C938   H974    1.115   .     S
C938   H975    1.109   .     S
C938   H2143   1.110   1_554 S
C939   H979    1.110   .     S
C939   H978    1.108   .     S
C939   N1026   1.444   .     S
C939   H980    1.108   .     S
C940   H984    1.111   .     S
C940   H983    1.102   .     S
C940   H982    1.107   .     S
C940   N1027   1.457   .     S
C941   H987    1.111   .     S
C941   N1028   1.450   .     S
C941   H989    1.109   .     S
C941   H986    1.111   .     S
C942   H991    1.112   .     S
C942   H993    1.111   .     S
C942   N1016   1.447   .     S
C942   H992    1.109   .     S
C943   N1017   1.450   .     S
C943   H995    1.111   .     S
C943   H996    1.106   .     S
C943   H997    1.112   .     S
C944   O1037   1.315   .     A
C944   O1038   1.307   .     A
C945   N1018   1.443   .     S
C945   H1002   1.107   .     S
C945   H1000   1.109   .     S
C945   H1001   1.097   .     S
C946   H1004   1.093   .     S
C946   N1019   1.455   .     S
C946   H1135   1.111   .     S
C946   H1136   1.108   .     S
C947   N1020   1.446   .     S
C947   H1009   1.109   .     S
C947   H1011   1.107   .     S
C948   N1022   1.415   .     S
C948   N1021   1.369   .     A
C949   N1015   1.379   .     A
C949   N1023   1.427   .     S
C949   C170    1.447   1_565 S
C950   N1024   1.413   .     S
C950   N1021   1.368   .     A
C951   N1015   1.376   .     A
C951   N1025   1.425   .     S
C951   C168    1.438   1_565 S
C952   N1017   1.431   .     S
Cu953  N1015   2.043   .     S
Cu953  O1036   1.972   .     S
Cu953  O1029   1.982   .     S
Cu953  Cu954   2.718   .     S
Cu953  O1038   1.952   .     S
Cu953  O1034   1.966   .     S
Cu954  O1037   1.972   .     S
Cu954  O1035   1.966   .     S
Cu954  O1039   1.952   .     S
Cu954  O1033   1.982   .     S
Cu954  N1021   2.043   .     S
H955   N1022   1.027   .     S
H959   N1025   1.026   .     S
H963   C2105   1.108   .     S
H970   C2107   1.111   1_554 S
H973   C2108   1.110   .     S
H976   N1026   1.029   .     S
H981   N1027   1.030   .     S
H985   N1028   1.029   .     S
H990   N1016   1.028   .     S
H994   N1017   1.031   .     S
H998   N1018   1.032   .     S
H999   N1023   1.027   .     S
H1003  N1019   1.028   .     S
H1007  N1020   1.027   .     S
H1008  C1077   1.109   .     S
H1014  N1024   1.021   .     S
C1041  O1165   1.317   .     A
C1041  O1159   1.303   .     A
C1041  C1059   1.483   .     S
C1042  C1058   1.407   .     A
C1042  N1148   1.427   .     S
C1042  C784    1.406   1_655 S
C1043  C1058   1.421   .     A
C1043  N1149   1.426   .     S
C1043  C822    1.406   1_655 S
C1044  C1059   1.415   .     A
C1044  N1150   1.414   .     S
C1045  C1056   1.408   .     A
C1045  C1049   1.419   .     A
C1045  O1170   1.386   .     S
C1046  O1160   1.386   .     S
C1046  C1057   1.399   .     A
C1046  C1050   1.404   .     A
C1047  C1051   1.410   .     A
C1047  O1161   1.385   .     S
C1047  C1057   1.402   .     A
C1048  C1053   1.398   .     A
C1048  C1056   1.407   .     A
C1048  O1162   1.385   .     S
C1049  C1054   1.424   .     A
C1049  N1156   1.429   .     S
C1050  C1055   1.414   .     A
C1050  N1157   1.418   .     S
C1051  C1055   1.421   .     A
C1051  N1158   1.425   .     S
C1052  O1164   1.310   .     A
C1052  O1163   1.310   .     A
C1052  C1058   1.480   .     S
C1053  C1054   1.408   .     A
C1053  N1146   1.422   .     S
C1054  C1063   1.497   .     S
C1055  C1074   1.486   .     S
C1056  C2227   1.471   1_554 S
C1057  C2226   1.471   .     S
C1059  C1082   1.402   .     A
C1060  H1107   1.105   .     S
C1060  H1096   1.105   .     S
C1060  N1152   1.448   .     S
C1060  H1118   1.110   .     S
C1061  N1153   1.448   .     S
C1061  H1142   1.105   .     S
C1061  H1140   1.106   .     S
C1061  H1143   1.108   .     S
C1062  H1088   1.106   .     S
C1062  H1087   1.105   .     S
C1062  H1086   1.098   .     S
C1062  N1154   1.445   .     S
C1063  O1169   1.317   .     A
C1063  O1166   1.311   .     A
C1064  H1092   1.097   .     S
C1064  H1091   1.104   .     S
C1064  H1090   1.110   .     S
C1064  N1155   1.444   .     S
C1065  O1170   1.412   .     S
C1065  H1094   1.115   .     S
C1065  H1095   1.109   .     S
C1065  H2263   1.108   1_554 S
C1066  H1098   1.115   .     S
C1066  H1099   1.109   .     S
C1066  O1160   1.411   .     S
C1066  H1097   1.108   .     S
C1067  O1161   1.410   .     S
C1067  H1101   1.114   .     S
C1067  H1102   1.109   .     S
C1067  H2270   1.111   .     S
C1068  O1162   1.409   .     S
C1068  H1104   1.115   .     S
C1068  H1105   1.109   .     S
C1068  H2273   1.110   1_554 S
C1069  H1109   1.110   .     S
C1069  H1108   1.108   .     S
C1069  N1156   1.444   .     S
C1069  H1110   1.108   .     S
C1070  H1114   1.111   .     S
C1070  H1113   1.102   .     S
C1070  H1112   1.107   .     S
C1070  N1157   1.457   .     S
C1071  H1117   1.111   .     S
C1071  N1158   1.450   .     S
C1071  H1119   1.109   .     S
C1071  H1116   1.111   .     S
C1072  H1121   1.112   .     S
C1072  H1123   1.111   .     S
C1072  N1146   1.447   .     S
C1072  H1122   1.109   .     S
C1073  N1147   1.450   .     S
C1073  H1125   1.111   .     S
C1073  H1126   1.106   .     S
C1073  H1127   1.112   .     S
C1074  O1167   1.315   .     A
C1074  O1168   1.307   .     A
C1075  N1148   1.443   .     S
C1075  H1132   1.107   .     S
C1075  H1130   1.109   .     S
C1075  H1131   1.097   .     S
C1076  H1134   1.093   .     S
C1076  N1149   1.455   .     S
C1076  H875    1.111   1_655 S
C1076  H876    1.108   1_655 S
C1077  N1150   1.446   .     S
C1077  H1139   1.109   .     S
C1077  H1141   1.107   .     S
C1078  N1152   1.415   .     S
C1078  N1151   1.369   .     A
C1079  N1145   1.379   .     A
C1079  N1153   1.427   .     S
C1079  C300    1.447   1_565 S
C1080  N1154   1.413   .     S
C1080  N1151   1.368   .     A
C1081  N1145   1.376   .     A
C1081  N1155   1.425   .     S
C1081  C298    1.438   1_565 S
C1082  N1147   1.431   .     S
Cu1083 N1145   2.043   .     S
Cu1083 O1166   1.972   .     S
Cu1083 O1159   1.982   .     S
Cu1083 Cu1084  2.718   .     S
Cu1083 O1168   1.952   .     S
Cu1083 O1164   1.966   .     S
Cu1084 O1167   1.972   .     S
Cu1084 O1165   1.966   .     S
Cu1084 O1169   1.952   .     S
Cu1084 O1163   1.982   .     S
Cu1084 N1151   2.043   .     S
H1085  N1152   1.027   .     S
H1089  N1155   1.026   .     S
H1093  C2235   1.108   .     S
H1100  C2237   1.111   1_554 S
H1103  C2238   1.110   .     S
H1106  N1156   1.029   .     S
H1111  N1157   1.030   .     S
H1115  N1158   1.029   .     S
H1120  N1146   1.028   .     S
H1124  N1147   1.031   .     S
H1128  N1148   1.032   .     S
H1129  N1153   1.027   .     S
H1133  N1149   1.028   .     S
H1137  N1150   1.027   .     S
H1138  C817    1.109   1_655 S
H1144  N1154   1.021   .     S
C1171  O1295   1.317   .     A
C1171  O1289   1.303   .     A
C1171  C1189   1.483   .     S
C1172  C1188   1.407   .     A
C1172  N1278   1.427   .     S
C1172  C1304   1.406   .     S
C1173  C1188   1.421   .     A
C1173  N1279   1.426   .     S
C1173  C1342   1.406   .     S
C1174  C1189   1.415   .     A
C1174  N1280   1.414   .     S
C1174  C1432   1.406   1_455 S
C1175  C1186   1.408   .     A
C1175  C1179   1.419   .     A
C1175  O1300   1.386   .     S
C1176  O1290   1.386   .     S
C1176  C1187   1.399   .     A
C1176  C1180   1.404   .     A
C1177  C1181   1.410   .     A
C1177  O1291   1.385   .     S
C1177  C1187   1.402   .     A
C1178  C1183   1.398   .     A
C1178  C1186   1.407   .     A
C1178  O1292   1.385   .     S
C1179  C1184   1.424   .     A
C1179  N1286   1.429   .     S
C1180  C1185   1.414   .     A
C1180  N1287   1.418   .     S
C1181  C1185   1.421   .     A
C1181  N1288   1.425   .     S
C1182  O1294   1.310   .     A
C1182  O1293   1.310   .     A
C1182  C1188   1.480   .     S
C1183  C1184   1.408   .     A
C1183  N1276   1.422   .     S
C1184  C1193   1.497   .     S
C1185  C1204   1.486   .     S
C1187  C16     1.471   1_556 S
C1189  C1212   1.402   .     A
C1190  H1237   1.105   .     S
C1190  H1226   1.105   .     S
C1190  N1282   1.448   .     S
C1190  H1248   1.110   .     S
C1191  N1283   1.448   .     S
C1191  H1272   1.105   .     S
C1191  H1270   1.106   .     S
C1191  H1273   1.108   .     S
C1192  H1218   1.106   .     S
C1192  H1217   1.105   .     S
C1192  H1216   1.098   .     S
C1192  N1284   1.445   .     S
C1193  O1299   1.317   .     A
C1193  O1296   1.311   .     A
C1194  H1222   1.097   .     S
C1194  H1221   1.104   .     S
C1194  H1220   1.110   .     S
C1194  N1285   1.444   .     S
C1195  O1300   1.412   .     S
C1195  H1224   1.115   .     S
C1195  H1225   1.109   .     S
C1196  H1228   1.115   .     S
C1196  H1229   1.109   .     S
C1196  O1290   1.411   .     S
C1196  H1227   1.108   .     S
C1197  O1291   1.410   .     S
C1197  H1231   1.114   .     S
C1197  H1232   1.109   .     S
C1197  H60     1.111   1_556 S
C1198  O1292   1.409   .     S
C1198  H1234   1.115   .     S
C1198  H1235   1.109   .     S
C1199  H1239   1.110   .     S
C1199  H1238   1.108   .     S
C1199  N1286   1.444   .     S
C1199  H1240   1.108   .     S
C1200  H1244   1.111   .     S
C1200  H1243   1.102   .     S
C1200  H1242   1.107   .     S
C1200  N1287   1.457   .     S
C1201  H1247   1.111   .     S
C1201  N1288   1.450   .     S
C1201  H1249   1.109   .     S
C1201  H1246   1.111   .     S
C1202  H1251   1.112   .     S
C1202  H1253   1.111   .     S
C1202  N1276   1.447   .     S
C1202  H1252   1.109   .     S
C1203  N1277   1.450   .     S
C1203  H1255   1.111   .     S
C1203  H1256   1.106   .     S
C1203  H1257   1.112   .     S
C1204  O1297   1.315   .     A
C1204  O1298   1.307   .     A
C1205  N1278   1.443   .     S
C1205  H1262   1.107   .     S
C1205  H1260   1.109   .     S
C1205  H1261   1.097   .     S
C1206  H1264   1.093   .     S
C1206  N1279   1.455   .     S
C1206  H1395   1.111   .     S
C1206  H1396   1.108   .     S
C1207  N1280   1.446   .     S
C1207  H1269   1.109   .     S
C1207  H1271   1.107   .     S
C1207  H1528   1.109   1_455 S
C1208  N1282   1.415   .     S
C1208  N1281   1.369   .     A
C1208  C1991   1.438   1_545 S
C1209  N1275   1.379   .     A
C1209  N1283   1.427   .     S
C1209  C1600   1.447   .     S
C1210  N1284   1.413   .     S
C1210  N1281   1.368   .     A
C1210  C1989   1.447   1_545 S
C1211  N1275   1.376   .     A
C1211  N1285   1.425   .     S
C1211  C1598   1.438   .     S
C1212  N1277   1.431   .     S
C1212  C1433   1.406   1_455 S
Cu1213 N1275   2.043   .     S
Cu1213 O1296   1.972   .     S
Cu1213 O1289   1.982   .     S
Cu1213 Cu1214  2.718   .     S
Cu1213 O1298   1.952   .     S
Cu1213 O1294   1.966   .     S
Cu1214 O1297   1.972   .     S
Cu1214 O1295   1.966   .     S
Cu1214 O1299   1.952   .     S
Cu1214 O1293   1.982   .     S
Cu1214 N1281   2.043   .     S
H1215  N1282   1.027   .     S
H1219  N1285   1.026   .     S
H1223  C25     1.108   1_556 S
H1233  C28     1.110   1_556 S
H1236  N1286   1.029   .     S
H1241  N1287   1.030   .     S
H1245  N1288   1.029   .     S
H1250  N1276   1.028   .     S
H1254  N1277   1.031   .     S
H1258  N1278   1.032   .     S
H1259  N1283   1.027   .     S
H1263  N1279   1.028   .     S
H1265  C1466   1.111   1_455 S
H1266  C1466   1.108   1_455 S
H1267  N1280   1.027   .     S
H1268  C1337   1.109   .     S
H1274  N1284   1.021   .     S
C1301  O1425   1.317   .     A
C1301  O1419   1.303   .     A
C1301  C1319   1.483   .     S
C1302  C1318   1.407   .     A
C1302  N1408   1.427   .     S
C1302  C1434   1.406   .     S
C1303  C1318   1.421   .     A
C1303  N1409   1.426   .     S
C1303  C1472   1.406   .     S
C1304  C1319   1.415   .     A
C1304  N1410   1.414   .     S
C1305  C1316   1.408   .     A
C1305  C1309   1.419   .     A
C1305  O1430   1.386   .     S
C1306  O1420   1.386   .     S
C1306  C1317   1.399   .     A
C1306  C1310   1.404   .     A
C1307  C1311   1.410   .     A
C1307  O1421   1.385   .     S
C1307  C1317   1.402   .     A
C1308  C1313   1.398   .     A
C1308  C1316   1.407   .     A
C1308  O1422   1.385   .     S
C1309  C1314   1.424   .     A
C1309  N1416   1.429   .     S
C1310  C1315   1.414   .     A
C1310  N1417   1.418   .     S
C1311  C1315   1.421   .     A
C1311  N1418   1.425   .     S
C1312  O1424   1.310   .     A
C1312  O1423   1.310   .     A
C1312  C1318   1.480   .     S
C1313  C1314   1.408   .     A
C1313  N1406   1.422   .     S
C1314  C1323   1.497   .     S
C1315  C1334   1.486   .     S
C1317  C146    1.471   1_556 S
C1319  C1342   1.402   .     A
C1320  H1367   1.105   .     S
C1320  H1356   1.105   .     S
C1320  N1412   1.448   .     S
C1320  H1378   1.110   .     S
C1321  N1413   1.448   .     S
C1321  H1402   1.105   .     S
C1321  H1400   1.106   .     S
C1321  H1403   1.108   .     S
C1322  H1348   1.106   .     S
C1322  H1347   1.105   .     S
C1322  H1346   1.098   .     S
C1322  N1414   1.445   .     S
C1323  O1429   1.317   .     A
C1323  O1426   1.311   .     A
C1324  H1352   1.097   .     S
C1324  H1351   1.104   .     S
C1324  H1350   1.110   .     S
C1324  N1415   1.444   .     S
C1325  O1430   1.412   .     S
C1325  H1354   1.115   .     S
C1325  H1355   1.109   .     S
C1326  H1358   1.115   .     S
C1326  H1359   1.109   .     S
C1326  O1420   1.411   .     S
C1326  H1357   1.108   .     S
C1327  O1421   1.410   .     S
C1327  H1361   1.114   .     S
C1327  H1362   1.109   .     S
C1327  H190    1.111   1_556 S
C1328  O1422   1.409   .     S
C1328  H1364   1.115   .     S
C1328  H1365   1.109   .     S
C1329  H1369   1.110   .     S
C1329  H1368   1.108   .     S
C1329  N1416   1.444   .     S
C1329  H1370   1.108   .     S
C1330  H1374   1.111   .     S
C1330  H1373   1.102   .     S
C1330  H1372   1.107   .     S
C1330  N1417   1.457   .     S
C1331  H1377   1.111   .     S
C1331  N1418   1.450   .     S
C1331  H1379   1.109   .     S
C1331  H1376   1.111   .     S
C1332  H1381   1.112   .     S
C1332  H1383   1.111   .     S
C1332  N1406   1.447   .     S
C1332  H1382   1.109   .     S
C1333  N1407   1.450   .     S
C1333  H1385   1.111   .     S
C1333  H1386   1.106   .     S
C1333  H1387   1.112   .     S
C1334  O1427   1.315   .     A
C1334  O1428   1.307   .     A
C1335  N1408   1.443   .     S
C1335  H1392   1.107   .     S
C1335  H1390   1.109   .     S
C1335  H1391   1.097   .     S
C1336  H1394   1.093   .     S
C1336  N1409   1.455   .     S
C1336  H1525   1.111   .     S
C1336  H1526   1.108   .     S
C1337  N1410   1.446   .     S
C1337  H1399   1.109   .     S
C1337  H1401   1.107   .     S
C1338  N1412   1.415   .     S
C1338  N1411   1.369   .     A
C1338  C2121   1.438   1_545 S
C1339  N1405   1.379   .     A
C1339  N1413   1.427   .     S
C1339  C1730   1.447   .     S
C1340  N1414   1.413   .     S
C1340  N1411   1.368   .     A
C1340  C2119   1.447   1_545 S
C1341  N1405   1.376   .     A
C1341  N1415   1.425   .     S
C1341  C1728   1.438   .     S
C1342  N1407   1.431   .     S
Cu1343 N1405   2.043   .     S
Cu1343 O1426   1.972   .     S
Cu1343 O1419   1.982   .     S
Cu1343 Cu1344  2.718   .     S
Cu1343 O1428   1.952   .     S
Cu1343 O1424   1.966   .     S
Cu1344 O1427   1.972   .     S
Cu1344 O1425   1.966   .     S
Cu1344 O1429   1.952   .     S
Cu1344 O1423   1.982   .     S
Cu1344 N1411   2.043   .     S
H1345  N1412   1.027   .     S
H1349  N1415   1.026   .     S
H1353  C155    1.108   1_556 S
H1363  C158    1.110   1_556 S
H1366  N1416   1.029   .     S
H1371  N1417   1.030   .     S
H1375  N1418   1.029   .     S
H1380  N1406   1.028   .     S
H1384  N1407   1.031   .     S
H1388  N1408   1.032   .     S
H1389  N1413   1.027   .     S
H1393  N1409   1.028   .     S
H1397  N1410   1.027   .     S
H1398  C1467   1.109   .     S
H1404  N1414   1.021   .     S
C1431  O1555   1.317   .     A
C1431  O1549   1.303   .     A
C1431  C1449   1.483   .     S
C1432  C1448   1.407   .     A
C1432  N1538   1.427   .     S
C1432  C1174   1.406   1_655 S
C1433  C1448   1.421   .     A
C1433  N1539   1.426   .     S
C1433  C1212   1.406   1_655 S
C1434  C1449   1.415   .     A
C1434  N1540   1.414   .     S
C1435  C1446   1.408   .     A
C1435  C1439   1.419   .     A
C1435  O1560   1.386   .     S
C1436  O1550   1.386   .     S
C1436  C1447   1.399   .     A
C1436  C1440   1.404   .     A
C1437  C1441   1.410   .     A
C1437  O1551   1.385   .     S
C1437  C1447   1.402   .     A
C1438  C1443   1.398   .     A
C1438  C1446   1.407   .     A
C1438  O1552   1.385   .     S
C1439  C1444   1.424   .     A
C1439  N1546   1.429   .     S
C1440  C1445   1.414   .     A
C1440  N1547   1.418   .     S
C1441  C1445   1.421   .     A
C1441  N1548   1.425   .     S
C1442  O1554   1.310   .     A
C1442  O1553   1.310   .     A
C1442  C1448   1.480   .     S
C1443  C1444   1.408   .     A
C1443  N1536   1.422   .     S
C1444  C1453   1.497   .     S
C1445  C1464   1.486   .     S
C1447  C276    1.471   1_556 S
C1449  C1472   1.402   .     A
C1450  H1497   1.105   .     S
C1450  H1486   1.105   .     S
C1450  N1542   1.448   .     S
C1450  H1508   1.110   .     S
C1451  N1543   1.448   .     S
C1451  H1532   1.105   .     S
C1451  H1530   1.106   .     S
C1451  H1533   1.108   .     S
C1452  H1478   1.106   .     S
C1452  H1477   1.105   .     S
C1452  H1476   1.098   .     S
C1452  N1544   1.445   .     S
C1453  O1559   1.317   .     A
C1453  O1556   1.311   .     A
C1454  H1482   1.097   .     S
C1454  H1481   1.104   .     S
C1454  H1480   1.110   .     S
C1454  N1545   1.444   .     S
C1455  O1560   1.412   .     S
C1455  H1484   1.115   .     S
C1455  H1485   1.109   .     S
C1456  H1488   1.115   .     S
C1456  H1489   1.109   .     S
C1456  O1550   1.411   .     S
C1456  H1487   1.108   .     S
C1457  O1551   1.410   .     S
C1457  H1491   1.114   .     S
C1457  H1492   1.109   .     S
C1457  H320    1.111   1_556 S
C1458  O1552   1.409   .     S
C1458  H1494   1.115   .     S
C1458  H1495   1.109   .     S
C1459  H1499   1.110   .     S
C1459  H1498   1.108   .     S
C1459  N1546   1.444   .     S
C1459  H1500   1.108   .     S
C1460  H1504   1.111   .     S
C1460  H1503   1.102   .     S
C1460  H1502   1.107   .     S
C1460  N1547   1.457   .     S
C1461  H1507   1.111   .     S
C1461  N1548   1.450   .     S
C1461  H1509   1.109   .     S
C1461  H1506   1.111   .     S
C1462  H1511   1.112   .     S
C1462  H1513   1.111   .     S
C1462  N1536   1.447   .     S
C1462  H1512   1.109   .     S
C1463  N1537   1.450   .     S
C1463  H1515   1.111   .     S
C1463  H1516   1.106   .     S
C1463  H1517   1.112   .     S
C1464  O1557   1.315   .     A
C1464  O1558   1.307   .     A
C1465  N1538   1.443   .     S
C1465  H1522   1.107   .     S
C1465  H1520   1.109   .     S
C1465  H1521   1.097   .     S
C1466  H1524   1.093   .     S
C1466  N1539   1.455   .     S
C1466  H1265   1.111   1_655 S
C1466  H1266   1.108   1_655 S
C1467  N1540   1.446   .     S
C1467  H1529   1.109   .     S
C1467  H1531   1.107   .     S
C1468  N1542   1.415   .     S
C1468  N1541   1.369   .     A
C1468  C2251   1.438   1_545 S
C1469  N1535   1.379   .     A
C1469  N1543   1.427   .     S
C1469  C1860   1.447   .     S
C1470  N1544   1.413   .     S
C1470  N1541   1.368   .     A
C1470  C2249   1.447   1_545 S
C1471  N1535   1.376   .     A
C1471  N1545   1.425   .     S
C1471  C1858   1.438   .     S
C1472  N1537   1.431   .     S
Cu1473 N1535   2.043   .     S
Cu1473 O1556   1.972   .     S
Cu1473 O1549   1.982   .     S
Cu1473 Cu1474  2.718   .     S
Cu1473 O1558   1.952   .     S
Cu1473 O1554   1.966   .     S
Cu1474 O1557   1.972   .     S
Cu1474 O1555   1.966   .     S
Cu1474 O1559   1.952   .     S
Cu1474 O1553   1.982   .     S
Cu1474 N1541   2.043   .     S
H1475  N1542   1.027   .     S
H1479  N1545   1.026   .     S
H1483  C285    1.108   1_556 S
H1493  C288    1.110   1_556 S
H1496  N1546   1.029   .     S
H1501  N1547   1.030   .     S
H1505  N1548   1.029   .     S
H1510  N1536   1.028   .     S
H1514  N1537   1.031   .     S
H1518  N1538   1.032   .     S
H1519  N1543   1.027   .     S
H1523  N1539   1.028   .     S
H1527  N1540   1.027   .     S
H1528  C1207   1.109   1_655 S
H1534  N1544   1.021   .     S
C1561  O1685   1.317   .     A
C1561  O1679   1.303   .     A
C1561  C1579   1.483   .     S
C1562  C1578   1.407   .     A
C1562  N1668   1.427   .     S
C1562  C1694   1.406   .     S
C1563  C1578   1.421   .     A
C1563  N1669   1.426   .     S
C1563  C1732   1.406   .     S
C1564  C1579   1.415   .     A
C1564  N1670   1.414   .     S
C1564  C1822   1.406   1_455 S
C1565  C1576   1.408   .     A
C1565  C1569   1.419   .     A
C1565  O1690   1.386   .     S
C1566  O1680   1.386   .     S
C1566  C1577   1.399   .     A
C1566  C1570   1.404   .     A
C1567  C1571   1.410   .     A
C1567  O1681   1.385   .     S
C1567  C1577   1.402   .     A
C1568  C1573   1.398   .     A
C1568  C1576   1.407   .     A
C1568  O1682   1.385   .     S
C1569  C1574   1.424   .     A
C1569  N1676   1.429   .     S
C1570  C1575   1.414   .     A
C1570  N1677   1.418   .     S
C1571  C1575   1.421   .     A
C1571  N1678   1.425   .     S
C1572  O1684   1.310   .     A
C1572  O1683   1.310   .     A
C1572  C1578   1.480   .     S
C1573  C1574   1.408   .     A
C1573  N1666   1.422   .     S
C1574  C1583   1.497   .     S
C1575  C1594   1.486   .     S
C1577  C406    1.471   1_556 S
C1579  C1602   1.402   .     A
C1580  H1627   1.105   .     S
C1580  H1616   1.105   .     S
C1580  N1672   1.448   .     S
C1580  H1638   1.110   .     S
C1581  N1673   1.448   .     S
C1581  H1662   1.105   .     S
C1581  H1660   1.106   .     S
C1581  H1663   1.108   .     S
C1582  H1608   1.106   .     S
C1582  H1607   1.105   .     S
C1582  H1606   1.098   .     S
C1582  N1674   1.445   .     S
C1583  O1689   1.317   .     A
C1583  O1686   1.311   .     A
C1584  H1612   1.097   .     S
C1584  H1611   1.104   .     S
C1584  H1610   1.110   .     S
C1584  N1675   1.444   .     S
C1585  O1690   1.412   .     S
C1585  H1614   1.115   .     S
C1585  H1615   1.109   .     S
C1586  H1618   1.115   .     S
C1586  H1619   1.109   .     S
C1586  O1680   1.411   .     S
C1586  H1617   1.108   .     S
C1587  O1681   1.410   .     S
C1587  H1621   1.114   .     S
C1587  H1622   1.109   .     S
C1587  H450    1.111   1_556 S
C1588  O1682   1.409   .     S
C1588  H1624   1.115   .     S
C1588  H1625   1.109   .     S
C1589  H1629   1.110   .     S
C1589  H1628   1.108   .     S
C1589  N1676   1.444   .     S
C1589  H1630   1.108   .     S
C1590  H1634   1.111   .     S
C1590  H1633   1.102   .     S
C1590  H1632   1.107   .     S
C1590  N1677   1.457   .     S
C1591  H1637   1.111   .     S
C1591  N1678   1.450   .     S
C1591  H1639   1.109   .     S
C1591  H1636   1.111   .     S
C1592  H1641   1.112   .     S
C1592  H1643   1.111   .     S
C1592  N1666   1.447   .     S
C1592  H1642   1.109   .     S
C1593  N1667   1.450   .     S
C1593  H1645   1.111   .     S
C1593  H1646   1.106   .     S
C1593  H1647   1.112   .     S
C1594  O1687   1.315   .     A
C1594  O1688   1.307   .     A
C1595  N1668   1.443   .     S
C1595  H1652   1.107   .     S
C1595  H1650   1.109   .     S
C1595  H1651   1.097   .     S
C1596  H1654   1.093   .     S
C1596  N1669   1.455   .     S
C1596  H1785   1.111   .     S
C1596  H1786   1.108   .     S
C1597  N1670   1.446   .     S
C1597  H1659   1.109   .     S
C1597  H1661   1.107   .     S
C1597  H1918   1.109   1_455 S
C1598  N1672   1.415   .     S
C1598  N1671   1.369   .     A
C1599  N1665   1.379   .     A
C1599  N1673   1.427   .     S
C1599  C1990   1.447   .     S
C1600  N1674   1.413   .     S
C1600  N1671   1.368   .     A
C1601  N1665   1.376   .     A
C1601  N1675   1.425   .     S
C1601  C1988   1.438   .     S
C1602  N1667   1.431   .     S
C1602  C1823   1.406   1_455 S
Cu1603 N1665   2.043   .     S
Cu1603 O1686   1.972   .     S
Cu1603 O1679   1.982   .     S
Cu1603 Cu1604  2.718   .     S
Cu1603 O1688   1.952   .     S
Cu1603 O1684   1.966   .     S
Cu1604 O1687   1.972   .     S
Cu1604 O1685   1.966   .     S
Cu1604 O1689   1.952   .     S
Cu1604 O1683   1.982   .     S
Cu1604 N1671   2.043   .     S
H1605  N1672   1.027   .     S
H1609  N1675   1.026   .     S
H1613  C415    1.108   1_556 S
H1623  C418    1.110   1_556 S
H1626  N1676   1.029   .     S
H1631  N1677   1.030   .     S
H1635  N1678   1.029   .     S
H1640  N1666   1.028   .     S
H1644  N1667   1.031   .     S
H1648  N1668   1.032   .     S
H1649  N1673   1.027   .     S
H1653  N1669   1.028   .     S
H1655  C1856   1.111   1_455 S
H1656  C1856   1.108   1_455 S
H1657  N1670   1.027   .     S
H1658  C1727   1.109   .     S
H1664  N1674   1.021   .     S
C1691  O1815   1.317   .     A
C1691  O1809   1.303   .     A
C1691  C1709   1.483   .     S
C1692  C1708   1.407   .     A
C1692  N1798   1.427   .     S
C1692  C1824   1.406   .     S
C1693  C1708   1.421   .     A
C1693  N1799   1.426   .     S
C1693  C1862   1.406   .     S
C1694  C1709   1.415   .     A
C1694  N1800   1.414   .     S
C1695  C1706   1.408   .     A
C1695  C1699   1.419   .     A
C1695  O1820   1.386   .     S
C1696  O1810   1.386   .     S
C1696  C1707   1.399   .     A
C1696  C1700   1.404   .     A
C1697  C1701   1.410   .     A
C1697  O1811   1.385   .     S
C1697  C1707   1.402   .     A
C1698  C1703   1.398   .     A
C1698  C1706   1.407   .     A
C1698  O1812   1.385   .     S
C1699  C1704   1.424   .     A
C1699  N1806   1.429   .     S
C1700  C1705   1.414   .     A
C1700  N1807   1.418   .     S
C1701  C1705   1.421   .     A
C1701  N1808   1.425   .     S
C1702  O1814   1.310   .     A
C1702  O1813   1.310   .     A
C1702  C1708   1.480   .     S
C1703  C1704   1.408   .     A
C1703  N1796   1.422   .     S
C1704  C1713   1.497   .     S
C1705  C1724   1.486   .     S
C1707  C536    1.471   1_556 S
C1709  C1732   1.402   .     A
C1710  H1757   1.105   .     S
C1710  H1746   1.105   .     S
C1710  N1802   1.448   .     S
C1710  H1768   1.110   .     S
C1711  N1803   1.448   .     S
C1711  H1792   1.105   .     S
C1711  H1790   1.106   .     S
C1711  H1793   1.108   .     S
C1712  H1738   1.106   .     S
C1712  H1737   1.105   .     S
C1712  H1736   1.098   .     S
C1712  N1804   1.445   .     S
C1713  O1819   1.317   .     A
C1713  O1816   1.311   .     A
C1714  H1742   1.097   .     S
C1714  H1741   1.104   .     S
C1714  H1740   1.110   .     S
C1714  N1805   1.444   .     S
C1715  O1820   1.412   .     S
C1715  H1744   1.115   .     S
C1715  H1745   1.109   .     S
C1716  H1748   1.115   .     S
C1716  H1749   1.109   .     S
C1716  O1810   1.411   .     S
C1716  H1747   1.108   .     S
C1717  O1811   1.410   .     S
C1717  H1751   1.114   .     S
C1717  H1752   1.109   .     S
C1717  H580    1.111   1_556 S
C1718  O1812   1.409   .     S
C1718  H1754   1.115   .     S
C1718  H1755   1.109   .     S
C1719  H1759   1.110   .     S
C1719  H1758   1.108   .     S
C1719  N1806   1.444   .     S
C1719  H1760   1.108   .     S
C1720  H1764   1.111   .     S
C1720  H1763   1.102   .     S
C1720  H1762   1.107   .     S
C1720  N1807   1.457   .     S
C1721  H1767   1.111   .     S
C1721  N1808   1.450   .     S
C1721  H1769   1.109   .     S
C1721  H1766   1.111   .     S
C1722  H1771   1.112   .     S
C1722  H1773   1.111   .     S
C1722  N1796   1.447   .     S
C1722  H1772   1.109   .     S
C1723  N1797   1.450   .     S
C1723  H1775   1.111   .     S
C1723  H1776   1.106   .     S
C1723  H1777   1.112   .     S
C1724  O1817   1.315   .     A
C1724  O1818   1.307   .     A
C1725  N1798   1.443   .     S
C1725  H1782   1.107   .     S
C1725  H1780   1.109   .     S
C1725  H1781   1.097   .     S
C1726  H1784   1.093   .     S
C1726  N1799   1.455   .     S
C1726  H1915   1.111   .     S
C1726  H1916   1.108   .     S
C1727  N1800   1.446   .     S
C1727  H1789   1.109   .     S
C1727  H1791   1.107   .     S
C1728  N1802   1.415   .     S
C1728  N1801   1.369   .     A
C1729  N1795   1.379   .     A
C1729  N1803   1.427   .     S
C1729  C2120   1.447   .     S
C1730  N1804   1.413   .     S
C1730  N1801   1.368   .     A
C1731  N1795   1.376   .     A
C1731  N1805   1.425   .     S
C1731  C2118   1.438   .     S
C1732  N1797   1.431   .     S
Cu1733 N1795   2.043   .     S
Cu1733 O1816   1.972   .     S
Cu1733 O1809   1.982   .     S
Cu1733 Cu1734  2.718   .     S
Cu1733 O1818   1.952   .     S
Cu1733 O1814   1.966   .     S
Cu1734 O1817   1.972   .     S
Cu1734 O1815   1.966   .     S
Cu1734 O1819   1.952   .     S
Cu1734 O1813   1.982   .     S
Cu1734 N1801   2.043   .     S
H1735  N1802   1.027   .     S
H1739  N1805   1.026   .     S
H1743  C545    1.108   1_556 S
H1753  C548    1.110   1_556 S
H1756  N1806   1.029   .     S
H1761  N1807   1.030   .     S
H1765  N1808   1.029   .     S
H1770  N1796   1.028   .     S
H1774  N1797   1.031   .     S
H1778  N1798   1.032   .     S
H1779  N1803   1.027   .     S
H1783  N1799   1.028   .     S
H1787  N1800   1.027   .     S
H1788  C1857   1.109   .     S
H1794  N1804   1.021   .     S
C1821  O1945   1.317   .     A
C1821  O1939   1.303   .     A
C1821  C1839   1.483   .     S
C1822  C1838   1.407   .     A
C1822  N1928   1.427   .     S
C1822  C1564   1.406   1_655 S
C1823  C1838   1.421   .     A
C1823  N1929   1.426   .     S
C1823  C1602   1.406   1_655 S
C1824  C1839   1.415   .     A
C1824  N1930   1.414   .     S
C1825  C1836   1.408   .     A
C1825  C1829   1.419   .     A
C1825  O1950   1.386   .     S
C1826  O1940   1.386   .     S
C1826  C1837   1.399   .     A
C1826  C1830   1.404   .     A
C1827  C1831   1.410   .     A
C1827  O1941   1.385   .     S
C1827  C1837   1.402   .     A
C1828  C1833   1.398   .     A
C1828  C1836   1.407   .     A
C1828  O1942   1.385   .     S
C1829  C1834   1.424   .     A
C1829  N1936   1.429   .     S
C1830  C1835   1.414   .     A
C1830  N1937   1.418   .     S
C1831  C1835   1.421   .     A
C1831  N1938   1.425   .     S
C1832  O1944   1.310   .     A
C1832  O1943   1.310   .     A
C1832  C1838   1.480   .     S
C1833  C1834   1.408   .     A
C1833  N1926   1.422   .     S
C1834  C1843   1.497   .     S
C1835  C1854   1.486   .     S
C1837  C666    1.471   1_556 S
C1839  C1862   1.402   .     A
C1840  H1887   1.105   .     S
C1840  H1876   1.105   .     S
C1840  N1932   1.448   .     S
C1840  H1898   1.110   .     S
C1841  N1933   1.448   .     S
C1841  H1922   1.105   .     S
C1841  H1920   1.106   .     S
C1841  H1923   1.108   .     S
C1842  H1868   1.106   .     S
C1842  H1867   1.105   .     S
C1842  H1866   1.098   .     S
C1842  N1934   1.445   .     S
C1843  O1949   1.317   .     A
C1843  O1946   1.311   .     A
C1844  H1872   1.097   .     S
C1844  H1871   1.104   .     S
C1844  H1870   1.110   .     S
C1844  N1935   1.444   .     S
C1845  O1950   1.412   .     S
C1845  H1874   1.115   .     S
C1845  H1875   1.109   .     S
C1846  H1878   1.115   .     S
C1846  H1879   1.109   .     S
C1846  O1940   1.411   .     S
C1846  H1877   1.108   .     S
C1847  O1941   1.410   .     S
C1847  H1881   1.114   .     S
C1847  H1882   1.109   .     S
C1847  H710    1.111   1_556 S
C1848  O1942   1.409   .     S
C1848  H1884   1.115   .     S
C1848  H1885   1.109   .     S
C1849  H1889   1.110   .     S
C1849  H1888   1.108   .     S
C1849  N1936   1.444   .     S
C1849  H1890   1.108   .     S
C1850  H1894   1.111   .     S
C1850  H1893   1.102   .     S
C1850  H1892   1.107   .     S
C1850  N1937   1.457   .     S
C1851  H1897   1.111   .     S
C1851  N1938   1.450   .     S
C1851  H1899   1.109   .     S
C1851  H1896   1.111   .     S
C1852  H1901   1.112   .     S
C1852  H1903   1.111   .     S
C1852  N1926   1.447   .     S
C1852  H1902   1.109   .     S
C1853  N1927   1.450   .     S
C1853  H1905   1.111   .     S
C1853  H1906   1.106   .     S
C1853  H1907   1.112   .     S
C1854  O1947   1.315   .     A
C1854  O1948   1.307   .     A
C1855  N1928   1.443   .     S
C1855  H1912   1.107   .     S
C1855  H1910   1.109   .     S
C1855  H1911   1.097   .     S
C1856  H1914   1.093   .     S
C1856  N1929   1.455   .     S
C1856  H1655   1.111   1_655 S
C1856  H1656   1.108   1_655 S
C1857  N1930   1.446   .     S
C1857  H1919   1.109   .     S
C1857  H1921   1.107   .     S
C1858  N1932   1.415   .     S
C1858  N1931   1.369   .     A
C1859  N1925   1.379   .     A
C1859  N1933   1.427   .     S
C1859  C2250   1.447   .     S
C1860  N1934   1.413   .     S
C1860  N1931   1.368   .     A
C1861  N1925   1.376   .     A
C1861  N1935   1.425   .     S
C1861  C2248   1.438   .     S
C1862  N1927   1.431   .     S
Cu1863 N1925   2.043   .     S
Cu1863 O1946   1.972   .     S
Cu1863 O1939   1.982   .     S
Cu1863 Cu1864  2.718   .     S
Cu1863 O1948   1.952   .     S
Cu1863 O1944   1.966   .     S
Cu1864 O1947   1.972   .     S
Cu1864 O1945   1.966   .     S
Cu1864 O1949   1.952   .     S
Cu1864 O1943   1.982   .     S
Cu1864 N1931   2.043   .     S
H1865  N1932   1.027   .     S
H1869  N1935   1.026   .     S
H1873  C675    1.108   1_556 S
H1883  C678    1.110   1_556 S
H1886  N1936   1.029   .     S
H1891  N1937   1.030   .     S
H1895  N1938   1.029   .     S
H1900  N1926   1.028   .     S
H1904  N1927   1.031   .     S
H1908  N1928   1.032   .     S
H1909  N1933   1.027   .     S
H1913  N1929   1.028   .     S
H1917  N1930   1.027   .     S
H1918  C1597   1.109   1_655 S
H1924  N1934   1.021   .     S
C1951  O2075   1.317   .     A
C1951  O2069   1.303   .     A
C1951  C1969   1.483   .     S
C1952  C1968   1.407   .     A
C1952  N2058   1.427   .     S
C1952  C2084   1.406   .     S
C1953  C1968   1.421   .     A
C1953  N2059   1.426   .     S
C1953  C2122   1.406   .     S
C1954  C1969   1.415   .     A
C1954  N2060   1.414   .     S
C1954  C2212   1.406   1_455 S
C1955  C1966   1.408   .     A
C1955  C1959   1.419   .     A
C1955  O2080   1.386   .     S
C1956  O2070   1.386   .     S
C1956  C1967   1.399   .     A
C1956  C1960   1.404   .     A
C1957  C1961   1.410   .     A
C1957  O2071   1.385   .     S
C1957  C1967   1.402   .     A
C1958  C1963   1.398   .     A
C1958  C1966   1.407   .     A
C1958  O2072   1.385   .     S
C1959  C1964   1.424   .     A
C1959  N2066   1.429   .     S
C1960  C1965   1.414   .     A
C1960  N2067   1.418   .     S
C1961  C1965   1.421   .     A
C1961  N2068   1.425   .     S
C1962  O2074   1.310   .     A
C1962  O2073   1.310   .     A
C1962  C1968   1.480   .     S
C1963  C1964   1.408   .     A
C1963  N2056   1.422   .     S
C1964  C1973   1.497   .     S
C1965  C1984   1.486   .     S
C1967  C796    1.471   1_556 S
C1969  C1992   1.402   .     A
C1970  H2017   1.105   .     S
C1970  H2006   1.105   .     S
C1970  N2062   1.448   .     S
C1970  H2028   1.110   .     S
C1971  N2063   1.448   .     S
C1971  H2052   1.105   .     S
C1971  H2050   1.106   .     S
C1971  H2053   1.108   .     S
C1972  H1998   1.106   .     S
C1972  H1997   1.105   .     S
C1972  H1996   1.098   .     S
C1972  N2064   1.445   .     S
C1973  O2079   1.317   .     A
C1973  O2076   1.311   .     A
C1974  H2002   1.097   .     S
C1974  H2001   1.104   .     S
C1974  H2000   1.110   .     S
C1974  N2065   1.444   .     S
C1975  O2080   1.412   .     S
C1975  H2004   1.115   .     S
C1975  H2005   1.109   .     S
C1976  H2008   1.115   .     S
C1976  H2009   1.109   .     S
C1976  O2070   1.411   .     S
C1976  H2007   1.108   .     S
C1977  O2071   1.410   .     S
C1977  H2011   1.114   .     S
C1977  H2012   1.109   .     S
C1977  H840    1.111   1_556 S
C1978  O2072   1.409   .     S
C1978  H2014   1.115   .     S
C1978  H2015   1.109   .     S
C1979  H2019   1.110   .     S
C1979  H2018   1.108   .     S
C1979  N2066   1.444   .     S
C1979  H2020   1.108   .     S
C1980  H2024   1.111   .     S
C1980  H2023   1.102   .     S
C1980  H2022   1.107   .     S
C1980  N2067   1.457   .     S
C1981  H2027   1.111   .     S
C1981  N2068   1.450   .     S
C1981  H2029   1.109   .     S
C1981  H2026   1.111   .     S
C1982  H2031   1.112   .     S
C1982  H2033   1.111   .     S
C1982  N2056   1.447   .     S
C1982  H2032   1.109   .     S
C1983  N2057   1.450   .     S
C1983  H2035   1.111   .     S
C1983  H2036   1.106   .     S
C1983  H2037   1.112   .     S
C1984  O2077   1.315   .     A
C1984  O2078   1.307   .     A
C1985  N2058   1.443   .     S
C1985  H2042   1.107   .     S
C1985  H2040   1.109   .     S
C1985  H2041   1.097   .     S
C1986  H2044   1.093   .     S
C1986  N2059   1.455   .     S
C1986  H2175   1.111   .     S
C1986  H2176   1.108   .     S
C1987  N2060   1.446   .     S
C1987  H2049   1.109   .     S
C1987  H2051   1.107   .     S
C1987  H2308   1.109   1_455 S
C1988  N2062   1.415   .     S
C1988  N2061   1.369   .     A
C1989  N2055   1.379   .     A
C1989  N2063   1.427   .     S
C1989  C1210   1.447   1_565 S
C1990  N2064   1.413   .     S
C1990  N2061   1.368   .     A
C1991  N2055   1.376   .     A
C1991  N2065   1.425   .     S
C1991  C1208   1.438   1_565 S
C1992  N2057   1.431   .     S
C1992  C2213   1.406   1_455 S
Cu1993 N2055   2.043   .     S
Cu1993 O2076   1.972   .     S
Cu1993 O2069   1.982   .     S
Cu1993 Cu1994  2.718   .     S
Cu1993 O2078   1.952   .     S
Cu1993 O2074   1.966   .     S
Cu1994 O2077   1.972   .     S
Cu1994 O2075   1.966   .     S
Cu1994 O2079   1.952   .     S
Cu1994 O2073   1.982   .     S
Cu1994 N2061   2.043   .     S
H1995  N2062   1.027   .     S
H1999  N2065   1.026   .     S
H2003  C805    1.108   1_556 S
H2013  C808    1.110   1_556 S
H2016  N2066   1.029   .     S
H2021  N2067   1.030   .     S
H2025  N2068   1.029   .     S
H2030  N2056   1.028   .     S
H2034  N2057   1.031   .     S
H2038  N2058   1.032   .     S
H2039  N2063   1.027   .     S
H2043  N2059   1.028   .     S
H2045  C2246   1.111   1_455 S
H2046  C2246   1.108   1_455 S
H2047  N2060   1.027   .     S
H2048  C2117   1.109   .     S
H2054  N2064   1.021   .     S
C2081  O2205   1.317   .     A
C2081  O2199   1.303   .     A
C2081  C2099   1.483   .     S
C2082  C2098   1.407   .     A
C2082  N2188   1.427   .     S
C2082  C2214   1.406   .     S
C2083  C2098   1.421   .     A
C2083  N2189   1.426   .     S
C2083  C2252   1.406   .     S
C2084  C2099   1.415   .     A
C2084  N2190   1.414   .     S
C2085  C2096   1.408   .     A
C2085  C2089   1.419   .     A
C2085  O2210   1.386   .     S
C2086  O2200   1.386   .     S
C2086  C2097   1.399   .     A
C2086  C2090   1.404   .     A
C2087  C2091   1.410   .     A
C2087  O2201   1.385   .     S
C2087  C2097   1.402   .     A
C2088  C2093   1.398   .     A
C2088  C2096   1.407   .     A
C2088  O2202   1.385   .     S
C2089  C2094   1.424   .     A
C2089  N2196   1.429   .     S
C2090  C2095   1.414   .     A
C2090  N2197   1.418   .     S
C2091  C2095   1.421   .     A
C2091  N2198   1.425   .     S
C2092  O2204   1.310   .     A
C2092  O2203   1.310   .     A
C2092  C2098   1.480   .     S
C2093  C2094   1.408   .     A
C2093  N2186   1.422   .     S
C2094  C2103   1.497   .     S
C2095  C2114   1.486   .     S
C2097  C926    1.471   1_556 S
C2099  C2122   1.402   .     A
C2100  H2147   1.105   .     S
C2100  H2136   1.105   .     S
C2100  N2192   1.448   .     S
C2100  H2158   1.110   .     S
C2101  N2193   1.448   .     S
C2101  H2182   1.105   .     S
C2101  H2180   1.106   .     S
C2101  H2183   1.108   .     S
C2102  H2128   1.106   .     S
C2102  H2127   1.105   .     S
C2102  H2126   1.098   .     S
C2102  N2194   1.445   .     S
C2103  O2209   1.317   .     A
C2103  O2206   1.311   .     A
C2104  H2132   1.097   .     S
C2104  H2131   1.104   .     S
C2104  H2130   1.110   .     S
C2104  N2195   1.444   .     S
C2105  O2210   1.412   .     S
C2105  H2134   1.115   .     S
C2105  H2135   1.109   .     S
C2106  H2138   1.115   .     S
C2106  H2139   1.109   .     S
C2106  O2200   1.411   .     S
C2106  H2137   1.108   .     S
C2107  O2201   1.410   .     S
C2107  H2141   1.114   .     S
C2107  H2142   1.109   .     S
C2107  H970    1.111   1_556 S
C2108  O2202   1.409   .     S
C2108  H2144   1.115   .     S
C2108  H2145   1.109   .     S
C2109  H2149   1.110   .     S
C2109  H2148   1.108   .     S
C2109  N2196   1.444   .     S
C2109  H2150   1.108   .     S
C2110  H2154   1.111   .     S
C2110  H2153   1.102   .     S
C2110  H2152   1.107   .     S
C2110  N2197   1.457   .     S
C2111  H2157   1.111   .     S
C2111  N2198   1.450   .     S
C2111  H2159   1.109   .     S
C2111  H2156   1.111   .     S
C2112  H2161   1.112   .     S
C2112  H2163   1.111   .     S
C2112  N2186   1.447   .     S
C2112  H2162   1.109   .     S
C2113  N2187   1.450   .     S
C2113  H2165   1.111   .     S
C2113  H2166   1.106   .     S
C2113  H2167   1.112   .     S
C2114  O2207   1.315   .     A
C2114  O2208   1.307   .     A
C2115  N2188   1.443   .     S
C2115  H2172   1.107   .     S
C2115  H2170   1.109   .     S
C2115  H2171   1.097   .     S
C2116  H2174   1.093   .     S
C2116  N2189   1.455   .     S
C2116  H2305   1.111   .     S
C2116  H2306   1.108   .     S
C2117  N2190   1.446   .     S
C2117  H2179   1.109   .     S
C2117  H2181   1.107   .     S
C2118  N2192   1.415   .     S
C2118  N2191   1.369   .     A
C2119  N2185   1.379   .     A
C2119  N2193   1.427   .     S
C2119  C1340   1.447   1_565 S
C2120  N2194   1.413   .     S
C2120  N2191   1.368   .     A
C2121  N2185   1.376   .     A
C2121  N2195   1.425   .     S
C2121  C1338   1.438   1_565 S
C2122  N2187   1.431   .     S
Cu2123 N2185   2.043   .     S
Cu2123 O2206   1.972   .     S
Cu2123 O2199   1.982   .     S
Cu2123 Cu2124  2.718   .     S
Cu2123 O2208   1.952   .     S
Cu2123 O2204   1.966   .     S
Cu2124 O2207   1.972   .     S
Cu2124 O2205   1.966   .     S
Cu2124 O2209   1.952   .     S
Cu2124 O2203   1.982   .     S
Cu2124 N2191   2.043   .     S
H2125  N2192   1.027   .     S
H2129  N2195   1.026   .     S
H2133  C935    1.108   1_556 S
H2143  C938    1.110   1_556 S
H2146  N2196   1.029   .     S
H2151  N2197   1.030   .     S
H2155  N2198   1.029   .     S
H2160  N2186   1.028   .     S
H2164  N2187   1.031   .     S
H2168  N2188   1.032   .     S
H2169  N2193   1.027   .     S
H2173  N2189   1.028   .     S
H2177  N2190   1.027   .     S
H2178  C2247   1.109   .     S
H2184  N2194   1.021   .     S
C2211  O2335   1.317   .     A
C2211  O2329   1.303   .     A
C2211  C2229   1.483   .     S
C2212  C2228   1.407   .     A
C2212  N2318   1.427   .     S
C2212  C1954   1.406   1_655 S
C2213  C2228   1.421   .     A
C2213  N2319   1.426   .     S
C2213  C1992   1.406   1_655 S
C2214  C2229   1.415   .     A
C2214  N2320   1.414   .     S
C2215  C2226   1.408   .     A
C2215  C2219   1.419   .     A
C2215  O2340   1.386   .     S
C2216  O2330   1.386   .     S
C2216  C2227   1.399   .     A
C2216  C2220   1.404   .     A
C2217  C2221   1.410   .     A
C2217  O2331   1.385   .     S
C2217  C2227   1.402   .     A
C2218  C2223   1.398   .     A
C2218  C2226   1.407   .     A
C2218  O2332   1.385   .     S
C2219  C2224   1.424   .     A
C2219  N2326   1.429   .     S
C2220  C2225   1.414   .     A
C2220  N2327   1.418   .     S
C2221  C2225   1.421   .     A
C2221  N2328   1.425   .     S
C2222  O2334   1.310   .     A
C2222  O2333   1.310   .     A
C2222  C2228   1.480   .     S
C2223  C2224   1.408   .     A
C2223  N2316   1.422   .     S
C2224  C2233   1.497   .     S
C2225  C2244   1.486   .     S
C2227  C1056   1.471   1_556 S
C2229  C2252   1.402   .     A
C2230  H2277   1.105   .     S
C2230  H2266   1.105   .     S
C2230  N2322   1.448   .     S
C2230  H2288   1.110   .     S
C2231  N2323   1.448   .     S
C2231  H2312   1.105   .     S
C2231  H2310   1.106   .     S
C2231  H2313   1.108   .     S
C2232  H2258   1.106   .     S
C2232  H2257   1.105   .     S
C2232  H2256   1.098   .     S
C2232  N2324   1.445   .     S
C2233  O2339   1.317   .     A
C2233  O2336   1.311   .     A
C2234  H2262   1.097   .     S
C2234  H2261   1.104   .     S
C2234  H2260   1.110   .     S
C2234  N2325   1.444   .     S
C2235  O2340   1.412   .     S
C2235  H2264   1.115   .     S
C2235  H2265   1.109   .     S
C2236  H2268   1.115   .     S
C2236  H2269   1.109   .     S
C2236  O2330   1.411   .     S
C2236  H2267   1.108   .     S
C2237  O2331   1.410   .     S
C2237  H2271   1.114   .     S
C2237  H2272   1.109   .     S
C2237  H1100   1.111   1_556 S
C2238  O2332   1.409   .     S
C2238  H2274   1.115   .     S
C2238  H2275   1.109   .     S
C2239  H2279   1.110   .     S
C2239  H2278   1.108   .     S
C2239  N2326   1.444   .     S
C2239  H2280   1.108   .     S
C2240  H2284   1.111   .     S
C2240  H2283   1.102   .     S
C2240  H2282   1.107   .     S
C2240  N2327   1.457   .     S
C2241  H2287   1.111   .     S
C2241  N2328   1.450   .     S
C2241  H2289   1.109   .     S
C2241  H2286   1.111   .     S
C2242  H2291   1.112   .     S
C2242  H2293   1.111   .     S
C2242  N2316   1.447   .     S
C2242  H2292   1.109   .     S
C2243  N2317   1.450   .     S
C2243  H2295   1.111   .     S
C2243  H2296   1.106   .     S
C2243  H2297   1.112   .     S
C2244  O2337   1.315   .     A
C2244  O2338   1.307   .     A
C2245  N2318   1.443   .     S
C2245  H2302   1.107   .     S
C2245  H2300   1.109   .     S
C2245  H2301   1.097   .     S
C2246  H2304   1.093   .     S
C2246  N2319   1.455   .     S
C2246  H2045   1.111   1_655 S
C2246  H2046   1.108   1_655 S
C2247  N2320   1.446   .     S
C2247  H2309   1.109   .     S
C2247  H2311   1.107   .     S
C2248  N2322   1.415   .     S
C2248  N2321   1.369   .     A
C2249  N2315   1.379   .     A
C2249  N2323   1.427   .     S
C2249  C1470   1.447   1_565 S
C2250  N2324   1.413   .     S
C2250  N2321   1.368   .     A
C2251  N2315   1.376   .     A
C2251  N2325   1.425   .     S
C2251  C1468   1.438   1_565 S
C2252  N2317   1.431   .     S
Cu2253 N2315   2.043   .     S
Cu2253 O2336   1.972   .     S
Cu2253 O2329   1.982   .     S
Cu2253 Cu2254  2.718   .     S
Cu2253 O2338   1.952   .     S
Cu2253 O2334   1.966   .     S
Cu2254 O2337   1.972   .     S
Cu2254 O2335   1.966   .     S
Cu2254 O2339   1.952   .     S
Cu2254 O2333   1.982   .     S
Cu2254 N2321   2.043   .     S
H2255  N2322   1.027   .     S
H2259  N2325   1.026   .     S
H2263  C1065   1.108   1_556 S
H2273  C1068   1.110   1_556 S
H2276  N2326   1.029   .     S
H2281  N2327   1.030   .     S
H2285  N2328   1.029   .     S
H2290  N2316   1.028   .     S
H2294  N2317   1.031   .     S
H2298  N2318   1.032   .     S
H2299  N2323   1.027   .     S
H2303  N2319   1.028   .     S
H2307  N2320   1.027   .     S
H2308  C1987   1.109   1_655 S
H2314  N2324   1.021   .     S
