data_str_m1_o10_o18_pcu_sym.105
_audit_creation_date              2020-01-03
_audit_creation_method            'Materials Studio'
_symmetry_space_group_name_H-M    'P1'
_symmetry_Int_Tables_number       1
_symmetry_cell_setting            triclinic
loop_
_symmetry_equiv_pos_as_xyz
  x,y,z
_cell_length_a                    32.6287
_cell_length_b                    32.5327
_cell_length_c                    35.5058
_cell_angle_alpha                 97.6873
_cell_angle_beta                  73.1029
_cell_angle_gamma                 98.2546
loop_
_atom_site_label
_atom_site_type_symbol
_atom_site_fract_x
_atom_site_fract_y
_atom_site_fract_z
_atom_site_U_iso_or_equiv
_atom_site_adp_type
_atom_site_occupancy
C1     C     0.05278   0.16031   0.25849   0.00000  Uiso   1.00
C2     C     0.20243   0.12585   0.45585   0.00000  Uiso   1.00
C3     C     0.23016   0.11703   0.47654   0.00000  Uiso   1.00
C4     C     0.28104   0.17341   0.24140   0.00000  Uiso   1.00
C5     C     0.21887   0.12373   0.01809   0.00000  Uiso   1.00
C6     C     0.17736   0.13523   0.03963   0.00000  Uiso   1.00
C7     C     0.24901   0.11934   0.03822   0.00000  Uiso   1.00
C8     C     0.23861   0.12490   0.07929   0.00000  Uiso   1.00
C9     C     0.16850   0.14436   0.08149   0.00000  Uiso   1.00
C10    C     0.32678   0.17392   0.23755   0.00000  Uiso   1.00
C11    C     0.00686   0.15736   0.26407   0.00000  Uiso   1.00
C12    C     0.08499   0.19163   0.41975   0.00000  Uiso   1.00
C13    C     0.17769   0.32109   0.23438   0.00000  Uiso   1.00
C14    C     0.15309   0.01230   0.26254   0.00000  Uiso   1.00
C15    C     0.15608   0.05618   0.25911   0.00000  Uiso   1.00
C16    C     0.17635   0.27748   0.24070   0.00000  Uiso   1.00
C17    C     0.18821   0.14560   0.14393   0.00000  Uiso   1.00
C18    C     0.14480   0.18698   0.35639   0.00000  Uiso   1.00
C19    C     0.12850   0.18696   0.39972   0.00000  Uiso   1.00
C20    C     0.19824   0.13712   0.10092   0.00000  Uiso   1.00
C21    C     0.06903   0.18312   0.45951   0.00000  Uiso   1.00
C22    C     0.32410   0.11150   0.31236   0.00000  Uiso   1.00
C23    C     0.15491   0.17403   0.41961   0.00000  Uiso   1.00
C24    C     0.19017   0.32302   0.16821   0.00000  Uiso   1.00
C25    C     0.14272   0.20713   0.10300   0.00000  Uiso   1.00
C26    C     0.26522   0.08072   0.10796   0.00000  Uiso   1.00
C27    C     0.26964   0.06226   0.45159   0.00000  Uiso   1.00
C28    C     0.02256   0.17716   0.40057   0.00000  Uiso   1.00
C29    C     0.18712   0.08047   0.40562   0.00000  Uiso   1.00
C30    C     0.13800   0.16072   0.45772   0.00000  Uiso   1.00
C31    C     0.09480   0.16696   0.47813   0.00000  Uiso   1.00
C32    C     0.16325   0.14283   0.47669   0.00000  Uiso   1.00
C33    C     0.14800   0.14076   0.01824   0.00000  Uiso   1.00
C34    C     0.10374   0.14365   0.03665   0.00000  Uiso   1.00
C35    C     0.07759   0.15651   0.01684   0.00000  Uiso   1.00
H36    H     0.28107   0.11154   0.02224   0.00000  Uiso   1.00
H37    H     0.15903   0.00198   0.17163   0.00000  Uiso   1.00
H38    H     0.18640   0.28838   0.16302   0.00000  Uiso   1.00
H39    H     0.21364   0.00133   0.14138   0.00000  Uiso   1.00
H40    H     0.15081   0.21638   0.07240   0.00000  Uiso   1.00
H41    H     0.16953   0.21903   0.11641   0.00000  Uiso   1.00
H42    H     0.11397   0.22237   0.12079   0.00000  Uiso   1.00
H43    H     0.26927   0.05773   0.08129   0.00000  Uiso   1.00
H44    H     0.23363   0.07322   0.12980   0.00000  Uiso   1.00
H45    H     0.29080   0.07789   0.12201   0.00000  Uiso   1.00
H46    H     0.25507   0.04866   0.48032   0.00000  Uiso   1.00
H47    H     0.13275   0.00072   0.28996   0.00000  Uiso   1.00
H48    H     0.30327   0.05426   0.44040   0.00000  Uiso   1.00
H49    H     0.25239   0.04765   0.42963   0.00000  Uiso   1.00
H50    H     0.03085   0.14445   0.39272   0.00000  Uiso   1.00
H51    H     0.00813   0.18448   0.37790   0.00000  Uiso   1.00
H52    H     0.33106   0.17997   0.42951   0.00000  Uiso   1.00
H53    H     0.08820   0.13475   0.06606   0.00000  Uiso   1.00
H54    H     0.15471   0.08871   0.40741   0.00000  Uiso   1.00
H55    H     0.18374   0.05497   0.42471   0.00000  Uiso   1.00
H56    H     0.20165   0.06813   0.37462   0.00000  Uiso   1.00
H57    H     0.03623   0.18839   0.47569   0.00000  Uiso   1.00
H58    H     0.18876   0.17421   0.40443   0.00000  Uiso   1.00
H59    H     0.04396   0.15913   0.03220   0.00000  Uiso   1.00
H60    H     0.01664   0.18701   0.21208   0.00000  Uiso   1.00
H61    H     0.01966   0.12121   0.32332   0.00000  Uiso   1.00
H62    H     0.33012   0.08525   0.28858   0.00000  Uiso   1.00
H63    H     0.29760   0.09994   0.33745   0.00000  Uiso   1.00
O64    O     0.16667   0.16667   0.25000   0.00000  Uiso   1.00
O65    O     0.15693   0.12393   0.16625   0.00000  Uiso   1.00
O66    O     0.12687   0.20646   0.33749   0.00000  Uiso   1.00
O67    O     0.21088   0.17493   0.15877   0.00000  Uiso   1.00
O68    O     0.17198   0.16135   0.33749   0.00000  Uiso   1.00
O69    O     0.31129   0.14554   0.29943   0.00000  Uiso   1.00
O70    O     0.20615   0.00399   0.20110   0.00000  Uiso   1.00
O71    O     0.13271   0.16350   0.10376   0.00000  Uiso   1.00
O72    O     0.26967   0.12189   0.09793   0.00000  Uiso   1.00
O73    O     0.27060   0.10608   0.45537   0.00000  Uiso   1.00
O74    O     0.05918   0.20615   0.40062   0.00000  Uiso   1.00
O75    O     0.17849   0.08101   0.27821   0.00000  Uiso   1.00
O76    O     0.21408   0.11591   0.41525   0.00000  Uiso   1.00
O77    O     0.14581   0.26136   0.26767   0.00000  Uiso   1.00
O78    O     0.07452   0.13251   0.23607   0.00000  Uiso   1.00
O79    O     0.26785   0.19179   0.21806   0.00000  Uiso   1.00
O80    O     0.06990   0.18960   0.27820   0.00000  Uiso   1.00
O81    O     0.25440   0.15277   0.26768   0.00000  Uiso   1.00
O82    O     0.13800   0.06903   0.23607   0.00000  Uiso   1.00
O83    O     0.20437   0.25527   0.21806   0.00000  Uiso   1.00
Zn84   Zn    0.19244   0.14090   0.28278   0.00000  Uiso   1.00
Zn85   Zn    0.13459   0.12378   0.22258   0.00000  Uiso   1.00
Zn86   Zn    0.21166   0.19664   0.21188   0.00000  Uiso   1.00
Zn87   Zn    0.12798   0.20535   0.28277   0.00000  Uiso   1.00
C88    C     0.38611   0.16031   0.25849   0.00000  Uiso   1.00
C89    C     0.53576   0.12585   0.45585   0.00000  Uiso   1.00
C90    C     0.56349   0.11703   0.47654   0.00000  Uiso   1.00
C91    C     0.61437   0.17341   0.24140   0.00000  Uiso   1.00
C92    C     0.55220   0.12373   0.01809   0.00000  Uiso   1.00
C93    C     0.51069   0.13523   0.03963   0.00000  Uiso   1.00
C94    C     0.58234   0.11934   0.03822   0.00000  Uiso   1.00
C95    C     0.57194   0.12490   0.07929   0.00000  Uiso   1.00
C96    C     0.50183   0.14436   0.08149   0.00000  Uiso   1.00
C97    C     0.66012   0.17392   0.23755   0.00000  Uiso   1.00
C98    C     0.34019   0.15736   0.26407   0.00000  Uiso   1.00
C99    C     0.41832   0.19163   0.41975   0.00000  Uiso   1.00
C100   C     0.51103   0.32109   0.23438   0.00000  Uiso   1.00
C101   C     0.48642   0.01230   0.26254   0.00000  Uiso   1.00
C102   C     0.48941   0.05618   0.25911   0.00000  Uiso   1.00
C103   C     0.50969   0.27748   0.24070   0.00000  Uiso   1.00
C104   C     0.52154   0.14560   0.14393   0.00000  Uiso   1.00
C105   C     0.47814   0.18698   0.35639   0.00000  Uiso   1.00
C106   C     0.46183   0.18696   0.39972   0.00000  Uiso   1.00
C107   C     0.53157   0.13712   0.10092   0.00000  Uiso   1.00
C108   C     0.40236   0.18312   0.45951   0.00000  Uiso   1.00
C109   C     0.65744   0.11150   0.31236   0.00000  Uiso   1.00
C110   C     0.48824   0.17403   0.41961   0.00000  Uiso   1.00
C111   C     0.52350   0.32302   0.16821   0.00000  Uiso   1.00
C112   C     0.47605   0.20713   0.10300   0.00000  Uiso   1.00
C113   C     0.59855   0.08072   0.10796   0.00000  Uiso   1.00
C114   C     0.60297   0.06226   0.45159   0.00000  Uiso   1.00
C115   C     0.35590   0.17716   0.40057   0.00000  Uiso   1.00
C116   C     0.52045   0.08047   0.40562   0.00000  Uiso   1.00
C117   C     0.47134   0.16072   0.45772   0.00000  Uiso   1.00
C118   C     0.42814   0.16696   0.47813   0.00000  Uiso   1.00
C119   C     0.49658   0.14283   0.47669   0.00000  Uiso   1.00
C120   C     0.48133   0.14076   0.01824   0.00000  Uiso   1.00
C121   C     0.43707   0.14365   0.03665   0.00000  Uiso   1.00
C122   C     0.41093   0.15651   0.01684   0.00000  Uiso   1.00
H123   H     0.61441   0.11154   0.02224   0.00000  Uiso   1.00
H124   H     0.49237   0.00198   0.17163   0.00000  Uiso   1.00
H125   H     0.51974   0.28838   0.16302   0.00000  Uiso   1.00
H126   H     0.54698   0.00133   0.14138   0.00000  Uiso   1.00
H127   H     0.48415   0.21638   0.07240   0.00000  Uiso   1.00
H128   H     0.50286   0.21903   0.11641   0.00000  Uiso   1.00
H129   H     0.44730   0.22237   0.12079   0.00000  Uiso   1.00
H130   H     0.60261   0.05773   0.08129   0.00000  Uiso   1.00
H131   H     0.56697   0.07322   0.12980   0.00000  Uiso   1.00
H132   H     0.62414   0.07789   0.12201   0.00000  Uiso   1.00
H133   H     0.58840   0.04866   0.48032   0.00000  Uiso   1.00
H134   H     0.46609   0.00072   0.28996   0.00000  Uiso   1.00
H135   H     0.63660   0.05426   0.44040   0.00000  Uiso   1.00
H136   H     0.58572   0.04765   0.42963   0.00000  Uiso   1.00
H137   H     0.36418   0.14445   0.39272   0.00000  Uiso   1.00
H138   H     0.34146   0.18448   0.37790   0.00000  Uiso   1.00
H139   H     0.66439   0.17997   0.42951   0.00000  Uiso   1.00
H140   H     0.42153   0.13475   0.06606   0.00000  Uiso   1.00
H141   H     0.48804   0.08871   0.40741   0.00000  Uiso   1.00
H142   H     0.51708   0.05497   0.42471   0.00000  Uiso   1.00
H143   H     0.53498   0.06813   0.37462   0.00000  Uiso   1.00
H144   H     0.36956   0.18839   0.47569   0.00000  Uiso   1.00
H145   H     0.52210   0.17421   0.40443   0.00000  Uiso   1.00
H146   H     0.37729   0.15913   0.03220   0.00000  Uiso   1.00
H147   H     0.34997   0.18701   0.21208   0.00000  Uiso   1.00
H148   H     0.35299   0.12121   0.32332   0.00000  Uiso   1.00
H149   H     0.66346   0.08525   0.28858   0.00000  Uiso   1.00
H150   H     0.63094   0.09994   0.33745   0.00000  Uiso   1.00
O151   O     0.50000   0.16667   0.25000   0.00000  Uiso   1.00
O152   O     0.49027   0.12393   0.16625   0.00000  Uiso   1.00
O153   O     0.46020   0.20646   0.33749   0.00000  Uiso   1.00
O154   O     0.54421   0.17493   0.15877   0.00000  Uiso   1.00
O155   O     0.50532   0.16135   0.33749   0.00000  Uiso   1.00
O156   O     0.64462   0.14554   0.29943   0.00000  Uiso   1.00
O157   O     0.53949   0.00399   0.20110   0.00000  Uiso   1.00
O158   O     0.46605   0.16350   0.10376   0.00000  Uiso   1.00
O159   O     0.60300   0.12189   0.09793   0.00000  Uiso   1.00
O160   O     0.60394   0.10608   0.45537   0.00000  Uiso   1.00
O161   O     0.39251   0.20615   0.40062   0.00000  Uiso   1.00
O162   O     0.51182   0.08101   0.27821   0.00000  Uiso   1.00
O163   O     0.54742   0.11591   0.41525   0.00000  Uiso   1.00
O164   O     0.47914   0.26136   0.26767   0.00000  Uiso   1.00
O165   O     0.40785   0.13251   0.23607   0.00000  Uiso   1.00
O166   O     0.60119   0.19179   0.21806   0.00000  Uiso   1.00
O167   O     0.40323   0.18960   0.27820   0.00000  Uiso   1.00
O168   O     0.58773   0.15277   0.26768   0.00000  Uiso   1.00
O169   O     0.47133   0.06903   0.23607   0.00000  Uiso   1.00
O170   O     0.53771   0.25527   0.21806   0.00000  Uiso   1.00
Zn171  Zn    0.52577   0.14090   0.28278   0.00000  Uiso   1.00
Zn172  Zn    0.46792   0.12378   0.22258   0.00000  Uiso   1.00
Zn173  Zn    0.54500   0.19664   0.21188   0.00000  Uiso   1.00
Zn174  Zn    0.46131   0.20535   0.28277   0.00000  Uiso   1.00
C175   C     0.71945   0.16031   0.25849   0.00000  Uiso   1.00
C176   C     0.86909   0.12585   0.45585   0.00000  Uiso   1.00
C177   C     0.89683   0.11703   0.47654   0.00000  Uiso   1.00
C178   C     0.94770   0.17341   0.24140   0.00000  Uiso   1.00
C179   C     0.88554   0.12373   0.01809   0.00000  Uiso   1.00
C180   C     0.84402   0.13523   0.03963   0.00000  Uiso   1.00
C181   C     0.91567   0.11934   0.03822   0.00000  Uiso   1.00
C182   C     0.90527   0.12490   0.07929   0.00000  Uiso   1.00
C183   C     0.83516   0.14436   0.08149   0.00000  Uiso   1.00
C184   C     0.99345   0.17392   0.23755   0.00000  Uiso   1.00
C185   C     0.67352   0.15736   0.26407   0.00000  Uiso   1.00
C186   C     0.75165   0.19163   0.41975   0.00000  Uiso   1.00
C187   C     0.84436   0.32109   0.23438   0.00000  Uiso   1.00
C188   C     0.81975   0.01230   0.26254   0.00000  Uiso   1.00
C189   C     0.82274   0.05618   0.25911   0.00000  Uiso   1.00
C190   C     0.84302   0.27748   0.24070   0.00000  Uiso   1.00
C191   C     0.85487   0.14560   0.14393   0.00000  Uiso   1.00
C192   C     0.81147   0.18698   0.35639   0.00000  Uiso   1.00
C193   C     0.79516   0.18696   0.39972   0.00000  Uiso   1.00
C194   C     0.86490   0.13712   0.10092   0.00000  Uiso   1.00
C195   C     0.73569   0.18312   0.45951   0.00000  Uiso   1.00
C196   C     0.99077   0.11150   0.31236   0.00000  Uiso   1.00
C197   C     0.82158   0.17403   0.41961   0.00000  Uiso   1.00
C198   C     0.85683   0.32302   0.16821   0.00000  Uiso   1.00
C199   C     0.80938   0.20713   0.10300   0.00000  Uiso   1.00
C200   C     0.93189   0.08072   0.10796   0.00000  Uiso   1.00
C201   C     0.93630   0.06226   0.45159   0.00000  Uiso   1.00
C202   C     0.68923   0.17716   0.40057   0.00000  Uiso   1.00
C203   C     0.85379   0.08047   0.40562   0.00000  Uiso   1.00
C204   C     0.80467   0.16072   0.45772   0.00000  Uiso   1.00
C205   C     0.76147   0.16696   0.47813   0.00000  Uiso   1.00
C206   C     0.82992   0.14283   0.47669   0.00000  Uiso   1.00
C207   C     0.81467   0.14076   0.01824   0.00000  Uiso   1.00
C208   C     0.77040   0.14365   0.03665   0.00000  Uiso   1.00
C209   C     0.74426   0.15651   0.01684   0.00000  Uiso   1.00
H210   H     0.94774   0.11154   0.02224   0.00000  Uiso   1.00
H211   H     0.82570   0.00198   0.17163   0.00000  Uiso   1.00
H212   H     0.85307   0.28838   0.16302   0.00000  Uiso   1.00
H213   H     0.88031   0.00133   0.14138   0.00000  Uiso   1.00
H214   H     0.81748   0.21638   0.07240   0.00000  Uiso   1.00
H215   H     0.83620   0.21903   0.11641   0.00000  Uiso   1.00
H216   H     0.78063   0.22237   0.12079   0.00000  Uiso   1.00
H217   H     0.93594   0.05773   0.08129   0.00000  Uiso   1.00
H218   H     0.90030   0.07322   0.12980   0.00000  Uiso   1.00
H219   H     0.95747   0.07789   0.12201   0.00000  Uiso   1.00
H220   H     0.92174   0.04866   0.48032   0.00000  Uiso   1.00
H221   H     0.79942   0.00072   0.28996   0.00000  Uiso   1.00
H222   H     0.96993   0.05426   0.44040   0.00000  Uiso   1.00
H223   H     0.91906   0.04765   0.42963   0.00000  Uiso   1.00
H224   H     0.69752   0.14445   0.39272   0.00000  Uiso   1.00
H225   H     0.67480   0.18448   0.37790   0.00000  Uiso   1.00
H226   H     0.99772   0.17997   0.42951   0.00000  Uiso   1.00
H227   H     0.75486   0.13475   0.06606   0.00000  Uiso   1.00
H228   H     0.82138   0.08871   0.40741   0.00000  Uiso   1.00
H229   H     0.85041   0.05497   0.42471   0.00000  Uiso   1.00
H230   H     0.86832   0.06813   0.37462   0.00000  Uiso   1.00
H231   H     0.70290   0.18839   0.47569   0.00000  Uiso   1.00
H232   H     0.85543   0.17421   0.40443   0.00000  Uiso   1.00
H233   H     0.71062   0.15913   0.03220   0.00000  Uiso   1.00
H234   H     0.68331   0.18701   0.21208   0.00000  Uiso   1.00
H235   H     0.68633   0.12121   0.32332   0.00000  Uiso   1.00
H236   H     0.99679   0.08525   0.28858   0.00000  Uiso   1.00
H237   H     0.96427   0.09994   0.33745   0.00000  Uiso   1.00
O238   O     0.83333   0.16667   0.25000   0.00000  Uiso   1.00
O239   O     0.82360   0.12393   0.16625   0.00000  Uiso   1.00
O240   O     0.79354   0.20646   0.33749   0.00000  Uiso   1.00
O241   O     0.87755   0.17493   0.15877   0.00000  Uiso   1.00
O242   O     0.83865   0.16135   0.33749   0.00000  Uiso   1.00
O243   O     0.97796   0.14554   0.29943   0.00000  Uiso   1.00
O244   O     0.87282   0.00399   0.20110   0.00000  Uiso   1.00
O245   O     0.79938   0.16350   0.10376   0.00000  Uiso   1.00
O246   O     0.93634   0.12189   0.09793   0.00000  Uiso   1.00
O247   O     0.93727   0.10608   0.45537   0.00000  Uiso   1.00
O248   O     0.72585   0.20615   0.40062   0.00000  Uiso   1.00
O249   O     0.84515   0.08101   0.27821   0.00000  Uiso   1.00
O250   O     0.88075   0.11591   0.41525   0.00000  Uiso   1.00
O251   O     0.81247   0.26136   0.26767   0.00000  Uiso   1.00
O252   O     0.74119   0.13251   0.23607   0.00000  Uiso   1.00
O253   O     0.93452   0.19179   0.21806   0.00000  Uiso   1.00
O254   O     0.73656   0.18960   0.27820   0.00000  Uiso   1.00
O255   O     0.92106   0.15277   0.26768   0.00000  Uiso   1.00
O256   O     0.80467   0.06903   0.23607   0.00000  Uiso   1.00
O257   O     0.87104   0.25527   0.21806   0.00000  Uiso   1.00
Zn258  Zn    0.85910   0.14090   0.28278   0.00000  Uiso   1.00
Zn259  Zn    0.80125   0.12378   0.22258   0.00000  Uiso   1.00
Zn260  Zn    0.87833   0.19664   0.21188   0.00000  Uiso   1.00
Zn261  Zn    0.79465   0.20535   0.28277   0.00000  Uiso   1.00
C262   C     0.05278   0.49365   0.25849   0.00000  Uiso   1.00
C263   C     0.20243   0.45919   0.45585   0.00000  Uiso   1.00
C264   C     0.23016   0.45037   0.47654   0.00000  Uiso   1.00
C265   C     0.28104   0.50675   0.24140   0.00000  Uiso   1.00
C266   C     0.21887   0.45707   0.01809   0.00000  Uiso   1.00
C267   C     0.17736   0.46856   0.03963   0.00000  Uiso   1.00
C268   C     0.24901   0.45267   0.03822   0.00000  Uiso   1.00
C269   C     0.23861   0.45824   0.07929   0.00000  Uiso   1.00
C270   C     0.16850   0.47769   0.08149   0.00000  Uiso   1.00
C271   C     0.32678   0.50726   0.23755   0.00000  Uiso   1.00
C272   C     0.00686   0.49069   0.26407   0.00000  Uiso   1.00
C273   C     0.08499   0.52496   0.41975   0.00000  Uiso   1.00
C274   C     0.17769   0.65442   0.23438   0.00000  Uiso   1.00
C275   C     0.15309   0.34563   0.26254   0.00000  Uiso   1.00
C276   C     0.15608   0.38951   0.25911   0.00000  Uiso   1.00
C277   C     0.17635   0.61081   0.24070   0.00000  Uiso   1.00
C278   C     0.18821   0.47893   0.14393   0.00000  Uiso   1.00
C279   C     0.14480   0.52031   0.35639   0.00000  Uiso   1.00
C280   C     0.12850   0.52029   0.39972   0.00000  Uiso   1.00
C281   C     0.19824   0.47045   0.10092   0.00000  Uiso   1.00
C282   C     0.06903   0.51645   0.45951   0.00000  Uiso   1.00
C283   C     0.32410   0.44484   0.31236   0.00000  Uiso   1.00
C284   C     0.15491   0.50737   0.41961   0.00000  Uiso   1.00
C285   C     0.19017   0.65635   0.16821   0.00000  Uiso   1.00
C286   C     0.14272   0.54046   0.10300   0.00000  Uiso   1.00
C287   C     0.26522   0.41406   0.10796   0.00000  Uiso   1.00
C288   C     0.26964   0.39559   0.45159   0.00000  Uiso   1.00
C289   C     0.02256   0.51049   0.40057   0.00000  Uiso   1.00
C290   C     0.18712   0.41380   0.40562   0.00000  Uiso   1.00
C291   C     0.13800   0.49405   0.45772   0.00000  Uiso   1.00
C292   C     0.09480   0.50030   0.47813   0.00000  Uiso   1.00
C293   C     0.16325   0.47616   0.47669   0.00000  Uiso   1.00
C294   C     0.14800   0.47409   0.01824   0.00000  Uiso   1.00
C295   C     0.10374   0.47699   0.03665   0.00000  Uiso   1.00
C296   C     0.07759   0.48985   0.01684   0.00000  Uiso   1.00
H297   H     0.28107   0.44487   0.02224   0.00000  Uiso   1.00
H298   H     0.15903   0.33531   0.17163   0.00000  Uiso   1.00
H299   H     0.18640   0.62171   0.16302   0.00000  Uiso   1.00
H300   H     0.21364   0.33467   0.14138   0.00000  Uiso   1.00
H301   H     0.15081   0.54971   0.07240   0.00000  Uiso   1.00
H302   H     0.16953   0.55237   0.11641   0.00000  Uiso   1.00
H303   H     0.11397   0.55570   0.12079   0.00000  Uiso   1.00
H304   H     0.26927   0.39106   0.08129   0.00000  Uiso   1.00
H305   H     0.23363   0.40655   0.12980   0.00000  Uiso   1.00
H306   H     0.29080   0.41122   0.12201   0.00000  Uiso   1.00
H307   H     0.25507   0.38199   0.48032   0.00000  Uiso   1.00
H308   H     0.13275   0.33406   0.28996   0.00000  Uiso   1.00
H309   H     0.30327   0.38760   0.44040   0.00000  Uiso   1.00
H310   H     0.25239   0.38099   0.42963   0.00000  Uiso   1.00
H311   H     0.03085   0.47778   0.39272   0.00000  Uiso   1.00
H312   H     0.00813   0.51782   0.37790   0.00000  Uiso   1.00
H313   H     0.33106   0.51330   0.42951   0.00000  Uiso   1.00
H314   H     0.08820   0.46808   0.06606   0.00000  Uiso   1.00
H315   H     0.15471   0.42204   0.40741   0.00000  Uiso   1.00
H316   H     0.18374   0.38831   0.42471   0.00000  Uiso   1.00
H317   H     0.20165   0.40146   0.37462   0.00000  Uiso   1.00
H318   H     0.03623   0.52172   0.47569   0.00000  Uiso   1.00
H319   H     0.18876   0.50755   0.40443   0.00000  Uiso   1.00
H320   H     0.04396   0.49246   0.03220   0.00000  Uiso   1.00
H321   H     0.01664   0.52035   0.21208   0.00000  Uiso   1.00
H322   H     0.01966   0.45454   0.32332   0.00000  Uiso   1.00
H323   H     0.33012   0.41858   0.28858   0.00000  Uiso   1.00
H324   H     0.29760   0.43327   0.33745   0.00000  Uiso   1.00
O325   O     0.16667   0.50000   0.25000   0.00000  Uiso   1.00
O326   O     0.15693   0.45726   0.16625   0.00000  Uiso   1.00
O327   O     0.12687   0.53979   0.33749   0.00000  Uiso   1.00
O328   O     0.21088   0.50826   0.15877   0.00000  Uiso   1.00
O329   O     0.17198   0.49468   0.33749   0.00000  Uiso   1.00
O330   O     0.31129   0.47888   0.29943   0.00000  Uiso   1.00
O331   O     0.20615   0.33733   0.20110   0.00000  Uiso   1.00
O332   O     0.13271   0.49684   0.10376   0.00000  Uiso   1.00
O333   O     0.26967   0.45523   0.09793   0.00000  Uiso   1.00
O334   O     0.27060   0.43942   0.45537   0.00000  Uiso   1.00
O335   O     0.05918   0.53948   0.40062   0.00000  Uiso   1.00
O336   O     0.17849   0.41434   0.27821   0.00000  Uiso   1.00
O337   O     0.21408   0.44924   0.41525   0.00000  Uiso   1.00
O338   O     0.14581   0.59469   0.26767   0.00000  Uiso   1.00
O339   O     0.07452   0.46584   0.23607   0.00000  Uiso   1.00
O340   O     0.26785   0.52512   0.21806   0.00000  Uiso   1.00
O341   O     0.06990   0.52293   0.27820   0.00000  Uiso   1.00
O342   O     0.25440   0.48610   0.26768   0.00000  Uiso   1.00
O343   O     0.13800   0.40236   0.23607   0.00000  Uiso   1.00
O344   O     0.20437   0.58860   0.21806   0.00000  Uiso   1.00
Zn345  Zn    0.19244   0.47423   0.28278   0.00000  Uiso   1.00
Zn346  Zn    0.13459   0.45711   0.22258   0.00000  Uiso   1.00
Zn347  Zn    0.21166   0.52997   0.21188   0.00000  Uiso   1.00
Zn348  Zn    0.12798   0.53868   0.28277   0.00000  Uiso   1.00
C349   C     0.38611   0.49365   0.25849   0.00000  Uiso   1.00
C350   C     0.53576   0.45919   0.45585   0.00000  Uiso   1.00
C351   C     0.56349   0.45037   0.47654   0.00000  Uiso   1.00
C352   C     0.61437   0.50675   0.24140   0.00000  Uiso   1.00
C353   C     0.55220   0.45707   0.01809   0.00000  Uiso   1.00
C354   C     0.51069   0.46856   0.03963   0.00000  Uiso   1.00
C355   C     0.58234   0.45267   0.03822   0.00000  Uiso   1.00
C356   C     0.57194   0.45824   0.07929   0.00000  Uiso   1.00
C357   C     0.50183   0.47769   0.08149   0.00000  Uiso   1.00
C358   C     0.66012   0.50726   0.23755   0.00000  Uiso   1.00
C359   C     0.34019   0.49069   0.26407   0.00000  Uiso   1.00
C360   C     0.41832   0.52496   0.41975   0.00000  Uiso   1.00
C361   C     0.51103   0.65442   0.23438   0.00000  Uiso   1.00
C362   C     0.48642   0.34563   0.26254   0.00000  Uiso   1.00
C363   C     0.48941   0.38951   0.25911   0.00000  Uiso   1.00
C364   C     0.50969   0.61081   0.24070   0.00000  Uiso   1.00
C365   C     0.52154   0.47893   0.14393   0.00000  Uiso   1.00
C366   C     0.47814   0.52031   0.35639   0.00000  Uiso   1.00
C367   C     0.46183   0.52029   0.39972   0.00000  Uiso   1.00
C368   C     0.53157   0.47045   0.10092   0.00000  Uiso   1.00
C369   C     0.40236   0.51645   0.45951   0.00000  Uiso   1.00
C370   C     0.65744   0.44484   0.31236   0.00000  Uiso   1.00
C371   C     0.48824   0.50737   0.41961   0.00000  Uiso   1.00
C372   C     0.52350   0.65635   0.16821   0.00000  Uiso   1.00
C373   C     0.47605   0.54046   0.10300   0.00000  Uiso   1.00
C374   C     0.59855   0.41406   0.10796   0.00000  Uiso   1.00
C375   C     0.60297   0.39559   0.45159   0.00000  Uiso   1.00
C376   C     0.35590   0.51049   0.40057   0.00000  Uiso   1.00
C377   C     0.52045   0.41380   0.40562   0.00000  Uiso   1.00
C378   C     0.47134   0.49405   0.45772   0.00000  Uiso   1.00
C379   C     0.42814   0.50030   0.47813   0.00000  Uiso   1.00
C380   C     0.49658   0.47616   0.47669   0.00000  Uiso   1.00
C381   C     0.48133   0.47409   0.01824   0.00000  Uiso   1.00
C382   C     0.43707   0.47699   0.03665   0.00000  Uiso   1.00
C383   C     0.41093   0.48985   0.01684   0.00000  Uiso   1.00
H384   H     0.61441   0.44487   0.02224   0.00000  Uiso   1.00
H385   H     0.49237   0.33531   0.17163   0.00000  Uiso   1.00
H386   H     0.51974   0.62171   0.16302   0.00000  Uiso   1.00
H387   H     0.54698   0.33467   0.14138   0.00000  Uiso   1.00
H388   H     0.48415   0.54971   0.07240   0.00000  Uiso   1.00
H389   H     0.50286   0.55237   0.11641   0.00000  Uiso   1.00
H390   H     0.44730   0.55570   0.12079   0.00000  Uiso   1.00
H391   H     0.60261   0.39106   0.08129   0.00000  Uiso   1.00
H392   H     0.56697   0.40655   0.12980   0.00000  Uiso   1.00
H393   H     0.62414   0.41122   0.12201   0.00000  Uiso   1.00
H394   H     0.58840   0.38199   0.48032   0.00000  Uiso   1.00
H395   H     0.46609   0.33406   0.28996   0.00000  Uiso   1.00
H396   H     0.63660   0.38760   0.44040   0.00000  Uiso   1.00
H397   H     0.58572   0.38099   0.42963   0.00000  Uiso   1.00
H398   H     0.36418   0.47778   0.39272   0.00000  Uiso   1.00
H399   H     0.34146   0.51782   0.37790   0.00000  Uiso   1.00
H400   H     0.66439   0.51330   0.42951   0.00000  Uiso   1.00
H401   H     0.42153   0.46808   0.06606   0.00000  Uiso   1.00
H402   H     0.48804   0.42204   0.40741   0.00000  Uiso   1.00
H403   H     0.51708   0.38831   0.42471   0.00000  Uiso   1.00
H404   H     0.53498   0.40146   0.37462   0.00000  Uiso   1.00
H405   H     0.36956   0.52172   0.47569   0.00000  Uiso   1.00
H406   H     0.52210   0.50755   0.40443   0.00000  Uiso   1.00
H407   H     0.37729   0.49246   0.03220   0.00000  Uiso   1.00
H408   H     0.34997   0.52035   0.21208   0.00000  Uiso   1.00
H409   H     0.35299   0.45454   0.32332   0.00000  Uiso   1.00
H410   H     0.66346   0.41858   0.28858   0.00000  Uiso   1.00
H411   H     0.63094   0.43327   0.33745   0.00000  Uiso   1.00
O412   O     0.50000   0.50000   0.25000   0.00000  Uiso   1.00
O413   O     0.49027   0.45726   0.16625   0.00000  Uiso   1.00
O414   O     0.46020   0.53979   0.33749   0.00000  Uiso   1.00
O415   O     0.54421   0.50826   0.15877   0.00000  Uiso   1.00
O416   O     0.50532   0.49468   0.33749   0.00000  Uiso   1.00
O417   O     0.64462   0.47888   0.29943   0.00000  Uiso   1.00
O418   O     0.53949   0.33733   0.20110   0.00000  Uiso   1.00
O419   O     0.46605   0.49684   0.10376   0.00000  Uiso   1.00
O420   O     0.60300   0.45523   0.09793   0.00000  Uiso   1.00
O421   O     0.60394   0.43942   0.45537   0.00000  Uiso   1.00
O422   O     0.39251   0.53948   0.40062   0.00000  Uiso   1.00
O423   O     0.51182   0.41434   0.27821   0.00000  Uiso   1.00
O424   O     0.54742   0.44924   0.41525   0.00000  Uiso   1.00
O425   O     0.47914   0.59469   0.26767   0.00000  Uiso   1.00
O426   O     0.40785   0.46584   0.23607   0.00000  Uiso   1.00
O427   O     0.60119   0.52512   0.21806   0.00000  Uiso   1.00
O428   O     0.40323   0.52293   0.27820   0.00000  Uiso   1.00
O429   O     0.58773   0.48610   0.26768   0.00000  Uiso   1.00
O430   O     0.47133   0.40236   0.23607   0.00000  Uiso   1.00
O431   O     0.53771   0.58860   0.21806   0.00000  Uiso   1.00
Zn432  Zn    0.52577   0.47423   0.28278   0.00000  Uiso   1.00
Zn433  Zn    0.46792   0.45711   0.22258   0.00000  Uiso   1.00
Zn434  Zn    0.54500   0.52997   0.21188   0.00000  Uiso   1.00
Zn435  Zn    0.46131   0.53868   0.28277   0.00000  Uiso   1.00
C436   C     0.71945   0.49365   0.25849   0.00000  Uiso   1.00
C437   C     0.86909   0.45919   0.45585   0.00000  Uiso   1.00
C438   C     0.89683   0.45037   0.47654   0.00000  Uiso   1.00
C439   C     0.94770   0.50675   0.24140   0.00000  Uiso   1.00
C440   C     0.88554   0.45707   0.01809   0.00000  Uiso   1.00
C441   C     0.84402   0.46856   0.03963   0.00000  Uiso   1.00
C442   C     0.91567   0.45267   0.03822   0.00000  Uiso   1.00
C443   C     0.90527   0.45824   0.07929   0.00000  Uiso   1.00
C444   C     0.83516   0.47769   0.08149   0.00000  Uiso   1.00
C445   C     0.99345   0.50726   0.23755   0.00000  Uiso   1.00
C446   C     0.67352   0.49069   0.26407   0.00000  Uiso   1.00
C447   C     0.75165   0.52496   0.41975   0.00000  Uiso   1.00
C448   C     0.84436   0.65442   0.23438   0.00000  Uiso   1.00
C449   C     0.81975   0.34563   0.26254   0.00000  Uiso   1.00
C450   C     0.82274   0.38951   0.25911   0.00000  Uiso   1.00
C451   C     0.84302   0.61081   0.24070   0.00000  Uiso   1.00
C452   C     0.85487   0.47893   0.14393   0.00000  Uiso   1.00
C453   C     0.81147   0.52031   0.35639   0.00000  Uiso   1.00
C454   C     0.79516   0.52029   0.39972   0.00000  Uiso   1.00
C455   C     0.86490   0.47045   0.10092   0.00000  Uiso   1.00
C456   C     0.73569   0.51645   0.45951   0.00000  Uiso   1.00
C457   C     0.99077   0.44484   0.31236   0.00000  Uiso   1.00
C458   C     0.82158   0.50737   0.41961   0.00000  Uiso   1.00
C459   C     0.85683   0.65635   0.16821   0.00000  Uiso   1.00
C460   C     0.80938   0.54046   0.10300   0.00000  Uiso   1.00
C461   C     0.93189   0.41406   0.10796   0.00000  Uiso   1.00
C462   C     0.93630   0.39559   0.45159   0.00000  Uiso   1.00
C463   C     0.68923   0.51049   0.40057   0.00000  Uiso   1.00
C464   C     0.85379   0.41380   0.40562   0.00000  Uiso   1.00
C465   C     0.80467   0.49405   0.45772   0.00000  Uiso   1.00
C466   C     0.76147   0.50030   0.47813   0.00000  Uiso   1.00
C467   C     0.82992   0.47616   0.47669   0.00000  Uiso   1.00
C468   C     0.81467   0.47409   0.01824   0.00000  Uiso   1.00
C469   C     0.77040   0.47699   0.03665   0.00000  Uiso   1.00
C470   C     0.74426   0.48985   0.01684   0.00000  Uiso   1.00
H471   H     0.94774   0.44487   0.02224   0.00000  Uiso   1.00
H472   H     0.82570   0.33531   0.17163   0.00000  Uiso   1.00
H473   H     0.85307   0.62171   0.16302   0.00000  Uiso   1.00
H474   H     0.88031   0.33467   0.14138   0.00000  Uiso   1.00
H475   H     0.81748   0.54971   0.07240   0.00000  Uiso   1.00
H476   H     0.83620   0.55237   0.11641   0.00000  Uiso   1.00
H477   H     0.78063   0.55570   0.12079   0.00000  Uiso   1.00
H478   H     0.93594   0.39106   0.08129   0.00000  Uiso   1.00
H479   H     0.90030   0.40655   0.12980   0.00000  Uiso   1.00
H480   H     0.95747   0.41122   0.12201   0.00000  Uiso   1.00
H481   H     0.92174   0.38199   0.48032   0.00000  Uiso   1.00
H482   H     0.79942   0.33406   0.28996   0.00000  Uiso   1.00
H483   H     0.96993   0.38760   0.44040   0.00000  Uiso   1.00
H484   H     0.91906   0.38099   0.42963   0.00000  Uiso   1.00
H485   H     0.69752   0.47778   0.39272   0.00000  Uiso   1.00
H486   H     0.67480   0.51782   0.37790   0.00000  Uiso   1.00
H487   H     0.99772   0.51330   0.42951   0.00000  Uiso   1.00
H488   H     0.75486   0.46808   0.06606   0.00000  Uiso   1.00
H489   H     0.82138   0.42204   0.40741   0.00000  Uiso   1.00
H490   H     0.85041   0.38831   0.42471   0.00000  Uiso   1.00
H491   H     0.86832   0.40146   0.37462   0.00000  Uiso   1.00
H492   H     0.70290   0.52172   0.47569   0.00000  Uiso   1.00
H493   H     0.85543   0.50755   0.40443   0.00000  Uiso   1.00
H494   H     0.71062   0.49246   0.03220   0.00000  Uiso   1.00
H495   H     0.68331   0.52035   0.21208   0.00000  Uiso   1.00
H496   H     0.68633   0.45454   0.32332   0.00000  Uiso   1.00
H497   H     0.99679   0.41858   0.28858   0.00000  Uiso   1.00
H498   H     0.96427   0.43327   0.33745   0.00000  Uiso   1.00
O499   O     0.83333   0.50000   0.25000   0.00000  Uiso   1.00
O500   O     0.82360   0.45726   0.16625   0.00000  Uiso   1.00
O501   O     0.79354   0.53979   0.33749   0.00000  Uiso   1.00
O502   O     0.87755   0.50826   0.15877   0.00000  Uiso   1.00
O503   O     0.83865   0.49468   0.33749   0.00000  Uiso   1.00
O504   O     0.97796   0.47888   0.29943   0.00000  Uiso   1.00
O505   O     0.87282   0.33733   0.20110   0.00000  Uiso   1.00
O506   O     0.79938   0.49684   0.10376   0.00000  Uiso   1.00
O507   O     0.93634   0.45523   0.09793   0.00000  Uiso   1.00
O508   O     0.93727   0.43942   0.45537   0.00000  Uiso   1.00
O509   O     0.72585   0.53948   0.40062   0.00000  Uiso   1.00
O510   O     0.84515   0.41434   0.27821   0.00000  Uiso   1.00
O511   O     0.88075   0.44924   0.41525   0.00000  Uiso   1.00
O512   O     0.81247   0.59469   0.26767   0.00000  Uiso   1.00
O513   O     0.74119   0.46584   0.23607   0.00000  Uiso   1.00
O514   O     0.93452   0.52512   0.21806   0.00000  Uiso   1.00
O515   O     0.73656   0.52293   0.27820   0.00000  Uiso   1.00
O516   O     0.92106   0.48610   0.26768   0.00000  Uiso   1.00
O517   O     0.80467   0.40236   0.23607   0.00000  Uiso   1.00
O518   O     0.87104   0.58860   0.21806   0.00000  Uiso   1.00
Zn519  Zn    0.85910   0.47423   0.28278   0.00000  Uiso   1.00
Zn520  Zn    0.80125   0.45711   0.22258   0.00000  Uiso   1.00
Zn521  Zn    0.87833   0.52997   0.21188   0.00000  Uiso   1.00
Zn522  Zn    0.79465   0.53868   0.28277   0.00000  Uiso   1.00
C523   C     0.05278   0.82698   0.25849   0.00000  Uiso   1.00
C524   C     0.20243   0.79252   0.45585   0.00000  Uiso   1.00
C525   C     0.23016   0.78370   0.47654   0.00000  Uiso   1.00
C526   C     0.28104   0.84008   0.24140   0.00000  Uiso   1.00
C527   C     0.21887   0.79040   0.01809   0.00000  Uiso   1.00
C528   C     0.17736   0.80190   0.03963   0.00000  Uiso   1.00
C529   C     0.24901   0.78600   0.03822   0.00000  Uiso   1.00
C530   C     0.23861   0.79157   0.07929   0.00000  Uiso   1.00
C531   C     0.16850   0.81102   0.08149   0.00000  Uiso   1.00
C532   C     0.32678   0.84059   0.23755   0.00000  Uiso   1.00
C533   C     0.00686   0.82402   0.26407   0.00000  Uiso   1.00
C534   C     0.08499   0.85830   0.41975   0.00000  Uiso   1.00
C535   C     0.17769   0.98775   0.23438   0.00000  Uiso   1.00
C536   C     0.15309   0.67896   0.26254   0.00000  Uiso   1.00
C537   C     0.15608   0.72285   0.25911   0.00000  Uiso   1.00
C538   C     0.17635   0.94414   0.24070   0.00000  Uiso   1.00
C539   C     0.18821   0.81227   0.14393   0.00000  Uiso   1.00
C540   C     0.14480   0.85365   0.35639   0.00000  Uiso   1.00
C541   C     0.12850   0.85362   0.39972   0.00000  Uiso   1.00
C542   C     0.19824   0.80379   0.10092   0.00000  Uiso   1.00
C543   C     0.06903   0.84979   0.45951   0.00000  Uiso   1.00
C544   C     0.32410   0.77817   0.31236   0.00000  Uiso   1.00
C545   C     0.15491   0.84070   0.41961   0.00000  Uiso   1.00
C546   C     0.19017   0.98969   0.16821   0.00000  Uiso   1.00
C547   C     0.14272   0.87380   0.10300   0.00000  Uiso   1.00
C548   C     0.26522   0.74739   0.10796   0.00000  Uiso   1.00
C549   C     0.26964   0.72893   0.45159   0.00000  Uiso   1.00
C550   C     0.02256   0.84382   0.40057   0.00000  Uiso   1.00
C551   C     0.18712   0.74714   0.40562   0.00000  Uiso   1.00
C552   C     0.13800   0.82739   0.45772   0.00000  Uiso   1.00
C553   C     0.09480   0.83363   0.47813   0.00000  Uiso   1.00
C554   C     0.16325   0.80949   0.47669   0.00000  Uiso   1.00
C555   C     0.14800   0.80742   0.01824   0.00000  Uiso   1.00
C556   C     0.10374   0.81032   0.03665   0.00000  Uiso   1.00
C557   C     0.07759   0.82318   0.01684   0.00000  Uiso   1.00
H558   H     0.28107   0.77821   0.02224   0.00000  Uiso   1.00
H559   H     0.15903   0.66864   0.17163   0.00000  Uiso   1.00
H560   H     0.18640   0.95504   0.16302   0.00000  Uiso   1.00
H561   H     0.21364   0.66800   0.14138   0.00000  Uiso   1.00
H562   H     0.15081   0.88304   0.07240   0.00000  Uiso   1.00
H563   H     0.16953   0.88570   0.11641   0.00000  Uiso   1.00
H564   H     0.11397   0.88904   0.12079   0.00000  Uiso   1.00
H565   H     0.26927   0.72439   0.08129   0.00000  Uiso   1.00
H566   H     0.23363   0.73989   0.12980   0.00000  Uiso   1.00
H567   H     0.29080   0.74455   0.12201   0.00000  Uiso   1.00
H568   H     0.25507   0.71532   0.48032   0.00000  Uiso   1.00
H569   H     0.13275   0.66739   0.28996   0.00000  Uiso   1.00
H570   H     0.30327   0.72093   0.44040   0.00000  Uiso   1.00
H571   H     0.25239   0.71432   0.42963   0.00000  Uiso   1.00
H572   H     0.03085   0.81112   0.39272   0.00000  Uiso   1.00
H573   H     0.00813   0.85115   0.37790   0.00000  Uiso   1.00
H574   H     0.33106   0.84664   0.42951   0.00000  Uiso   1.00
H575   H     0.08820   0.80142   0.06606   0.00000  Uiso   1.00
H576   H     0.15471   0.75538   0.40741   0.00000  Uiso   1.00
H577   H     0.18374   0.72164   0.42471   0.00000  Uiso   1.00
H578   H     0.20165   0.73480   0.37462   0.00000  Uiso   1.00
H579   H     0.03623   0.85506   0.47569   0.00000  Uiso   1.00
H580   H     0.18876   0.84088   0.40443   0.00000  Uiso   1.00
H581   H     0.04396   0.82580   0.03220   0.00000  Uiso   1.00
H582   H     0.01664   0.85368   0.21208   0.00000  Uiso   1.00
H583   H     0.01966   0.78787   0.32332   0.00000  Uiso   1.00
H584   H     0.33012   0.75192   0.28858   0.00000  Uiso   1.00
H585   H     0.29760   0.76660   0.33745   0.00000  Uiso   1.00
O586   O     0.16667   0.83333   0.25000   0.00000  Uiso   1.00
O587   O     0.15693   0.79060   0.16625   0.00000  Uiso   1.00
O588   O     0.12687   0.87313   0.33749   0.00000  Uiso   1.00
O589   O     0.21088   0.84159   0.15877   0.00000  Uiso   1.00
O590   O     0.17198   0.82802   0.33749   0.00000  Uiso   1.00
O591   O     0.31129   0.81221   0.29943   0.00000  Uiso   1.00
O592   O     0.20615   0.67066   0.20110   0.00000  Uiso   1.00
O593   O     0.13271   0.83017   0.10376   0.00000  Uiso   1.00
O594   O     0.26967   0.78856   0.09793   0.00000  Uiso   1.00
O595   O     0.27060   0.77275   0.45537   0.00000  Uiso   1.00
O596   O     0.05918   0.87282   0.40062   0.00000  Uiso   1.00
O597   O     0.17849   0.74768   0.27821   0.00000  Uiso   1.00
O598   O     0.21408   0.78258   0.41525   0.00000  Uiso   1.00
O599   O     0.14581   0.92803   0.26767   0.00000  Uiso   1.00
O600   O     0.07452   0.79917   0.23607   0.00000  Uiso   1.00
O601   O     0.26785   0.85845   0.21806   0.00000  Uiso   1.00
O602   O     0.06990   0.85627   0.27820   0.00000  Uiso   1.00
O603   O     0.25440   0.81944   0.26768   0.00000  Uiso   1.00
O604   O     0.13800   0.73570   0.23607   0.00000  Uiso   1.00
O605   O     0.20437   0.92193   0.21806   0.00000  Uiso   1.00
Zn606  Zn    0.19244   0.80756   0.28278   0.00000  Uiso   1.00
Zn607  Zn    0.13459   0.79044   0.22258   0.00000  Uiso   1.00
Zn608  Zn    0.21166   0.86331   0.21188   0.00000  Uiso   1.00
Zn609  Zn    0.12798   0.87202   0.28277   0.00000  Uiso   1.00
C610   C     0.38611   0.82698   0.25849   0.00000  Uiso   1.00
C611   C     0.53576   0.79252   0.45585   0.00000  Uiso   1.00
C612   C     0.56349   0.78370   0.47654   0.00000  Uiso   1.00
C613   C     0.61437   0.84008   0.24140   0.00000  Uiso   1.00
C614   C     0.55220   0.79040   0.01809   0.00000  Uiso   1.00
C615   C     0.51069   0.80190   0.03963   0.00000  Uiso   1.00
C616   C     0.58234   0.78600   0.03822   0.00000  Uiso   1.00
C617   C     0.57194   0.79157   0.07929   0.00000  Uiso   1.00
C618   C     0.50183   0.81102   0.08149   0.00000  Uiso   1.00
C619   C     0.66012   0.84059   0.23755   0.00000  Uiso   1.00
C620   C     0.34019   0.82402   0.26407   0.00000  Uiso   1.00
C621   C     0.41832   0.85830   0.41975   0.00000  Uiso   1.00
C622   C     0.51103   0.98775   0.23438   0.00000  Uiso   1.00
C623   C     0.48642   0.67896   0.26254   0.00000  Uiso   1.00
C624   C     0.48941   0.72285   0.25911   0.00000  Uiso   1.00
C625   C     0.50969   0.94414   0.24070   0.00000  Uiso   1.00
C626   C     0.52154   0.81227   0.14393   0.00000  Uiso   1.00
C627   C     0.47814   0.85365   0.35639   0.00000  Uiso   1.00
C628   C     0.46183   0.85362   0.39972   0.00000  Uiso   1.00
C629   C     0.53157   0.80379   0.10092   0.00000  Uiso   1.00
C630   C     0.40236   0.84979   0.45951   0.00000  Uiso   1.00
C631   C     0.65744   0.77817   0.31236   0.00000  Uiso   1.00
C632   C     0.48824   0.84070   0.41961   0.00000  Uiso   1.00
C633   C     0.52350   0.98969   0.16821   0.00000  Uiso   1.00
C634   C     0.47605   0.87380   0.10300   0.00000  Uiso   1.00
C635   C     0.59855   0.74739   0.10796   0.00000  Uiso   1.00
C636   C     0.60297   0.72893   0.45159   0.00000  Uiso   1.00
C637   C     0.35590   0.84382   0.40057   0.00000  Uiso   1.00
C638   C     0.52045   0.74714   0.40562   0.00000  Uiso   1.00
C639   C     0.47134   0.82739   0.45772   0.00000  Uiso   1.00
C640   C     0.42814   0.83363   0.47813   0.00000  Uiso   1.00
C641   C     0.49658   0.80949   0.47669   0.00000  Uiso   1.00
C642   C     0.48133   0.80742   0.01824   0.00000  Uiso   1.00
C643   C     0.43707   0.81032   0.03665   0.00000  Uiso   1.00
C644   C     0.41093   0.82318   0.01684   0.00000  Uiso   1.00
H645   H     0.61441   0.77821   0.02224   0.00000  Uiso   1.00
H646   H     0.49237   0.66864   0.17163   0.00000  Uiso   1.00
H647   H     0.51974   0.95504   0.16302   0.00000  Uiso   1.00
H648   H     0.54698   0.66800   0.14138   0.00000  Uiso   1.00
H649   H     0.48415   0.88304   0.07240   0.00000  Uiso   1.00
H650   H     0.50286   0.88570   0.11641   0.00000  Uiso   1.00
H651   H     0.44730   0.88904   0.12079   0.00000  Uiso   1.00
H652   H     0.60261   0.72439   0.08129   0.00000  Uiso   1.00
H653   H     0.56697   0.73989   0.12980   0.00000  Uiso   1.00
H654   H     0.62414   0.74455   0.12201   0.00000  Uiso   1.00
H655   H     0.58840   0.71532   0.48032   0.00000  Uiso   1.00
H656   H     0.46609   0.66739   0.28996   0.00000  Uiso   1.00
H657   H     0.63660   0.72093   0.44040   0.00000  Uiso   1.00
H658   H     0.58572   0.71432   0.42963   0.00000  Uiso   1.00
H659   H     0.36418   0.81112   0.39272   0.00000  Uiso   1.00
H660   H     0.34146   0.85115   0.37790   0.00000  Uiso   1.00
H661   H     0.66439   0.84664   0.42951   0.00000  Uiso   1.00
H662   H     0.42153   0.80142   0.06606   0.00000  Uiso   1.00
H663   H     0.48804   0.75538   0.40741   0.00000  Uiso   1.00
H664   H     0.51708   0.72164   0.42471   0.00000  Uiso   1.00
H665   H     0.53498   0.73480   0.37462   0.00000  Uiso   1.00
H666   H     0.36956   0.85506   0.47569   0.00000  Uiso   1.00
H667   H     0.52210   0.84088   0.40443   0.00000  Uiso   1.00
H668   H     0.37729   0.82580   0.03220   0.00000  Uiso   1.00
H669   H     0.34997   0.85368   0.21208   0.00000  Uiso   1.00
H670   H     0.35299   0.78787   0.32332   0.00000  Uiso   1.00
H671   H     0.66346   0.75192   0.28858   0.00000  Uiso   1.00
H672   H     0.63094   0.76660   0.33745   0.00000  Uiso   1.00
O673   O     0.50000   0.83333   0.25000   0.00000  Uiso   1.00
O674   O     0.49027   0.79060   0.16625   0.00000  Uiso   1.00
O675   O     0.46020   0.87313   0.33749   0.00000  Uiso   1.00
O676   O     0.54421   0.84159   0.15877   0.00000  Uiso   1.00
O677   O     0.50532   0.82802   0.33749   0.00000  Uiso   1.00
O678   O     0.64462   0.81221   0.29943   0.00000  Uiso   1.00
O679   O     0.53949   0.67066   0.20110   0.00000  Uiso   1.00
O680   O     0.46605   0.83017   0.10376   0.00000  Uiso   1.00
O681   O     0.60300   0.78856   0.09793   0.00000  Uiso   1.00
O682   O     0.60394   0.77275   0.45537   0.00000  Uiso   1.00
O683   O     0.39251   0.87282   0.40062   0.00000  Uiso   1.00
O684   O     0.51182   0.74768   0.27821   0.00000  Uiso   1.00
O685   O     0.54742   0.78258   0.41525   0.00000  Uiso   1.00
O686   O     0.47914   0.92803   0.26767   0.00000  Uiso   1.00
O687   O     0.40785   0.79917   0.23607   0.00000  Uiso   1.00
O688   O     0.60119   0.85845   0.21806   0.00000  Uiso   1.00
O689   O     0.40323   0.85627   0.27820   0.00000  Uiso   1.00
O690   O     0.58773   0.81944   0.26768   0.00000  Uiso   1.00
O691   O     0.47133   0.73570   0.23607   0.00000  Uiso   1.00
O692   O     0.53771   0.92193   0.21806   0.00000  Uiso   1.00
Zn693  Zn    0.52577   0.80756   0.28278   0.00000  Uiso   1.00
Zn694  Zn    0.46792   0.79044   0.22258   0.00000  Uiso   1.00
Zn695  Zn    0.54500   0.86331   0.21188   0.00000  Uiso   1.00
Zn696  Zn    0.46131   0.87202   0.28277   0.00000  Uiso   1.00
C697   C     0.71945   0.82698   0.25849   0.00000  Uiso   1.00
C698   C     0.86909   0.79252   0.45585   0.00000  Uiso   1.00
C699   C     0.89683   0.78370   0.47654   0.00000  Uiso   1.00
C700   C     0.94770   0.84008   0.24140   0.00000  Uiso   1.00
C701   C     0.88554   0.79040   0.01809   0.00000  Uiso   1.00
C702   C     0.84402   0.80190   0.03963   0.00000  Uiso   1.00
C703   C     0.91567   0.78600   0.03822   0.00000  Uiso   1.00
C704   C     0.90527   0.79157   0.07929   0.00000  Uiso   1.00
C705   C     0.83516   0.81102   0.08149   0.00000  Uiso   1.00
C706   C     0.99345   0.84059   0.23755   0.00000  Uiso   1.00
C707   C     0.67352   0.82402   0.26407   0.00000  Uiso   1.00
C708   C     0.75165   0.85830   0.41975   0.00000  Uiso   1.00
C709   C     0.84436   0.98775   0.23438   0.00000  Uiso   1.00
C710   C     0.81975   0.67896   0.26254   0.00000  Uiso   1.00
C711   C     0.82274   0.72285   0.25911   0.00000  Uiso   1.00
C712   C     0.84302   0.94414   0.24070   0.00000  Uiso   1.00
C713   C     0.85487   0.81227   0.14393   0.00000  Uiso   1.00
C714   C     0.81147   0.85365   0.35639   0.00000  Uiso   1.00
C715   C     0.79516   0.85362   0.39972   0.00000  Uiso   1.00
C716   C     0.86490   0.80379   0.10092   0.00000  Uiso   1.00
C717   C     0.73569   0.84979   0.45951   0.00000  Uiso   1.00
C718   C     0.99077   0.77817   0.31236   0.00000  Uiso   1.00
C719   C     0.82158   0.84070   0.41961   0.00000  Uiso   1.00
C720   C     0.85683   0.98969   0.16821   0.00000  Uiso   1.00
C721   C     0.80938   0.87380   0.10300   0.00000  Uiso   1.00
C722   C     0.93189   0.74739   0.10796   0.00000  Uiso   1.00
C723   C     0.93630   0.72893   0.45159   0.00000  Uiso   1.00
C724   C     0.68923   0.84382   0.40057   0.00000  Uiso   1.00
C725   C     0.85379   0.74714   0.40562   0.00000  Uiso   1.00
C726   C     0.80467   0.82739   0.45772   0.00000  Uiso   1.00
C727   C     0.76147   0.83363   0.47813   0.00000  Uiso   1.00
C728   C     0.82992   0.80949   0.47669   0.00000  Uiso   1.00
C729   C     0.81467   0.80742   0.01824   0.00000  Uiso   1.00
C730   C     0.77040   0.81032   0.03665   0.00000  Uiso   1.00
C731   C     0.74426   0.82318   0.01684   0.00000  Uiso   1.00
H732   H     0.94774   0.77821   0.02224   0.00000  Uiso   1.00
H733   H     0.82570   0.66864   0.17163   0.00000  Uiso   1.00
H734   H     0.85307   0.95504   0.16302   0.00000  Uiso   1.00
H735   H     0.88031   0.66800   0.14138   0.00000  Uiso   1.00
H736   H     0.81748   0.88304   0.07240   0.00000  Uiso   1.00
H737   H     0.83620   0.88570   0.11641   0.00000  Uiso   1.00
H738   H     0.78063   0.88904   0.12079   0.00000  Uiso   1.00
H739   H     0.93594   0.72439   0.08129   0.00000  Uiso   1.00
H740   H     0.90030   0.73989   0.12980   0.00000  Uiso   1.00
H741   H     0.95747   0.74455   0.12201   0.00000  Uiso   1.00
H742   H     0.92174   0.71532   0.48032   0.00000  Uiso   1.00
H743   H     0.79942   0.66739   0.28996   0.00000  Uiso   1.00
H744   H     0.96993   0.72093   0.44040   0.00000  Uiso   1.00
H745   H     0.91906   0.71432   0.42963   0.00000  Uiso   1.00
H746   H     0.69752   0.81112   0.39272   0.00000  Uiso   1.00
H747   H     0.67480   0.85115   0.37790   0.00000  Uiso   1.00
H748   H     0.99772   0.84664   0.42951   0.00000  Uiso   1.00
H749   H     0.75486   0.80142   0.06606   0.00000  Uiso   1.00
H750   H     0.82138   0.75538   0.40741   0.00000  Uiso   1.00
H751   H     0.85041   0.72164   0.42471   0.00000  Uiso   1.00
H752   H     0.86832   0.73480   0.37462   0.00000  Uiso   1.00
H753   H     0.70290   0.85506   0.47569   0.00000  Uiso   1.00
H754   H     0.85543   0.84088   0.40443   0.00000  Uiso   1.00
H755   H     0.71062   0.82580   0.03220   0.00000  Uiso   1.00
H756   H     0.68331   0.85368   0.21208   0.00000  Uiso   1.00
H757   H     0.68633   0.78787   0.32332   0.00000  Uiso   1.00
H758   H     0.99679   0.75192   0.28858   0.00000  Uiso   1.00
H759   H     0.96427   0.76660   0.33745   0.00000  Uiso   1.00
O760   O     0.83333   0.83333   0.25000   0.00000  Uiso   1.00
O761   O     0.82360   0.79060   0.16625   0.00000  Uiso   1.00
O762   O     0.79354   0.87313   0.33749   0.00000  Uiso   1.00
O763   O     0.87755   0.84159   0.15877   0.00000  Uiso   1.00
O764   O     0.83865   0.82802   0.33749   0.00000  Uiso   1.00
O765   O     0.97796   0.81221   0.29943   0.00000  Uiso   1.00
O766   O     0.87282   0.67066   0.20110   0.00000  Uiso   1.00
O767   O     0.79938   0.83017   0.10376   0.00000  Uiso   1.00
O768   O     0.93634   0.78856   0.09793   0.00000  Uiso   1.00
O769   O     0.93727   0.77275   0.45537   0.00000  Uiso   1.00
O770   O     0.72585   0.87282   0.40062   0.00000  Uiso   1.00
O771   O     0.84515   0.74768   0.27821   0.00000  Uiso   1.00
O772   O     0.88075   0.78258   0.41525   0.00000  Uiso   1.00
O773   O     0.81247   0.92803   0.26767   0.00000  Uiso   1.00
O774   O     0.74119   0.79917   0.23607   0.00000  Uiso   1.00
O775   O     0.93452   0.85845   0.21806   0.00000  Uiso   1.00
O776   O     0.73656   0.85627   0.27820   0.00000  Uiso   1.00
O777   O     0.92106   0.81944   0.26768   0.00000  Uiso   1.00
O778   O     0.80467   0.73570   0.23607   0.00000  Uiso   1.00
O779   O     0.87104   0.92193   0.21806   0.00000  Uiso   1.00
Zn780  Zn    0.85910   0.80756   0.28278   0.00000  Uiso   1.00
Zn781  Zn    0.80125   0.79044   0.22258   0.00000  Uiso   1.00
Zn782  Zn    0.87833   0.86331   0.21188   0.00000  Uiso   1.00
Zn783  Zn    0.79465   0.87202   0.28277   0.00000  Uiso   1.00
C784   C     0.05278   0.16031   0.75849   0.00000  Uiso   1.00
C785   C     0.20243   0.12585   0.95585   0.00000  Uiso   1.00
C786   C     0.23016   0.11703   0.97654   0.00000  Uiso   1.00
C787   C     0.28104   0.17341   0.74140   0.00000  Uiso   1.00
C788   C     0.21887   0.12373   0.51809   0.00000  Uiso   1.00
C789   C     0.17736   0.13523   0.53963   0.00000  Uiso   1.00
C790   C     0.24901   0.11934   0.53822   0.00000  Uiso   1.00
C791   C     0.23861   0.12490   0.57929   0.00000  Uiso   1.00
C792   C     0.16850   0.14436   0.58149   0.00000  Uiso   1.00
C793   C     0.32678   0.17392   0.73755   0.00000  Uiso   1.00
C794   C     0.00686   0.15736   0.76407   0.00000  Uiso   1.00
C795   C     0.08499   0.19163   0.91975   0.00000  Uiso   1.00
C796   C     0.17769   0.32109   0.73438   0.00000  Uiso   1.00
C797   C     0.15309   0.01230   0.76254   0.00000  Uiso   1.00
C798   C     0.15608   0.05618   0.75911   0.00000  Uiso   1.00
C799   C     0.17635   0.27748   0.74070   0.00000  Uiso   1.00
C800   C     0.18821   0.14560   0.64393   0.00000  Uiso   1.00
C801   C     0.14480   0.18698   0.85639   0.00000  Uiso   1.00
C802   C     0.12850   0.18696   0.89972   0.00000  Uiso   1.00
C803   C     0.19824   0.13712   0.60092   0.00000  Uiso   1.00
C804   C     0.06903   0.18312   0.95951   0.00000  Uiso   1.00
C805   C     0.32410   0.11150   0.81236   0.00000  Uiso   1.00
C806   C     0.15491   0.17403   0.91961   0.00000  Uiso   1.00
C807   C     0.19017   0.32302   0.66821   0.00000  Uiso   1.00
C808   C     0.14272   0.20713   0.60300   0.00000  Uiso   1.00
C809   C     0.26522   0.08072   0.60796   0.00000  Uiso   1.00
C810   C     0.26964   0.06226   0.95159   0.00000  Uiso   1.00
C811   C     0.02256   0.17716   0.90057   0.00000  Uiso   1.00
C812   C     0.18712   0.08047   0.90562   0.00000  Uiso   1.00
C813   C     0.13800   0.16072   0.95772   0.00000  Uiso   1.00
C814   C     0.09480   0.16696   0.97813   0.00000  Uiso   1.00
C815   C     0.16325   0.14283   0.97669   0.00000  Uiso   1.00
C816   C     0.14800   0.14076   0.51824   0.00000  Uiso   1.00
C817   C     0.10374   0.14365   0.53665   0.00000  Uiso   1.00
C818   C     0.07759   0.15651   0.51684   0.00000  Uiso   1.00
H819   H     0.28107   0.11154   0.52224   0.00000  Uiso   1.00
H820   H     0.15903   0.00198   0.67163   0.00000  Uiso   1.00
H821   H     0.18640   0.28838   0.66302   0.00000  Uiso   1.00
H822   H     0.21364   0.00133   0.64138   0.00000  Uiso   1.00
H823   H     0.15081   0.21638   0.57240   0.00000  Uiso   1.00
H824   H     0.16953   0.21903   0.61641   0.00000  Uiso   1.00
H825   H     0.11397   0.22237   0.62079   0.00000  Uiso   1.00
H826   H     0.26927   0.05773   0.58129   0.00000  Uiso   1.00
H827   H     0.23363   0.07322   0.62980   0.00000  Uiso   1.00
H828   H     0.29080   0.07789   0.62201   0.00000  Uiso   1.00
H829   H     0.25507   0.04866   0.98032   0.00000  Uiso   1.00
H830   H     0.13275   0.00072   0.78996   0.00000  Uiso   1.00
H831   H     0.30327   0.05426   0.94040   0.00000  Uiso   1.00
H832   H     0.25239   0.04765   0.92963   0.00000  Uiso   1.00
H833   H     0.03085   0.14445   0.89272   0.00000  Uiso   1.00
H834   H     0.00813   0.18448   0.87790   0.00000  Uiso   1.00
H835   H     0.33106   0.17997   0.92951   0.00000  Uiso   1.00
H836   H     0.08820   0.13475   0.56606   0.00000  Uiso   1.00
H837   H     0.15471   0.08871   0.90741   0.00000  Uiso   1.00
H838   H     0.18374   0.05497   0.92471   0.00000  Uiso   1.00
H839   H     0.20165   0.06813   0.87462   0.00000  Uiso   1.00
H840   H     0.03623   0.18839   0.97569   0.00000  Uiso   1.00
H841   H     0.18876   0.17421   0.90443   0.00000  Uiso   1.00
H842   H     0.04396   0.15913   0.53220   0.00000  Uiso   1.00
H843   H     0.01664   0.18701   0.71208   0.00000  Uiso   1.00
H844   H     0.01966   0.12121   0.82332   0.00000  Uiso   1.00
H845   H     0.33012   0.08525   0.78858   0.00000  Uiso   1.00
H846   H     0.29760   0.09994   0.83745   0.00000  Uiso   1.00
O847   O     0.16667   0.16667   0.75000   0.00000  Uiso   1.00
O848   O     0.15693   0.12393   0.66625   0.00000  Uiso   1.00
O849   O     0.12687   0.20646   0.83749   0.00000  Uiso   1.00
O850   O     0.21088   0.17493   0.65877   0.00000  Uiso   1.00
O851   O     0.17198   0.16135   0.83749   0.00000  Uiso   1.00
O852   O     0.31129   0.14554   0.79943   0.00000  Uiso   1.00
O853   O     0.20615   0.00399   0.70110   0.00000  Uiso   1.00
O854   O     0.13271   0.16350   0.60376   0.00000  Uiso   1.00
O855   O     0.26967   0.12189   0.59793   0.00000  Uiso   1.00
O856   O     0.27060   0.10608   0.95537   0.00000  Uiso   1.00
O857   O     0.05918   0.20615   0.90062   0.00000  Uiso   1.00
O858   O     0.17849   0.08101   0.77821   0.00000  Uiso   1.00
O859   O     0.21408   0.11591   0.91525   0.00000  Uiso   1.00
O860   O     0.14581   0.26136   0.76767   0.00000  Uiso   1.00
O861   O     0.07452   0.13251   0.73607   0.00000  Uiso   1.00
O862   O     0.26785   0.19179   0.71806   0.00000  Uiso   1.00
O863   O     0.06990   0.18960   0.77820   0.00000  Uiso   1.00
O864   O     0.25440   0.15277   0.76768   0.00000  Uiso   1.00
O865   O     0.13800   0.06903   0.73607   0.00000  Uiso   1.00
O866   O     0.20437   0.25527   0.71806   0.00000  Uiso   1.00
Zn867  Zn    0.19244   0.14090   0.78278   0.00000  Uiso   1.00
Zn868  Zn    0.13459   0.12378   0.72258   0.00000  Uiso   1.00
Zn869  Zn    0.21166   0.19664   0.71188   0.00000  Uiso   1.00
Zn870  Zn    0.12798   0.20535   0.78277   0.00000  Uiso   1.00
C871   C     0.38611   0.16031   0.75849   0.00000  Uiso   1.00
C872   C     0.53576   0.12585   0.95585   0.00000  Uiso   1.00
C873   C     0.56349   0.11703   0.97654   0.00000  Uiso   1.00
C874   C     0.61437   0.17341   0.74140   0.00000  Uiso   1.00
C875   C     0.55220   0.12373   0.51809   0.00000  Uiso   1.00
C876   C     0.51069   0.13523   0.53963   0.00000  Uiso   1.00
C877   C     0.58234   0.11934   0.53822   0.00000  Uiso   1.00
C878   C     0.57194   0.12490   0.57929   0.00000  Uiso   1.00
C879   C     0.50183   0.14436   0.58149   0.00000  Uiso   1.00
C880   C     0.66012   0.17392   0.73755   0.00000  Uiso   1.00
C881   C     0.34019   0.15736   0.76407   0.00000  Uiso   1.00
C882   C     0.41832   0.19163   0.91975   0.00000  Uiso   1.00
C883   C     0.51103   0.32109   0.73438   0.00000  Uiso   1.00
C884   C     0.48642   0.01230   0.76254   0.00000  Uiso   1.00
C885   C     0.48941   0.05618   0.75911   0.00000  Uiso   1.00
C886   C     0.50969   0.27748   0.74070   0.00000  Uiso   1.00
C887   C     0.52154   0.14560   0.64393   0.00000  Uiso   1.00
C888   C     0.47814   0.18698   0.85639   0.00000  Uiso   1.00
C889   C     0.46183   0.18696   0.89972   0.00000  Uiso   1.00
C890   C     0.53157   0.13712   0.60092   0.00000  Uiso   1.00
C891   C     0.40236   0.18312   0.95951   0.00000  Uiso   1.00
C892   C     0.65744   0.11150   0.81236   0.00000  Uiso   1.00
C893   C     0.48824   0.17403   0.91961   0.00000  Uiso   1.00
C894   C     0.52350   0.32302   0.66821   0.00000  Uiso   1.00
C895   C     0.47605   0.20713   0.60300   0.00000  Uiso   1.00
C896   C     0.59855   0.08072   0.60796   0.00000  Uiso   1.00
C897   C     0.60297   0.06226   0.95159   0.00000  Uiso   1.00
C898   C     0.35590   0.17716   0.90057   0.00000  Uiso   1.00
C899   C     0.52045   0.08047   0.90562   0.00000  Uiso   1.00
C900   C     0.47134   0.16072   0.95772   0.00000  Uiso   1.00
C901   C     0.42814   0.16696   0.97813   0.00000  Uiso   1.00
C902   C     0.49658   0.14283   0.97669   0.00000  Uiso   1.00
C903   C     0.48133   0.14076   0.51824   0.00000  Uiso   1.00
C904   C     0.43707   0.14365   0.53665   0.00000  Uiso   1.00
C905   C     0.41093   0.15651   0.51684   0.00000  Uiso   1.00
H906   H     0.61441   0.11154   0.52224   0.00000  Uiso   1.00
H907   H     0.49237   0.00198   0.67163   0.00000  Uiso   1.00
H908   H     0.51974   0.28838   0.66302   0.00000  Uiso   1.00
H909   H     0.54698   0.00133   0.64138   0.00000  Uiso   1.00
H910   H     0.48415   0.21638   0.57240   0.00000  Uiso   1.00
H911   H     0.50286   0.21903   0.61641   0.00000  Uiso   1.00
H912   H     0.44730   0.22237   0.62079   0.00000  Uiso   1.00
H913   H     0.60261   0.05773   0.58129   0.00000  Uiso   1.00
H914   H     0.56697   0.07322   0.62980   0.00000  Uiso   1.00
H915   H     0.62414   0.07789   0.62201   0.00000  Uiso   1.00
H916   H     0.58840   0.04866   0.98032   0.00000  Uiso   1.00
H917   H     0.46609   0.00072   0.78996   0.00000  Uiso   1.00
H918   H     0.63660   0.05426   0.94040   0.00000  Uiso   1.00
H919   H     0.58572   0.04765   0.92963   0.00000  Uiso   1.00
H920   H     0.36418   0.14445   0.89272   0.00000  Uiso   1.00
H921   H     0.34146   0.18448   0.87790   0.00000  Uiso   1.00
H922   H     0.66439   0.17997   0.92951   0.00000  Uiso   1.00
H923   H     0.42153   0.13475   0.56606   0.00000  Uiso   1.00
H924   H     0.48804   0.08871   0.90741   0.00000  Uiso   1.00
H925   H     0.51708   0.05497   0.92471   0.00000  Uiso   1.00
H926   H     0.53498   0.06813   0.87462   0.00000  Uiso   1.00
H927   H     0.36956   0.18839   0.97569   0.00000  Uiso   1.00
H928   H     0.52210   0.17421   0.90443   0.00000  Uiso   1.00
H929   H     0.37729   0.15913   0.53220   0.00000  Uiso   1.00
H930   H     0.34997   0.18701   0.71208   0.00000  Uiso   1.00
H931   H     0.35299   0.12121   0.82332   0.00000  Uiso   1.00
H932   H     0.66346   0.08525   0.78858   0.00000  Uiso   1.00
H933   H     0.63094   0.09994   0.83745   0.00000  Uiso   1.00
O934   O     0.50000   0.16667   0.75000   0.00000  Uiso   1.00
O935   O     0.49027   0.12393   0.66625   0.00000  Uiso   1.00
O936   O     0.46020   0.20646   0.83749   0.00000  Uiso   1.00
O937   O     0.54421   0.17493   0.65877   0.00000  Uiso   1.00
O938   O     0.50532   0.16135   0.83749   0.00000  Uiso   1.00
O939   O     0.64462   0.14554   0.79943   0.00000  Uiso   1.00
O940   O     0.53949   0.00399   0.70110   0.00000  Uiso   1.00
O941   O     0.46605   0.16350   0.60376   0.00000  Uiso   1.00
O942   O     0.60300   0.12189   0.59793   0.00000  Uiso   1.00
O943   O     0.60394   0.10608   0.95537   0.00000  Uiso   1.00
O944   O     0.39251   0.20615   0.90062   0.00000  Uiso   1.00
O945   O     0.51182   0.08101   0.77821   0.00000  Uiso   1.00
O946   O     0.54742   0.11591   0.91525   0.00000  Uiso   1.00
O947   O     0.47914   0.26136   0.76767   0.00000  Uiso   1.00
O948   O     0.40785   0.13251   0.73607   0.00000  Uiso   1.00
O949   O     0.60119   0.19179   0.71806   0.00000  Uiso   1.00
O950   O     0.40323   0.18960   0.77820   0.00000  Uiso   1.00
O951   O     0.58773   0.15277   0.76768   0.00000  Uiso   1.00
O952   O     0.47133   0.06903   0.73607   0.00000  Uiso   1.00
O953   O     0.53771   0.25527   0.71806   0.00000  Uiso   1.00
Zn954  Zn    0.52577   0.14090   0.78278   0.00000  Uiso   1.00
Zn955  Zn    0.46792   0.12378   0.72258   0.00000  Uiso   1.00
Zn956  Zn    0.54500   0.19664   0.71188   0.00000  Uiso   1.00
Zn957  Zn    0.46131   0.20535   0.78277   0.00000  Uiso   1.00
C958   C     0.71945   0.16031   0.75849   0.00000  Uiso   1.00
C959   C     0.86909   0.12585   0.95585   0.00000  Uiso   1.00
C960   C     0.89683   0.11703   0.97654   0.00000  Uiso   1.00
C961   C     0.94770   0.17341   0.74140   0.00000  Uiso   1.00
C962   C     0.88554   0.12373   0.51809   0.00000  Uiso   1.00
C963   C     0.84402   0.13523   0.53963   0.00000  Uiso   1.00
C964   C     0.91567   0.11934   0.53822   0.00000  Uiso   1.00
C965   C     0.90527   0.12490   0.57929   0.00000  Uiso   1.00
C966   C     0.83516   0.14436   0.58149   0.00000  Uiso   1.00
C967   C     0.99345   0.17392   0.73755   0.00000  Uiso   1.00
C968   C     0.67352   0.15736   0.76407   0.00000  Uiso   1.00
C969   C     0.75165   0.19163   0.91975   0.00000  Uiso   1.00
C970   C     0.84436   0.32109   0.73438   0.00000  Uiso   1.00
C971   C     0.81975   0.01230   0.76254   0.00000  Uiso   1.00
C972   C     0.82274   0.05618   0.75911   0.00000  Uiso   1.00
C973   C     0.84302   0.27748   0.74070   0.00000  Uiso   1.00
C974   C     0.85487   0.14560   0.64393   0.00000  Uiso   1.00
C975   C     0.81147   0.18698   0.85639   0.00000  Uiso   1.00
C976   C     0.79516   0.18696   0.89972   0.00000  Uiso   1.00
C977   C     0.86490   0.13712   0.60092   0.00000  Uiso   1.00
C978   C     0.73569   0.18312   0.95951   0.00000  Uiso   1.00
C979   C     0.99077   0.11150   0.81236   0.00000  Uiso   1.00
C980   C     0.82158   0.17403   0.91961   0.00000  Uiso   1.00
C981   C     0.85683   0.32302   0.66821   0.00000  Uiso   1.00
C982   C     0.80938   0.20713   0.60300   0.00000  Uiso   1.00
C983   C     0.93189   0.08072   0.60796   0.00000  Uiso   1.00
C984   C     0.93630   0.06226   0.95159   0.00000  Uiso   1.00
C985   C     0.68923   0.17716   0.90057   0.00000  Uiso   1.00
C986   C     0.85379   0.08047   0.90562   0.00000  Uiso   1.00
C987   C     0.80467   0.16072   0.95772   0.00000  Uiso   1.00
C988   C     0.76147   0.16696   0.97813   0.00000  Uiso   1.00
C989   C     0.82992   0.14283   0.97669   0.00000  Uiso   1.00
C990   C     0.81467   0.14076   0.51824   0.00000  Uiso   1.00
C991   C     0.77040   0.14365   0.53665   0.00000  Uiso   1.00
C992   C     0.74426   0.15651   0.51684   0.00000  Uiso   1.00
H993   H     0.94774   0.11154   0.52224   0.00000  Uiso   1.00
H994   H     0.82570   0.00198   0.67163   0.00000  Uiso   1.00
H995   H     0.85307   0.28838   0.66302   0.00000  Uiso   1.00
H996   H     0.88031   0.00133   0.64138   0.00000  Uiso   1.00
H997   H     0.81748   0.21638   0.57240   0.00000  Uiso   1.00
H998   H     0.83620   0.21903   0.61641   0.00000  Uiso   1.00
H999   H     0.78063   0.22237   0.62079   0.00000  Uiso   1.00
H1000  H     0.93594   0.05773   0.58129   0.00000  Uiso   1.00
H1001  H     0.90030   0.07322   0.62980   0.00000  Uiso   1.00
H1002  H     0.95747   0.07789   0.62201   0.00000  Uiso   1.00
H1003  H     0.92174   0.04866   0.98032   0.00000  Uiso   1.00
H1004  H     0.79942   0.00072   0.78996   0.00000  Uiso   1.00
H1005  H     0.96993   0.05426   0.94040   0.00000  Uiso   1.00
H1006  H     0.91906   0.04765   0.92963   0.00000  Uiso   1.00
H1007  H     0.69752   0.14445   0.89272   0.00000  Uiso   1.00
H1008  H     0.67480   0.18448   0.87790   0.00000  Uiso   1.00
H1009  H     0.99772   0.17997   0.92951   0.00000  Uiso   1.00
H1010  H     0.75486   0.13475   0.56606   0.00000  Uiso   1.00
H1011  H     0.82138   0.08871   0.90741   0.00000  Uiso   1.00
H1012  H     0.85041   0.05497   0.92471   0.00000  Uiso   1.00
H1013  H     0.86832   0.06813   0.87462   0.00000  Uiso   1.00
H1014  H     0.70290   0.18839   0.97569   0.00000  Uiso   1.00
H1015  H     0.85543   0.17421   0.90443   0.00000  Uiso   1.00
H1016  H     0.71062   0.15913   0.53220   0.00000  Uiso   1.00
H1017  H     0.68331   0.18701   0.71208   0.00000  Uiso   1.00
H1018  H     0.68633   0.12121   0.82332   0.00000  Uiso   1.00
H1019  H     0.99679   0.08525   0.78858   0.00000  Uiso   1.00
H1020  H     0.96427   0.09994   0.83745   0.00000  Uiso   1.00
O1021  O     0.83333   0.16667   0.75000   0.00000  Uiso   1.00
O1022  O     0.82360   0.12393   0.66625   0.00000  Uiso   1.00
O1023  O     0.79354   0.20646   0.83749   0.00000  Uiso   1.00
O1024  O     0.87755   0.17493   0.65877   0.00000  Uiso   1.00
O1025  O     0.83865   0.16135   0.83749   0.00000  Uiso   1.00
O1026  O     0.97796   0.14554   0.79943   0.00000  Uiso   1.00
O1027  O     0.87282   0.00399   0.70110   0.00000  Uiso   1.00
O1028  O     0.79938   0.16350   0.60376   0.00000  Uiso   1.00
O1029  O     0.93634   0.12189   0.59793   0.00000  Uiso   1.00
O1030  O     0.93727   0.10608   0.95537   0.00000  Uiso   1.00
O1031  O     0.72585   0.20615   0.90062   0.00000  Uiso   1.00
O1032  O     0.84515   0.08101   0.77821   0.00000  Uiso   1.00
O1033  O     0.88075   0.11591   0.91525   0.00000  Uiso   1.00
O1034  O     0.81247   0.26136   0.76767   0.00000  Uiso   1.00
O1035  O     0.74119   0.13251   0.73607   0.00000  Uiso   1.00
O1036  O     0.93452   0.19179   0.71806   0.00000  Uiso   1.00
O1037  O     0.73656   0.18960   0.77820   0.00000  Uiso   1.00
O1038  O     0.92106   0.15277   0.76768   0.00000  Uiso   1.00
O1039  O     0.80467   0.06903   0.73607   0.00000  Uiso   1.00
O1040  O     0.87104   0.25527   0.71806   0.00000  Uiso   1.00
Zn1041 Zn    0.85910   0.14090   0.78278   0.00000  Uiso   1.00
Zn1042 Zn    0.80125   0.12378   0.72258   0.00000  Uiso   1.00
Zn1043 Zn    0.87833   0.19664   0.71188   0.00000  Uiso   1.00
Zn1044 Zn    0.79465   0.20535   0.78277   0.00000  Uiso   1.00
C1045  C     0.05278   0.49365   0.75849   0.00000  Uiso   1.00
C1046  C     0.20243   0.45919   0.95585   0.00000  Uiso   1.00
C1047  C     0.23016   0.45037   0.97654   0.00000  Uiso   1.00
C1048  C     0.28104   0.50675   0.74140   0.00000  Uiso   1.00
C1049  C     0.21887   0.45707   0.51809   0.00000  Uiso   1.00
C1050  C     0.17736   0.46856   0.53963   0.00000  Uiso   1.00
C1051  C     0.24901   0.45267   0.53822   0.00000  Uiso   1.00
C1052  C     0.23861   0.45824   0.57929   0.00000  Uiso   1.00
C1053  C     0.16850   0.47769   0.58149   0.00000  Uiso   1.00
C1054  C     0.32678   0.50726   0.73755   0.00000  Uiso   1.00
C1055  C     0.00686   0.49069   0.76407   0.00000  Uiso   1.00
C1056  C     0.08499   0.52496   0.91975   0.00000  Uiso   1.00
C1057  C     0.17769   0.65442   0.73438   0.00000  Uiso   1.00
C1058  C     0.15309   0.34563   0.76254   0.00000  Uiso   1.00
C1059  C     0.15608   0.38951   0.75911   0.00000  Uiso   1.00
C1060  C     0.17635   0.61081   0.74070   0.00000  Uiso   1.00
C1061  C     0.18821   0.47893   0.64393   0.00000  Uiso   1.00
C1062  C     0.14480   0.52031   0.85639   0.00000  Uiso   1.00
C1063  C     0.12850   0.52029   0.89972   0.00000  Uiso   1.00
C1064  C     0.19824   0.47045   0.60092   0.00000  Uiso   1.00
C1065  C     0.06903   0.51645   0.95951   0.00000  Uiso   1.00
C1066  C     0.32410   0.44484   0.81236   0.00000  Uiso   1.00
C1067  C     0.15491   0.50737   0.91961   0.00000  Uiso   1.00
C1068  C     0.19017   0.65635   0.66821   0.00000  Uiso   1.00
C1069  C     0.14272   0.54046   0.60300   0.00000  Uiso   1.00
C1070  C     0.26522   0.41406   0.60796   0.00000  Uiso   1.00
C1071  C     0.26964   0.39559   0.95159   0.00000  Uiso   1.00
C1072  C     0.02256   0.51049   0.90057   0.00000  Uiso   1.00
C1073  C     0.18712   0.41380   0.90562   0.00000  Uiso   1.00
C1074  C     0.13800   0.49405   0.95772   0.00000  Uiso   1.00
C1075  C     0.09480   0.50030   0.97813   0.00000  Uiso   1.00
C1076  C     0.16325   0.47616   0.97669   0.00000  Uiso   1.00
C1077  C     0.14800   0.47409   0.51824   0.00000  Uiso   1.00
C1078  C     0.10374   0.47699   0.53665   0.00000  Uiso   1.00
C1079  C     0.07759   0.48985   0.51684   0.00000  Uiso   1.00
H1080  H     0.28107   0.44487   0.52224   0.00000  Uiso   1.00
H1081  H     0.15903   0.33531   0.67163   0.00000  Uiso   1.00
H1082  H     0.18640   0.62171   0.66302   0.00000  Uiso   1.00
H1083  H     0.21364   0.33467   0.64138   0.00000  Uiso   1.00
H1084  H     0.15081   0.54971   0.57240   0.00000  Uiso   1.00
H1085  H     0.16953   0.55237   0.61641   0.00000  Uiso   1.00
H1086  H     0.11397   0.55570   0.62079   0.00000  Uiso   1.00
H1087  H     0.26927   0.39106   0.58129   0.00000  Uiso   1.00
H1088  H     0.23363   0.40655   0.62980   0.00000  Uiso   1.00
H1089  H     0.29080   0.41122   0.62201   0.00000  Uiso   1.00
H1090  H     0.25507   0.38199   0.98032   0.00000  Uiso   1.00
H1091  H     0.13275   0.33406   0.78996   0.00000  Uiso   1.00
H1092  H     0.30327   0.38760   0.94040   0.00000  Uiso   1.00
H1093  H     0.25239   0.38099   0.92963   0.00000  Uiso   1.00
H1094  H     0.03085   0.47778   0.89272   0.00000  Uiso   1.00
H1095  H     0.00813   0.51782   0.87790   0.00000  Uiso   1.00
H1096  H     0.33106   0.51330   0.92951   0.00000  Uiso   1.00
H1097  H     0.08820   0.46808   0.56606   0.00000  Uiso   1.00
H1098  H     0.15471   0.42204   0.90741   0.00000  Uiso   1.00
H1099  H     0.18374   0.38831   0.92471   0.00000  Uiso   1.00
H1100  H     0.20165   0.40146   0.87462   0.00000  Uiso   1.00
H1101  H     0.03623   0.52172   0.97569   0.00000  Uiso   1.00
H1102  H     0.18876   0.50755   0.90443   0.00000  Uiso   1.00
H1103  H     0.04396   0.49246   0.53220   0.00000  Uiso   1.00
H1104  H     0.01664   0.52035   0.71208   0.00000  Uiso   1.00
H1105  H     0.01966   0.45454   0.82332   0.00000  Uiso   1.00
H1106  H     0.33012   0.41858   0.78858   0.00000  Uiso   1.00
H1107  H     0.29760   0.43327   0.83745   0.00000  Uiso   1.00
O1108  O     0.16667   0.50000   0.75000   0.00000  Uiso   1.00
O1109  O     0.15693   0.45726   0.66625   0.00000  Uiso   1.00
O1110  O     0.12687   0.53979   0.83749   0.00000  Uiso   1.00
O1111  O     0.21088   0.50826   0.65877   0.00000  Uiso   1.00
O1112  O     0.17198   0.49468   0.83749   0.00000  Uiso   1.00
O1113  O     0.31129   0.47888   0.79943   0.00000  Uiso   1.00
O1114  O     0.20615   0.33733   0.70110   0.00000  Uiso   1.00
O1115  O     0.13271   0.49684   0.60376   0.00000  Uiso   1.00
O1116  O     0.26967   0.45523   0.59793   0.00000  Uiso   1.00
O1117  O     0.27060   0.43942   0.95537   0.00000  Uiso   1.00
O1118  O     0.05918   0.53948   0.90062   0.00000  Uiso   1.00
O1119  O     0.17849   0.41434   0.77821   0.00000  Uiso   1.00
O1120  O     0.21408   0.44924   0.91525   0.00000  Uiso   1.00
O1121  O     0.14581   0.59469   0.76767   0.00000  Uiso   1.00
O1122  O     0.07452   0.46584   0.73607   0.00000  Uiso   1.00
O1123  O     0.26785   0.52512   0.71806   0.00000  Uiso   1.00
O1124  O     0.06990   0.52293   0.77820   0.00000  Uiso   1.00
O1125  O     0.25440   0.48610   0.76768   0.00000  Uiso   1.00
O1126  O     0.13800   0.40236   0.73607   0.00000  Uiso   1.00
O1127  O     0.20437   0.58860   0.71806   0.00000  Uiso   1.00
Zn1128 Zn    0.19244   0.47423   0.78278   0.00000  Uiso   1.00
Zn1129 Zn    0.13459   0.45711   0.72258   0.00000  Uiso   1.00
Zn1130 Zn    0.21166   0.52997   0.71188   0.00000  Uiso   1.00
Zn1131 Zn    0.12798   0.53868   0.78277   0.00000  Uiso   1.00
C1132  C     0.38611   0.49365   0.75849   0.00000  Uiso   1.00
C1133  C     0.53576   0.45919   0.95585   0.00000  Uiso   1.00
C1134  C     0.56349   0.45037   0.97654   0.00000  Uiso   1.00
C1135  C     0.61437   0.50675   0.74140   0.00000  Uiso   1.00
C1136  C     0.55220   0.45707   0.51809   0.00000  Uiso   1.00
C1137  C     0.51069   0.46856   0.53963   0.00000  Uiso   1.00
C1138  C     0.58234   0.45267   0.53822   0.00000  Uiso   1.00
C1139  C     0.57194   0.45824   0.57929   0.00000  Uiso   1.00
C1140  C     0.50183   0.47769   0.58149   0.00000  Uiso   1.00
C1141  C     0.66012   0.50726   0.73755   0.00000  Uiso   1.00
C1142  C     0.34019   0.49069   0.76407   0.00000  Uiso   1.00
C1143  C     0.41832   0.52496   0.91975   0.00000  Uiso   1.00
C1144  C     0.51103   0.65442   0.73438   0.00000  Uiso   1.00
C1145  C     0.48642   0.34563   0.76254   0.00000  Uiso   1.00
C1146  C     0.48941   0.38951   0.75911   0.00000  Uiso   1.00
C1147  C     0.50969   0.61081   0.74070   0.00000  Uiso   1.00
C1148  C     0.52154   0.47893   0.64393   0.00000  Uiso   1.00
C1149  C     0.47814   0.52031   0.85639   0.00000  Uiso   1.00
C1150  C     0.46183   0.52029   0.89972   0.00000  Uiso   1.00
C1151  C     0.53157   0.47045   0.60092   0.00000  Uiso   1.00
C1152  C     0.40236   0.51645   0.95951   0.00000  Uiso   1.00
C1153  C     0.65744   0.44484   0.81236   0.00000  Uiso   1.00
C1154  C     0.48824   0.50737   0.91961   0.00000  Uiso   1.00
C1155  C     0.52350   0.65635   0.66821   0.00000  Uiso   1.00
C1156  C     0.47605   0.54046   0.60300   0.00000  Uiso   1.00
C1157  C     0.59855   0.41406   0.60796   0.00000  Uiso   1.00
C1158  C     0.60297   0.39559   0.95159   0.00000  Uiso   1.00
C1159  C     0.35590   0.51049   0.90057   0.00000  Uiso   1.00
C1160  C     0.52045   0.41380   0.90562   0.00000  Uiso   1.00
C1161  C     0.47134   0.49405   0.95772   0.00000  Uiso   1.00
C1162  C     0.42814   0.50030   0.97813   0.00000  Uiso   1.00
C1163  C     0.49658   0.47616   0.97669   0.00000  Uiso   1.00
C1164  C     0.48133   0.47409   0.51824   0.00000  Uiso   1.00
C1165  C     0.43707   0.47699   0.53665   0.00000  Uiso   1.00
C1166  C     0.41093   0.48985   0.51684   0.00000  Uiso   1.00
H1167  H     0.61441   0.44487   0.52224   0.00000  Uiso   1.00
H1168  H     0.49237   0.33531   0.67163   0.00000  Uiso   1.00
H1169  H     0.51974   0.62171   0.66302   0.00000  Uiso   1.00
H1170  H     0.54698   0.33467   0.64138   0.00000  Uiso   1.00
H1171  H     0.48415   0.54971   0.57240   0.00000  Uiso   1.00
H1172  H     0.50286   0.55237   0.61641   0.00000  Uiso   1.00
H1173  H     0.44730   0.55570   0.62079   0.00000  Uiso   1.00
H1174  H     0.60261   0.39106   0.58129   0.00000  Uiso   1.00
H1175  H     0.56697   0.40655   0.62980   0.00000  Uiso   1.00
H1176  H     0.62414   0.41122   0.62201   0.00000  Uiso   1.00
H1177  H     0.58840   0.38199   0.98032   0.00000  Uiso   1.00
H1178  H     0.46609   0.33406   0.78996   0.00000  Uiso   1.00
H1179  H     0.63660   0.38760   0.94040   0.00000  Uiso   1.00
H1180  H     0.58572   0.38099   0.92963   0.00000  Uiso   1.00
H1181  H     0.36418   0.47778   0.89272   0.00000  Uiso   1.00
H1182  H     0.34146   0.51782   0.87790   0.00000  Uiso   1.00
H1183  H     0.66439   0.51330   0.92951   0.00000  Uiso   1.00
H1184  H     0.42153   0.46808   0.56606   0.00000  Uiso   1.00
H1185  H     0.48804   0.42204   0.90741   0.00000  Uiso   1.00
H1186  H     0.51708   0.38831   0.92471   0.00000  Uiso   1.00
H1187  H     0.53498   0.40146   0.87462   0.00000  Uiso   1.00
H1188  H     0.36956   0.52172   0.97569   0.00000  Uiso   1.00
H1189  H     0.52210   0.50755   0.90443   0.00000  Uiso   1.00
H1190  H     0.37729   0.49246   0.53220   0.00000  Uiso   1.00
H1191  H     0.34997   0.52035   0.71208   0.00000  Uiso   1.00
H1192  H     0.35299   0.45454   0.82332   0.00000  Uiso   1.00
H1193  H     0.66346   0.41858   0.78858   0.00000  Uiso   1.00
H1194  H     0.63094   0.43327   0.83745   0.00000  Uiso   1.00
O1195  O     0.50000   0.50000   0.75000   0.00000  Uiso   1.00
O1196  O     0.49027   0.45726   0.66625   0.00000  Uiso   1.00
O1197  O     0.46020   0.53979   0.83749   0.00000  Uiso   1.00
O1198  O     0.54421   0.50826   0.65877   0.00000  Uiso   1.00
O1199  O     0.50532   0.49468   0.83749   0.00000  Uiso   1.00
O1200  O     0.64462   0.47888   0.79943   0.00000  Uiso   1.00
O1201  O     0.53949   0.33733   0.70110   0.00000  Uiso   1.00
O1202  O     0.46605   0.49684   0.60376   0.00000  Uiso   1.00
O1203  O     0.60300   0.45523   0.59793   0.00000  Uiso   1.00
O1204  O     0.60394   0.43942   0.95537   0.00000  Uiso   1.00
O1205  O     0.39251   0.53948   0.90062   0.00000  Uiso   1.00
O1206  O     0.51182   0.41434   0.77821   0.00000  Uiso   1.00
O1207  O     0.54742   0.44924   0.91525   0.00000  Uiso   1.00
O1208  O     0.47914   0.59469   0.76767   0.00000  Uiso   1.00
O1209  O     0.40785   0.46584   0.73607   0.00000  Uiso   1.00
O1210  O     0.60119   0.52512   0.71806   0.00000  Uiso   1.00
O1211  O     0.40323   0.52293   0.77820   0.00000  Uiso   1.00
O1212  O     0.58773   0.48610   0.76768   0.00000  Uiso   1.00
O1213  O     0.47133   0.40236   0.73607   0.00000  Uiso   1.00
O1214  O     0.53771   0.58860   0.71806   0.00000  Uiso   1.00
Zn1215 Zn    0.52577   0.47423   0.78278   0.00000  Uiso   1.00
Zn1216 Zn    0.46792   0.45711   0.72258   0.00000  Uiso   1.00
Zn1217 Zn    0.54500   0.52997   0.71188   0.00000  Uiso   1.00
Zn1218 Zn    0.46131   0.53868   0.78277   0.00000  Uiso   1.00
C1219  C     0.71945   0.49365   0.75849   0.00000  Uiso   1.00
C1220  C     0.86909   0.45919   0.95585   0.00000  Uiso   1.00
C1221  C     0.89683   0.45037   0.97654   0.00000  Uiso   1.00
C1222  C     0.94770   0.50675   0.74140   0.00000  Uiso   1.00
C1223  C     0.88554   0.45707   0.51809   0.00000  Uiso   1.00
C1224  C     0.84402   0.46856   0.53963   0.00000  Uiso   1.00
C1225  C     0.91567   0.45267   0.53822   0.00000  Uiso   1.00
C1226  C     0.90527   0.45824   0.57929   0.00000  Uiso   1.00
C1227  C     0.83516   0.47769   0.58149   0.00000  Uiso   1.00
C1228  C     0.99345   0.50726   0.73755   0.00000  Uiso   1.00
C1229  C     0.67352   0.49069   0.76407   0.00000  Uiso   1.00
C1230  C     0.75165   0.52496   0.91975   0.00000  Uiso   1.00
C1231  C     0.84436   0.65442   0.73438   0.00000  Uiso   1.00
C1232  C     0.81975   0.34563   0.76254   0.00000  Uiso   1.00
C1233  C     0.82274   0.38951   0.75911   0.00000  Uiso   1.00
C1234  C     0.84302   0.61081   0.74070   0.00000  Uiso   1.00
C1235  C     0.85487   0.47893   0.64393   0.00000  Uiso   1.00
C1236  C     0.81147   0.52031   0.85639   0.00000  Uiso   1.00
C1237  C     0.79516   0.52029   0.89972   0.00000  Uiso   1.00
C1238  C     0.86490   0.47045   0.60092   0.00000  Uiso   1.00
C1239  C     0.73569   0.51645   0.95951   0.00000  Uiso   1.00
C1240  C     0.99077   0.44484   0.81236   0.00000  Uiso   1.00
C1241  C     0.82158   0.50737   0.91961   0.00000  Uiso   1.00
C1242  C     0.85683   0.65635   0.66821   0.00000  Uiso   1.00
C1243  C     0.80938   0.54046   0.60300   0.00000  Uiso   1.00
C1244  C     0.93189   0.41406   0.60796   0.00000  Uiso   1.00
C1245  C     0.93630   0.39559   0.95159   0.00000  Uiso   1.00
C1246  C     0.68923   0.51049   0.90057   0.00000  Uiso   1.00
C1247  C     0.85379   0.41380   0.90562   0.00000  Uiso   1.00
C1248  C     0.80467   0.49405   0.95772   0.00000  Uiso   1.00
C1249  C     0.76147   0.50030   0.97813   0.00000  Uiso   1.00
C1250  C     0.82992   0.47616   0.97669   0.00000  Uiso   1.00
C1251  C     0.81467   0.47409   0.51824   0.00000  Uiso   1.00
C1252  C     0.77040   0.47699   0.53665   0.00000  Uiso   1.00
C1253  C     0.74426   0.48985   0.51684   0.00000  Uiso   1.00
H1254  H     0.94774   0.44487   0.52224   0.00000  Uiso   1.00
H1255  H     0.82570   0.33531   0.67163   0.00000  Uiso   1.00
H1256  H     0.85307   0.62171   0.66302   0.00000  Uiso   1.00
H1257  H     0.88031   0.33467   0.64138   0.00000  Uiso   1.00
H1258  H     0.81748   0.54971   0.57240   0.00000  Uiso   1.00
H1259  H     0.83620   0.55237   0.61641   0.00000  Uiso   1.00
H1260  H     0.78063   0.55570   0.62079   0.00000  Uiso   1.00
H1261  H     0.93594   0.39106   0.58129   0.00000  Uiso   1.00
H1262  H     0.90030   0.40655   0.62980   0.00000  Uiso   1.00
H1263  H     0.95747   0.41122   0.62201   0.00000  Uiso   1.00
H1264  H     0.92174   0.38199   0.98032   0.00000  Uiso   1.00
H1265  H     0.79942   0.33406   0.78996   0.00000  Uiso   1.00
H1266  H     0.96993   0.38760   0.94040   0.00000  Uiso   1.00
H1267  H     0.91906   0.38099   0.92963   0.00000  Uiso   1.00
H1268  H     0.69752   0.47778   0.89272   0.00000  Uiso   1.00
H1269  H     0.67480   0.51782   0.87790   0.00000  Uiso   1.00
H1270  H     0.99772   0.51330   0.92951   0.00000  Uiso   1.00
H1271  H     0.75486   0.46808   0.56606   0.00000  Uiso   1.00
H1272  H     0.82138   0.42204   0.90741   0.00000  Uiso   1.00
H1273  H     0.85041   0.38831   0.92471   0.00000  Uiso   1.00
H1274  H     0.86832   0.40146   0.87462   0.00000  Uiso   1.00
H1275  H     0.70290   0.52172   0.97569   0.00000  Uiso   1.00
H1276  H     0.85543   0.50755   0.90443   0.00000  Uiso   1.00
H1277  H     0.71062   0.49246   0.53220   0.00000  Uiso   1.00
H1278  H     0.68331   0.52035   0.71208   0.00000  Uiso   1.00
H1279  H     0.68633   0.45454   0.82332   0.00000  Uiso   1.00
H1280  H     0.99679   0.41858   0.78858   0.00000  Uiso   1.00
H1281  H     0.96427   0.43327   0.83745   0.00000  Uiso   1.00
O1282  O     0.83333   0.50000   0.75000   0.00000  Uiso   1.00
O1283  O     0.82360   0.45726   0.66625   0.00000  Uiso   1.00
O1284  O     0.79354   0.53979   0.83749   0.00000  Uiso   1.00
O1285  O     0.87755   0.50826   0.65877   0.00000  Uiso   1.00
O1286  O     0.83865   0.49468   0.83749   0.00000  Uiso   1.00
O1287  O     0.97796   0.47888   0.79943   0.00000  Uiso   1.00
O1288  O     0.87282   0.33733   0.70110   0.00000  Uiso   1.00
O1289  O     0.79938   0.49684   0.60376   0.00000  Uiso   1.00
O1290  O     0.93634   0.45523   0.59793   0.00000  Uiso   1.00
O1291  O     0.93727   0.43942   0.95537   0.00000  Uiso   1.00
O1292  O     0.72585   0.53948   0.90062   0.00000  Uiso   1.00
O1293  O     0.84515   0.41434   0.77821   0.00000  Uiso   1.00
O1294  O     0.88075   0.44924   0.91525   0.00000  Uiso   1.00
O1295  O     0.81247   0.59469   0.76767   0.00000  Uiso   1.00
O1296  O     0.74119   0.46584   0.73607   0.00000  Uiso   1.00
O1297  O     0.93452   0.52512   0.71806   0.00000  Uiso   1.00
O1298  O     0.73656   0.52293   0.77820   0.00000  Uiso   1.00
O1299  O     0.92106   0.48610   0.76768   0.00000  Uiso   1.00
O1300  O     0.80467   0.40236   0.73607   0.00000  Uiso   1.00
O1301  O     0.87104   0.58860   0.71806   0.00000  Uiso   1.00
Zn1302 Zn    0.85910   0.47423   0.78278   0.00000  Uiso   1.00
Zn1303 Zn    0.80125   0.45711   0.72258   0.00000  Uiso   1.00
Zn1304 Zn    0.87833   0.52997   0.71188   0.00000  Uiso   1.00
Zn1305 Zn    0.79465   0.53868   0.78277   0.00000  Uiso   1.00
C1306  C     0.05278   0.82698   0.75849   0.00000  Uiso   1.00
C1307  C     0.20243   0.79252   0.95585   0.00000  Uiso   1.00
C1308  C     0.23016   0.78370   0.97654   0.00000  Uiso   1.00
C1309  C     0.28104   0.84008   0.74140   0.00000  Uiso   1.00
C1310  C     0.21887   0.79040   0.51809   0.00000  Uiso   1.00
C1311  C     0.17736   0.80190   0.53963   0.00000  Uiso   1.00
C1312  C     0.24901   0.78600   0.53822   0.00000  Uiso   1.00
C1313  C     0.23861   0.79157   0.57929   0.00000  Uiso   1.00
C1314  C     0.16850   0.81102   0.58149   0.00000  Uiso   1.00
C1315  C     0.32678   0.84059   0.73755   0.00000  Uiso   1.00
C1316  C     0.00686   0.82402   0.76407   0.00000  Uiso   1.00
C1317  C     0.08499   0.85830   0.91975   0.00000  Uiso   1.00
C1318  C     0.17769   0.98775   0.73438   0.00000  Uiso   1.00
C1319  C     0.15309   0.67896   0.76254   0.00000  Uiso   1.00
C1320  C     0.15608   0.72285   0.75911   0.00000  Uiso   1.00
C1321  C     0.17635   0.94414   0.74070   0.00000  Uiso   1.00
C1322  C     0.18821   0.81227   0.64393   0.00000  Uiso   1.00
C1323  C     0.14480   0.85365   0.85639   0.00000  Uiso   1.00
C1324  C     0.12850   0.85362   0.89972   0.00000  Uiso   1.00
C1325  C     0.19824   0.80379   0.60092   0.00000  Uiso   1.00
C1326  C     0.06903   0.84979   0.95951   0.00000  Uiso   1.00
C1327  C     0.32410   0.77817   0.81236   0.00000  Uiso   1.00
C1328  C     0.15491   0.84070   0.91961   0.00000  Uiso   1.00
C1329  C     0.19017   0.98969   0.66821   0.00000  Uiso   1.00
C1330  C     0.14272   0.87380   0.60300   0.00000  Uiso   1.00
C1331  C     0.26522   0.74739   0.60796   0.00000  Uiso   1.00
C1332  C     0.26964   0.72893   0.95159   0.00000  Uiso   1.00
C1333  C     0.02256   0.84382   0.90057   0.00000  Uiso   1.00
C1334  C     0.18712   0.74714   0.90562   0.00000  Uiso   1.00
C1335  C     0.13800   0.82739   0.95772   0.00000  Uiso   1.00
C1336  C     0.09480   0.83363   0.97813   0.00000  Uiso   1.00
C1337  C     0.16325   0.80949   0.97669   0.00000  Uiso   1.00
C1338  C     0.14800   0.80742   0.51824   0.00000  Uiso   1.00
C1339  C     0.10374   0.81032   0.53665   0.00000  Uiso   1.00
C1340  C     0.07759   0.82318   0.51684   0.00000  Uiso   1.00
H1341  H     0.28107   0.77821   0.52224   0.00000  Uiso   1.00
H1342  H     0.15903   0.66864   0.67163   0.00000  Uiso   1.00
H1343  H     0.18640   0.95504   0.66302   0.00000  Uiso   1.00
H1344  H     0.21364   0.66800   0.64138   0.00000  Uiso   1.00
H1345  H     0.15081   0.88304   0.57240   0.00000  Uiso   1.00
H1346  H     0.16953   0.88570   0.61641   0.00000  Uiso   1.00
H1347  H     0.11397   0.88904   0.62079   0.00000  Uiso   1.00
H1348  H     0.26927   0.72439   0.58129   0.00000  Uiso   1.00
H1349  H     0.23363   0.73989   0.62980   0.00000  Uiso   1.00
H1350  H     0.29080   0.74455   0.62201   0.00000  Uiso   1.00
H1351  H     0.25507   0.71532   0.98032   0.00000  Uiso   1.00
H1352  H     0.13275   0.66739   0.78996   0.00000  Uiso   1.00
H1353  H     0.30327   0.72093   0.94040   0.00000  Uiso   1.00
H1354  H     0.25239   0.71432   0.92963   0.00000  Uiso   1.00
H1355  H     0.03085   0.81112   0.89272   0.00000  Uiso   1.00
H1356  H     0.00813   0.85115   0.87790   0.00000  Uiso   1.00
H1357  H     0.33106   0.84664   0.92951   0.00000  Uiso   1.00
H1358  H     0.08820   0.80142   0.56606   0.00000  Uiso   1.00
H1359  H     0.15471   0.75538   0.90741   0.00000  Uiso   1.00
H1360  H     0.18374   0.72164   0.92471   0.00000  Uiso   1.00
H1361  H     0.20165   0.73480   0.87462   0.00000  Uiso   1.00
H1362  H     0.03623   0.85506   0.97569   0.00000  Uiso   1.00
H1363  H     0.18876   0.84088   0.90443   0.00000  Uiso   1.00
H1364  H     0.04396   0.82580   0.53220   0.00000  Uiso   1.00
H1365  H     0.01664   0.85368   0.71208   0.00000  Uiso   1.00
H1366  H     0.01966   0.78787   0.82332   0.00000  Uiso   1.00
H1367  H     0.33012   0.75192   0.78858   0.00000  Uiso   1.00
H1368  H     0.29760   0.76660   0.83745   0.00000  Uiso   1.00
O1369  O     0.16667   0.83333   0.75000   0.00000  Uiso   1.00
O1370  O     0.15693   0.79060   0.66625   0.00000  Uiso   1.00
O1371  O     0.12687   0.87313   0.83749   0.00000  Uiso   1.00
O1372  O     0.21088   0.84159   0.65877   0.00000  Uiso   1.00
O1373  O     0.17198   0.82802   0.83749   0.00000  Uiso   1.00
O1374  O     0.31129   0.81221   0.79943   0.00000  Uiso   1.00
O1375  O     0.20615   0.67066   0.70110   0.00000  Uiso   1.00
O1376  O     0.13271   0.83017   0.60376   0.00000  Uiso   1.00
O1377  O     0.26967   0.78856   0.59793   0.00000  Uiso   1.00
O1378  O     0.27060   0.77275   0.95537   0.00000  Uiso   1.00
O1379  O     0.05918   0.87282   0.90062   0.00000  Uiso   1.00
O1380  O     0.17849   0.74768   0.77821   0.00000  Uiso   1.00
O1381  O     0.21408   0.78258   0.91525   0.00000  Uiso   1.00
O1382  O     0.14581   0.92803   0.76767   0.00000  Uiso   1.00
O1383  O     0.07452   0.79917   0.73607   0.00000  Uiso   1.00
O1384  O     0.26785   0.85845   0.71806   0.00000  Uiso   1.00
O1385  O     0.06990   0.85627   0.77820   0.00000  Uiso   1.00
O1386  O     0.25440   0.81944   0.76768   0.00000  Uiso   1.00
O1387  O     0.13800   0.73570   0.73607   0.00000  Uiso   1.00
O1388  O     0.20437   0.92193   0.71806   0.00000  Uiso   1.00
Zn1389 Zn    0.19244   0.80756   0.78278   0.00000  Uiso   1.00
Zn1390 Zn    0.13459   0.79044   0.72258   0.00000  Uiso   1.00
Zn1391 Zn    0.21166   0.86331   0.71188   0.00000  Uiso   1.00
Zn1392 Zn    0.12798   0.87202   0.78277   0.00000  Uiso   1.00
C1393  C     0.38611   0.82698   0.75849   0.00000  Uiso   1.00
C1394  C     0.53576   0.79252   0.95585   0.00000  Uiso   1.00
C1395  C     0.56349   0.78370   0.97654   0.00000  Uiso   1.00
C1396  C     0.61437   0.84008   0.74140   0.00000  Uiso   1.00
C1397  C     0.55220   0.79040   0.51809   0.00000  Uiso   1.00
C1398  C     0.51069   0.80190   0.53963   0.00000  Uiso   1.00
C1399  C     0.58234   0.78600   0.53822   0.00000  Uiso   1.00
C1400  C     0.57194   0.79157   0.57929   0.00000  Uiso   1.00
C1401  C     0.50183   0.81102   0.58149   0.00000  Uiso   1.00
C1402  C     0.66012   0.84059   0.73755   0.00000  Uiso   1.00
C1403  C     0.34019   0.82402   0.76407   0.00000  Uiso   1.00
C1404  C     0.41832   0.85830   0.91975   0.00000  Uiso   1.00
C1405  C     0.51103   0.98775   0.73438   0.00000  Uiso   1.00
C1406  C     0.48642   0.67896   0.76254   0.00000  Uiso   1.00
C1407  C     0.48941   0.72285   0.75911   0.00000  Uiso   1.00
C1408  C     0.50969   0.94414   0.74070   0.00000  Uiso   1.00
C1409  C     0.52154   0.81227   0.64393   0.00000  Uiso   1.00
C1410  C     0.47814   0.85365   0.85639   0.00000  Uiso   1.00
C1411  C     0.46183   0.85362   0.89972   0.00000  Uiso   1.00
C1412  C     0.53157   0.80379   0.60092   0.00000  Uiso   1.00
C1413  C     0.40236   0.84979   0.95951   0.00000  Uiso   1.00
C1414  C     0.65744   0.77817   0.81236   0.00000  Uiso   1.00
C1415  C     0.48824   0.84070   0.91961   0.00000  Uiso   1.00
C1416  C     0.52350   0.98969   0.66821   0.00000  Uiso   1.00
C1417  C     0.47605   0.87380   0.60300   0.00000  Uiso   1.00
C1418  C     0.59855   0.74739   0.60796   0.00000  Uiso   1.00
C1419  C     0.60297   0.72893   0.95159   0.00000  Uiso   1.00
C1420  C     0.35590   0.84382   0.90057   0.00000  Uiso   1.00
C1421  C     0.52045   0.74714   0.90562   0.00000  Uiso   1.00
C1422  C     0.47134   0.82739   0.95772   0.00000  Uiso   1.00
C1423  C     0.42814   0.83363   0.97813   0.00000  Uiso   1.00
C1424  C     0.49658   0.80949   0.97669   0.00000  Uiso   1.00
C1425  C     0.48133   0.80742   0.51824   0.00000  Uiso   1.00
C1426  C     0.43707   0.81032   0.53665   0.00000  Uiso   1.00
C1427  C     0.41093   0.82318   0.51684   0.00000  Uiso   1.00
H1428  H     0.61441   0.77821   0.52224   0.00000  Uiso   1.00
H1429  H     0.49237   0.66864   0.67163   0.00000  Uiso   1.00
H1430  H     0.51974   0.95504   0.66302   0.00000  Uiso   1.00
H1431  H     0.54698   0.66800   0.64138   0.00000  Uiso   1.00
H1432  H     0.48415   0.88304   0.57240   0.00000  Uiso   1.00
H1433  H     0.50286   0.88570   0.61641   0.00000  Uiso   1.00
H1434  H     0.44730   0.88904   0.62079   0.00000  Uiso   1.00
H1435  H     0.60261   0.72439   0.58129   0.00000  Uiso   1.00
H1436  H     0.56697   0.73989   0.62980   0.00000  Uiso   1.00
H1437  H     0.62414   0.74455   0.62201   0.00000  Uiso   1.00
H1438  H     0.58840   0.71532   0.98032   0.00000  Uiso   1.00
H1439  H     0.46609   0.66739   0.78996   0.00000  Uiso   1.00
H1440  H     0.63660   0.72093   0.94040   0.00000  Uiso   1.00
H1441  H     0.58572   0.71432   0.92963   0.00000  Uiso   1.00
H1442  H     0.36418   0.81112   0.89272   0.00000  Uiso   1.00
H1443  H     0.34146   0.85115   0.87790   0.00000  Uiso   1.00
H1444  H     0.66439   0.84664   0.92951   0.00000  Uiso   1.00
H1445  H     0.42153   0.80142   0.56606   0.00000  Uiso   1.00
H1446  H     0.48804   0.75538   0.90741   0.00000  Uiso   1.00
H1447  H     0.51708   0.72164   0.92471   0.00000  Uiso   1.00
H1448  H     0.53498   0.73480   0.87462   0.00000  Uiso   1.00
H1449  H     0.36956   0.85506   0.97569   0.00000  Uiso   1.00
H1450  H     0.52210   0.84088   0.90443   0.00000  Uiso   1.00
H1451  H     0.37729   0.82580   0.53220   0.00000  Uiso   1.00
H1452  H     0.34997   0.85368   0.71208   0.00000  Uiso   1.00
H1453  H     0.35299   0.78787   0.82332   0.00000  Uiso   1.00
H1454  H     0.66346   0.75192   0.78858   0.00000  Uiso   1.00
H1455  H     0.63094   0.76660   0.83745   0.00000  Uiso   1.00
O1456  O     0.50000   0.83333   0.75000   0.00000  Uiso   1.00
O1457  O     0.49027   0.79060   0.66625   0.00000  Uiso   1.00
O1458  O     0.46020   0.87313   0.83749   0.00000  Uiso   1.00
O1459  O     0.54421   0.84159   0.65877   0.00000  Uiso   1.00
O1460  O     0.50532   0.82802   0.83749   0.00000  Uiso   1.00
O1461  O     0.64462   0.81221   0.79943   0.00000  Uiso   1.00
O1462  O     0.53949   0.67066   0.70110   0.00000  Uiso   1.00
O1463  O     0.46605   0.83017   0.60376   0.00000  Uiso   1.00
O1464  O     0.60300   0.78856   0.59793   0.00000  Uiso   1.00
O1465  O     0.60394   0.77275   0.95537   0.00000  Uiso   1.00
O1466  O     0.39251   0.87282   0.90062   0.00000  Uiso   1.00
O1467  O     0.51182   0.74768   0.77821   0.00000  Uiso   1.00
O1468  O     0.54742   0.78258   0.91525   0.00000  Uiso   1.00
O1469  O     0.47914   0.92803   0.76767   0.00000  Uiso   1.00
O1470  O     0.40785   0.79917   0.73607   0.00000  Uiso   1.00
O1471  O     0.60119   0.85845   0.71806   0.00000  Uiso   1.00
O1472  O     0.40323   0.85627   0.77820   0.00000  Uiso   1.00
O1473  O     0.58773   0.81944   0.76768   0.00000  Uiso   1.00
O1474  O     0.47133   0.73570   0.73607   0.00000  Uiso   1.00
O1475  O     0.53771   0.92193   0.71806   0.00000  Uiso   1.00
Zn1476 Zn    0.52577   0.80756   0.78278   0.00000  Uiso   1.00
Zn1477 Zn    0.46792   0.79044   0.72258   0.00000  Uiso   1.00
Zn1478 Zn    0.54500   0.86331   0.71188   0.00000  Uiso   1.00
Zn1479 Zn    0.46131   0.87202   0.78277   0.00000  Uiso   1.00
C1480  C     0.71945   0.82698   0.75849   0.00000  Uiso   1.00
C1481  C     0.86909   0.79252   0.95585   0.00000  Uiso   1.00
C1482  C     0.89683   0.78370   0.97654   0.00000  Uiso   1.00
C1483  C     0.94770   0.84008   0.74140   0.00000  Uiso   1.00
C1484  C     0.88554   0.79040   0.51809   0.00000  Uiso   1.00
C1485  C     0.84402   0.80190   0.53963   0.00000  Uiso   1.00
C1486  C     0.91567   0.78600   0.53822   0.00000  Uiso   1.00
C1487  C     0.90527   0.79157   0.57929   0.00000  Uiso   1.00
C1488  C     0.83516   0.81102   0.58149   0.00000  Uiso   1.00
C1489  C     0.99345   0.84059   0.73755   0.00000  Uiso   1.00
C1490  C     0.67352   0.82402   0.76407   0.00000  Uiso   1.00
C1491  C     0.75165   0.85830   0.91975   0.00000  Uiso   1.00
C1492  C     0.84436   0.98775   0.73438   0.00000  Uiso   1.00
C1493  C     0.81975   0.67896   0.76254   0.00000  Uiso   1.00
C1494  C     0.82274   0.72285   0.75911   0.00000  Uiso   1.00
C1495  C     0.84302   0.94414   0.74070   0.00000  Uiso   1.00
C1496  C     0.85487   0.81227   0.64393   0.00000  Uiso   1.00
C1497  C     0.81147   0.85365   0.85639   0.00000  Uiso   1.00
C1498  C     0.79516   0.85362   0.89972   0.00000  Uiso   1.00
C1499  C     0.86490   0.80379   0.60092   0.00000  Uiso   1.00
C1500  C     0.73569   0.84979   0.95951   0.00000  Uiso   1.00
C1501  C     0.99077   0.77817   0.81236   0.00000  Uiso   1.00
C1502  C     0.82158   0.84070   0.91961   0.00000  Uiso   1.00
C1503  C     0.85683   0.98969   0.66821   0.00000  Uiso   1.00
C1504  C     0.80938   0.87380   0.60300   0.00000  Uiso   1.00
C1505  C     0.93189   0.74739   0.60796   0.00000  Uiso   1.00
C1506  C     0.93630   0.72893   0.95159   0.00000  Uiso   1.00
C1507  C     0.68923   0.84382   0.90057   0.00000  Uiso   1.00
C1508  C     0.85379   0.74714   0.90562   0.00000  Uiso   1.00
C1509  C     0.80467   0.82739   0.95772   0.00000  Uiso   1.00
C1510  C     0.76147   0.83363   0.97813   0.00000  Uiso   1.00
C1511  C     0.82992   0.80949   0.97669   0.00000  Uiso   1.00
C1512  C     0.81467   0.80742   0.51824   0.00000  Uiso   1.00
C1513  C     0.77040   0.81032   0.53665   0.00000  Uiso   1.00
C1514  C     0.74426   0.82318   0.51684   0.00000  Uiso   1.00
H1515  H     0.94774   0.77821   0.52224   0.00000  Uiso   1.00
H1516  H     0.82570   0.66864   0.67163   0.00000  Uiso   1.00
H1517  H     0.85307   0.95504   0.66302   0.00000  Uiso   1.00
H1518  H     0.88031   0.66800   0.64138   0.00000  Uiso   1.00
H1519  H     0.81748   0.88304   0.57240   0.00000  Uiso   1.00
H1520  H     0.83620   0.88570   0.61641   0.00000  Uiso   1.00
H1521  H     0.78063   0.88904   0.62079   0.00000  Uiso   1.00
H1522  H     0.93594   0.72439   0.58129   0.00000  Uiso   1.00
H1523  H     0.90030   0.73989   0.62980   0.00000  Uiso   1.00
H1524  H     0.95747   0.74455   0.62201   0.00000  Uiso   1.00
H1525  H     0.92174   0.71532   0.98032   0.00000  Uiso   1.00
H1526  H     0.79942   0.66739   0.78996   0.00000  Uiso   1.00
H1527  H     0.96993   0.72093   0.94040   0.00000  Uiso   1.00
H1528  H     0.91906   0.71432   0.92963   0.00000  Uiso   1.00
H1529  H     0.69752   0.81112   0.89272   0.00000  Uiso   1.00
H1530  H     0.67480   0.85115   0.87790   0.00000  Uiso   1.00
H1531  H     0.99772   0.84664   0.92951   0.00000  Uiso   1.00
H1532  H     0.75486   0.80142   0.56606   0.00000  Uiso   1.00
H1533  H     0.82138   0.75538   0.90741   0.00000  Uiso   1.00
H1534  H     0.85041   0.72164   0.92471   0.00000  Uiso   1.00
H1535  H     0.86832   0.73480   0.87462   0.00000  Uiso   1.00
H1536  H     0.70290   0.85506   0.97569   0.00000  Uiso   1.00
H1537  H     0.85543   0.84088   0.90443   0.00000  Uiso   1.00
H1538  H     0.71062   0.82580   0.53220   0.00000  Uiso   1.00
H1539  H     0.68331   0.85368   0.71208   0.00000  Uiso   1.00
H1540  H     0.68633   0.78787   0.82332   0.00000  Uiso   1.00
H1541  H     0.99679   0.75192   0.78858   0.00000  Uiso   1.00
H1542  H     0.96427   0.76660   0.83745   0.00000  Uiso   1.00
O1543  O     0.83333   0.83333   0.75000   0.00000  Uiso   1.00
O1544  O     0.82360   0.79060   0.66625   0.00000  Uiso   1.00
O1545  O     0.79354   0.87313   0.83749   0.00000  Uiso   1.00
O1546  O     0.87755   0.84159   0.65877   0.00000  Uiso   1.00
O1547  O     0.83865   0.82802   0.83749   0.00000  Uiso   1.00
O1548  O     0.97796   0.81221   0.79943   0.00000  Uiso   1.00
O1549  O     0.87282   0.67066   0.70110   0.00000  Uiso   1.00
O1550  O     0.79938   0.83017   0.60376   0.00000  Uiso   1.00
O1551  O     0.93634   0.78856   0.59793   0.00000  Uiso   1.00
O1552  O     0.93727   0.77275   0.95537   0.00000  Uiso   1.00
O1553  O     0.72585   0.87282   0.90062   0.00000  Uiso   1.00
O1554  O     0.84515   0.74768   0.77821   0.00000  Uiso   1.00
O1555  O     0.88075   0.78258   0.91525   0.00000  Uiso   1.00
O1556  O     0.81247   0.92803   0.76767   0.00000  Uiso   1.00
O1557  O     0.74119   0.79917   0.73607   0.00000  Uiso   1.00
O1558  O     0.93452   0.85845   0.71806   0.00000  Uiso   1.00
O1559  O     0.73656   0.85627   0.77820   0.00000  Uiso   1.00
O1560  O     0.92106   0.81944   0.76768   0.00000  Uiso   1.00
O1561  O     0.80467   0.73570   0.73607   0.00000  Uiso   1.00
O1562  O     0.87104   0.92193   0.71806   0.00000  Uiso   1.00
Zn1563 Zn    0.85910   0.80756   0.78278   0.00000  Uiso   1.00
Zn1564 Zn    0.80125   0.79044   0.72258   0.00000  Uiso   1.00
Zn1565 Zn    0.87833   0.86331   0.71188   0.00000  Uiso   1.00
Zn1566 Zn    0.79465   0.87202   0.78277   0.00000  Uiso   1.00
loop_
_geom_bond_atom_site_label_1
_geom_bond_atom_site_label_2
_geom_bond_distance
_geom_bond_site_symmetry_2
_ccdc_geom_bond_type
C1     C11     1.444   .     S
C1     O78     1.272   .     A
C1     O80     1.267   .     A
C2     C32     1.425   .     A
C2     O76     1.385   .     S
C2     C3      1.399   .     A
C3     O73     1.386   .     S
C3     C788    1.407   .     S
C4     O81     1.267   .     A
C4     O79     1.282   .     A
C4     C10     1.457   .     S
C5     C7      1.405   .     A
C5     C6      1.424   .     A
C5     C786    1.407   1_554 S
C6     C9      1.428   .     A
C6     C33     1.427   .     A
C7     H36     1.083   .     S
C7     C8      1.391   .     A
C8     C20     1.401   .     A
C8     O72     1.382   .     S
C9     C20     1.404   .     A
C9     O71     1.384   .     S
C10    C98     1.346   .     S
C10    H147    1.088   .     S
C11    C184    1.346   1_455 S
C11    O243    1.396   1_455 S
C12    O74     1.388   .     S
C12    C21     1.406   .     A
C12    C19     1.411   .     A
C13    C16     1.458   .     S
C13    C275    1.336   .     S
C13    O331    1.388   .     S
C14    H47     1.087   .     S
C14    C15     1.436   .     S
C14    C535    1.336   1_545 S
C15    O75     1.272   .     A
C15    O82     1.279   .     A
C16    O77     1.271   .     A
C16    O83     1.269   .     A
C17    C20     1.462   .     S
C17    O67     1.275   .     A
C17    O65     1.280   .     A
C18    C19     1.475   .     S
C18    O68     1.284   .     A
C18    O66     1.282   .     A
C19    C23     1.398   .     A
C21    C31     1.401   .     A
C21    H57     1.083   .     S
C22    H63     1.110   .     S
C22    O69     1.412   .     S
C22    H62     1.113   .     S
C22    H148    1.111   .     S
C23    H58     1.079   .     S
C23    C30     1.406   .     A
C24    H38     1.112   .     S
C24    H298    1.113   .     S
C24    H300    1.108   .     S
C24    O331    1.411   .     S
C25    H40     1.113   .     S
C25    O71     1.412   .     S
C25    H41     1.113   .     S
C25    H42     1.109   .     S
C26    O72     1.408   .     S
C26    H44     1.112   .     S
C26    H45     1.109   .     S
C26    H43     1.114   .     S
C27    H48     1.109   .     S
C27    H46     1.114   .     S
C27    O73     1.411   .     S
C27    H49     1.109   .     S
C28    O74     1.412   .     S
C28    H51     1.109   .     S
C28    H50     1.115   .     S
C28    H226    1.111   1_455 S
C29    O76     1.414   .     S
C29    H54     1.110   .     S
C29    H55     1.114   .     S
C29    H56     1.109   .     S
C30    C31     1.415   .     A
C30    C32     1.427   .     A
C31    C818    1.393   .     S
C32    C816    1.421   .     S
C33    C34     1.413   .     A
C33    C815    1.421   1_554 S
C34    C35     1.388   .     A
C34    H53     1.078   .     S
C35    H59     1.084   .     S
C35    C814    1.393   1_554 S
H37    C546    1.113   1_545 S
H39    C546    1.108   1_545 S
H52    C115    1.111   .     S
H60    C184    1.088   1_455 S
H61    C196    1.111   1_455 S
O64    Zn84    1.948   .     S
O64    Zn86    1.930   .     S
O64    Zn85    1.949   .     S
O64    Zn87    1.934   .     S
O65    Zn85    1.920   .     S
O66    Zn87    1.928   .     S
O67    Zn86    1.929   .     S
O68    Zn84    1.921   .     S
O69    C98     1.396   .     S
O70    C535    1.388   1_545 S
O70    C546    1.411   1_545 S
O75    Zn84    1.932   .     S
O77    Zn87    1.929   .     S
O78    Zn85    1.931   .     S
O79    Zn86    1.939   .     S
O80    Zn87    1.939   .     S
O81    Zn84    1.930   .     S
O82    Zn85    1.931   .     S
O83    Zn86    1.931   .     S
C88    C98     1.444   .     S
C88    O165    1.272   .     A
C88    O167    1.267   .     A
C89    C119    1.425   .     A
C89    O163    1.385   .     S
C89    C90     1.399   .     A
C90    O160    1.386   .     S
C90    C875    1.407   .     S
C91    O168    1.267   .     A
C91    O166    1.282   .     A
C91    C97     1.457   .     S
C92    C94     1.405   .     A
C92    C93     1.424   .     A
C92    C873    1.407   1_554 S
C93    C96     1.428   .     A
C93    C120    1.427   .     A
C94    H123    1.083   .     S
C94    C95     1.391   .     A
C95    C107    1.401   .     A
C95    O159    1.382   .     S
C96    C107    1.404   .     A
C96    O158    1.384   .     S
C97    C185    1.346   .     S
C97    H234    1.088   .     S
C99    O161    1.388   .     S
C99    C108    1.406   .     A
C99    C106    1.411   .     A
C100   C103    1.458   .     S
C100   C362    1.336   .     S
C100   O418    1.388   .     S
C101   H134    1.087   .     S
C101   C102    1.436   .     S
C101   C622    1.336   1_545 S
C102   O162    1.272   .     A
C102   O169    1.279   .     A
C103   O164    1.271   .     A
C103   O170    1.269   .     A
C104   C107    1.462   .     S
C104   O154    1.275   .     A
C104   O152    1.280   .     A
C105   C106    1.475   .     S
C105   O155    1.284   .     A
C105   O153    1.282   .     A
C106   C110    1.398   .     A
C108   C118    1.401   .     A
C108   H144    1.083   .     S
C109   H150    1.110   .     S
C109   O156    1.412   .     S
C109   H149    1.113   .     S
C109   H235    1.111   .     S
C110   H145    1.079   .     S
C110   C117    1.406   .     A
C111   H125    1.112   .     S
C111   H385    1.113   .     S
C111   H387    1.108   .     S
C111   O418    1.411   .     S
C112   H127    1.113   .     S
C112   O158    1.412   .     S
C112   H128    1.113   .     S
C112   H129    1.109   .     S
C113   O159    1.408   .     S
C113   H131    1.112   .     S
C113   H132    1.109   .     S
C113   H130    1.114   .     S
C114   H135    1.109   .     S
C114   H133    1.114   .     S
C114   O160    1.411   .     S
C114   H136    1.109   .     S
C115   O161    1.412   .     S
C115   H138    1.109   .     S
C115   H137    1.115   .     S
C116   O163    1.414   .     S
C116   H141    1.110   .     S
C116   H142    1.114   .     S
C116   H143    1.109   .     S
C117   C118    1.415   .     A
C117   C119    1.427   .     A
C118   C905    1.393   .     S
C119   C903    1.421   .     S
C120   C121    1.413   .     A
C120   C902    1.421   1_554 S
C121   C122    1.388   .     A
C121   H140    1.078   .     S
C122   H146    1.084   .     S
C122   C901    1.393   1_554 S
H124   C633    1.113   1_545 S
H126   C633    1.108   1_545 S
H139   C202    1.111   .     S
O151   Zn171   1.948   .     S
O151   Zn173   1.930   .     S
O151   Zn172   1.949   .     S
O151   Zn174   1.934   .     S
O152   Zn172   1.920   .     S
O153   Zn174   1.928   .     S
O154   Zn173   1.929   .     S
O155   Zn171   1.921   .     S
O156   C185    1.396   .     S
O157   C622    1.388   1_545 S
O157   C633    1.411   1_545 S
O162   Zn171   1.932   .     S
O164   Zn174   1.929   .     S
O165   Zn172   1.931   .     S
O166   Zn173   1.939   .     S
O167   Zn174   1.939   .     S
O168   Zn171   1.930   .     S
O169   Zn172   1.931   .     S
O170   Zn173   1.931   .     S
C175   C185    1.444   .     S
C175   O252    1.272   .     A
C175   O254    1.267   .     A
C176   C206    1.425   .     A
C176   O250    1.385   .     S
C176   C177    1.399   .     A
C177   O247    1.386   .     S
C177   C962    1.407   .     S
C178   O255    1.267   .     A
C178   O253    1.282   .     A
C178   C184    1.457   .     S
C179   C181    1.405   .     A
C179   C180    1.424   .     A
C179   C960    1.407   1_554 S
C180   C183    1.428   .     A
C180   C207    1.427   .     A
C181   H210    1.083   .     S
C181   C182    1.391   .     A
C182   C194    1.401   .     A
C182   O246    1.382   .     S
C183   C194    1.404   .     A
C183   O245    1.384   .     S
C184   C11     1.346   1_655 S
C184   H60     1.088   1_655 S
C186   O248    1.388   .     S
C186   C195    1.406   .     A
C186   C193    1.411   .     A
C187   C190    1.458   .     S
C187   C449    1.336   .     S
C187   O505    1.388   .     S
C188   H221    1.087   .     S
C188   C189    1.436   .     S
C188   C709    1.336   1_545 S
C189   O249    1.272   .     A
C189   O256    1.279   .     A
C190   O251    1.271   .     A
C190   O257    1.269   .     A
C191   C194    1.462   .     S
C191   O241    1.275   .     A
C191   O239    1.280   .     A
C192   C193    1.475   .     S
C192   O242    1.284   .     A
C192   O240    1.282   .     A
C193   C197    1.398   .     A
C195   C205    1.401   .     A
C195   H231    1.083   .     S
C196   H237    1.110   .     S
C196   O243    1.412   .     S
C196   H236    1.113   .     S
C196   H61     1.111   1_655 S
C197   H232    1.079   .     S
C197   C204    1.406   .     A
C198   H212    1.112   .     S
C198   H472    1.113   .     S
C198   H474    1.108   .     S
C198   O505    1.411   .     S
C199   H214    1.113   .     S
C199   O245    1.412   .     S
C199   H215    1.113   .     S
C199   H216    1.109   .     S
C200   O246    1.408   .     S
C200   H218    1.112   .     S
C200   H219    1.109   .     S
C200   H217    1.114   .     S
C201   H222    1.109   .     S
C201   H220    1.114   .     S
C201   O247    1.411   .     S
C201   H223    1.109   .     S
C202   O248    1.412   .     S
C202   H225    1.109   .     S
C202   H224    1.115   .     S
C203   O250    1.414   .     S
C203   H228    1.110   .     S
C203   H229    1.114   .     S
C203   H230    1.109   .     S
C204   C205    1.415   .     A
C204   C206    1.427   .     A
C205   C992    1.393   .     S
C206   C990    1.421   .     S
C207   C208    1.413   .     A
C207   C989    1.421   1_554 S
C208   C209    1.388   .     A
C208   H227    1.078   .     S
C209   H233    1.084   .     S
C209   C988    1.393   1_554 S
H211   C720    1.113   1_545 S
H213   C720    1.108   1_545 S
H226   C28     1.111   1_655 S
O238   Zn258   1.948   .     S
O238   Zn260   1.930   .     S
O238   Zn259   1.949   .     S
O238   Zn261   1.934   .     S
O239   Zn259   1.920   .     S
O240   Zn261   1.928   .     S
O241   Zn260   1.929   .     S
O242   Zn258   1.921   .     S
O243   C11     1.396   1_655 S
O244   C709    1.388   1_545 S
O244   C720    1.411   1_545 S
O249   Zn258   1.932   .     S
O251   Zn261   1.929   .     S
O252   Zn259   1.931   .     S
O253   Zn260   1.939   .     S
O254   Zn261   1.939   .     S
O255   Zn258   1.930   .     S
O256   Zn259   1.931   .     S
O257   Zn260   1.931   .     S
C262   C272    1.444   .     S
C262   O339    1.272   .     A
C262   O341    1.267   .     A
C263   C293    1.425   .     A
C263   O337    1.385   .     S
C263   C264    1.399   .     A
C264   O334    1.386   .     S
C264   C1049   1.407   .     S
C265   O342    1.267   .     A
C265   O340    1.282   .     A
C265   C271    1.457   .     S
C266   C268    1.405   .     A
C266   C267    1.424   .     A
C266   C1047   1.407   1_554 S
C267   C270    1.428   .     A
C267   C294    1.427   .     A
C268   H297    1.083   .     S
C268   C269    1.391   .     A
C269   C281    1.401   .     A
C269   O333    1.382   .     S
C270   C281    1.404   .     A
C270   O332    1.384   .     S
C271   C359    1.346   .     S
C271   H408    1.088   .     S
C272   C445    1.346   1_455 S
C272   O504    1.396   1_455 S
C273   O335    1.388   .     S
C273   C282    1.406   .     A
C273   C280    1.411   .     A
C274   C277    1.458   .     S
C274   C536    1.336   .     S
C274   O592    1.388   .     S
C275   H308    1.087   .     S
C275   C276    1.436   .     S
C276   O336    1.272   .     A
C276   O343    1.279   .     A
C277   O338    1.271   .     A
C277   O344    1.269   .     A
C278   C281    1.462   .     S
C278   O328    1.275   .     A
C278   O326    1.280   .     A
C279   C280    1.475   .     S
C279   O329    1.284   .     A
C279   O327    1.282   .     A
C280   C284    1.398   .     A
C282   C292    1.401   .     A
C282   H318    1.083   .     S
C283   H324    1.110   .     S
C283   O330    1.412   .     S
C283   H323    1.113   .     S
C283   H409    1.111   .     S
C284   H319    1.079   .     S
C284   C291    1.406   .     A
C285   H299    1.112   .     S
C285   H559    1.113   .     S
C285   H561    1.108   .     S
C285   O592    1.411   .     S
C286   H301    1.113   .     S
C286   O332    1.412   .     S
C286   H302    1.113   .     S
C286   H303    1.109   .     S
C287   O333    1.408   .     S
C287   H305    1.112   .     S
C287   H306    1.109   .     S
C287   H304    1.114   .     S
C288   H309    1.109   .     S
C288   H307    1.114   .     S
C288   O334    1.411   .     S
C288   H310    1.109   .     S
C289   O335    1.412   .     S
C289   H312    1.109   .     S
C289   H311    1.115   .     S
C289   H487    1.111   1_455 S
C290   O337    1.414   .     S
C290   H315    1.110   .     S
C290   H316    1.114   .     S
C290   H317    1.109   .     S
C291   C292    1.415   .     A
C291   C293    1.427   .     A
C292   C1079   1.393   .     S
C293   C1077   1.421   .     S
C294   C295    1.413   .     A
C294   C1076   1.421   1_554 S
C295   C296    1.388   .     A
C295   H314    1.078   .     S
C296   H320    1.084   .     S
C296   C1075   1.393   1_554 S
H313   C376    1.111   .     S
H321   C445    1.088   1_455 S
H322   C457    1.111   1_455 S
O325   Zn345   1.948   .     S
O325   Zn347   1.930   .     S
O325   Zn346   1.949   .     S
O325   Zn348   1.934   .     S
O326   Zn346   1.920   .     S
O327   Zn348   1.928   .     S
O328   Zn347   1.929   .     S
O329   Zn345   1.921   .     S
O330   C359    1.396   .     S
O336   Zn345   1.932   .     S
O338   Zn348   1.929   .     S
O339   Zn346   1.931   .     S
O340   Zn347   1.939   .     S
O341   Zn348   1.939   .     S
O342   Zn345   1.930   .     S
O343   Zn346   1.931   .     S
O344   Zn347   1.931   .     S
C349   C359    1.444   .     S
C349   O426    1.272   .     A
C349   O428    1.267   .     A
C350   C380    1.425   .     A
C350   O424    1.385   .     S
C350   C351    1.399   .     A
C351   O421    1.386   .     S
C351   C1136   1.407   .     S
C352   O429    1.267   .     A
C352   O427    1.282   .     A
C352   C358    1.457   .     S
C353   C355    1.405   .     A
C353   C354    1.424   .     A
C353   C1134   1.407   1_554 S
C354   C357    1.428   .     A
C354   C381    1.427   .     A
C355   H384    1.083   .     S
C355   C356    1.391   .     A
C356   C368    1.401   .     A
C356   O420    1.382   .     S
C357   C368    1.404   .     A
C357   O419    1.384   .     S
C358   C446    1.346   .     S
C358   H495    1.088   .     S
C360   O422    1.388   .     S
C360   C369    1.406   .     A
C360   C367    1.411   .     A
C361   C364    1.458   .     S
C361   C623    1.336   .     S
C361   O679    1.388   .     S
C362   H395    1.087   .     S
C362   C363    1.436   .     S
C363   O423    1.272   .     A
C363   O430    1.279   .     A
C364   O425    1.271   .     A
C364   O431    1.269   .     A
C365   C368    1.462   .     S
C365   O415    1.275   .     A
C365   O413    1.280   .     A
C366   C367    1.475   .     S
C366   O416    1.284   .     A
C366   O414    1.282   .     A
C367   C371    1.398   .     A
C369   C379    1.401   .     A
C369   H405    1.083   .     S
C370   H411    1.110   .     S
C370   O417    1.412   .     S
C370   H410    1.113   .     S
C370   H496    1.111   .     S
C371   H406    1.079   .     S
C371   C378    1.406   .     A
C372   H386    1.112   .     S
C372   H646    1.113   .     S
C372   H648    1.108   .     S
C372   O679    1.411   .     S
C373   H388    1.113   .     S
C373   O419    1.412   .     S
C373   H389    1.113   .     S
C373   H390    1.109   .     S
C374   O420    1.408   .     S
C374   H392    1.112   .     S
C374   H393    1.109   .     S
C374   H391    1.114   .     S
C375   H396    1.109   .     S
C375   H394    1.114   .     S
C375   O421    1.411   .     S
C375   H397    1.109   .     S
C376   O422    1.412   .     S
C376   H399    1.109   .     S
C376   H398    1.115   .     S
C377   O424    1.414   .     S
C377   H402    1.110   .     S
C377   H403    1.114   .     S
C377   H404    1.109   .     S
C378   C379    1.415   .     A
C378   C380    1.427   .     A
C379   C1166   1.393   .     S
C380   C1164   1.421   .     S
C381   C382    1.413   .     A
C381   C1163   1.421   1_554 S
C382   C383    1.388   .     A
C382   H401    1.078   .     S
C383   H407    1.084   .     S
C383   C1162   1.393   1_554 S
H400   C463    1.111   .     S
O412   Zn432   1.948   .     S
O412   Zn434   1.930   .     S
O412   Zn433   1.949   .     S
O412   Zn435   1.934   .     S
O413   Zn433   1.920   .     S
O414   Zn435   1.928   .     S
O415   Zn434   1.929   .     S
O416   Zn432   1.921   .     S
O417   C446    1.396   .     S
O423   Zn432   1.932   .     S
O425   Zn435   1.929   .     S
O426   Zn433   1.931   .     S
O427   Zn434   1.939   .     S
O428   Zn435   1.939   .     S
O429   Zn432   1.930   .     S
O430   Zn433   1.931   .     S
O431   Zn434   1.931   .     S
C436   C446    1.444   .     S
C436   O513    1.272   .     A
C436   O515    1.267   .     A
C437   C467    1.425   .     A
C437   O511    1.385   .     S
C437   C438    1.399   .     A
C438   O508    1.386   .     S
C438   C1223   1.407   .     S
C439   O516    1.267   .     A
C439   O514    1.282   .     A
C439   C445    1.457   .     S
C440   C442    1.405   .     A
C440   C441    1.424   .     A
C440   C1221   1.407   1_554 S
C441   C444    1.428   .     A
C441   C468    1.427   .     A
C442   H471    1.083   .     S
C442   C443    1.391   .     A
C443   C455    1.401   .     A
C443   O507    1.382   .     S
C444   C455    1.404   .     A
C444   O506    1.384   .     S
C445   C272    1.346   1_655 S
C445   H321    1.088   1_655 S
C447   O509    1.388   .     S
C447   C456    1.406   .     A
C447   C454    1.411   .     A
C448   C451    1.458   .     S
C448   C710    1.336   .     S
C448   O766    1.388   .     S
C449   H482    1.087   .     S
C449   C450    1.436   .     S
C450   O510    1.272   .     A
C450   O517    1.279   .     A
C451   O512    1.271   .     A
C451   O518    1.269   .     A
C452   C455    1.462   .     S
C452   O502    1.275   .     A
C452   O500    1.280   .     A
C453   C454    1.475   .     S
C453   O503    1.284   .     A
C453   O501    1.282   .     A
C454   C458    1.398   .     A
C456   C466    1.401   .     A
C456   H492    1.083   .     S
C457   H498    1.110   .     S
C457   O504    1.412   .     S
C457   H497    1.113   .     S
C457   H322    1.111   1_655 S
C458   H493    1.079   .     S
C458   C465    1.406   .     A
C459   H473    1.112   .     S
C459   H733    1.113   .     S
C459   H735    1.108   .     S
C459   O766    1.411   .     S
C460   H475    1.113   .     S
C460   O506    1.412   .     S
C460   H476    1.113   .     S
C460   H477    1.109   .     S
C461   O507    1.408   .     S
C461   H479    1.112   .     S
C461   H480    1.109   .     S
C461   H478    1.114   .     S
C462   H483    1.109   .     S
C462   H481    1.114   .     S
C462   O508    1.411   .     S
C462   H484    1.109   .     S
C463   O509    1.412   .     S
C463   H486    1.109   .     S
C463   H485    1.115   .     S
C464   O511    1.414   .     S
C464   H489    1.110   .     S
C464   H490    1.114   .     S
C464   H491    1.109   .     S
C465   C466    1.415   .     A
C465   C467    1.427   .     A
C466   C1253   1.393   .     S
C467   C1251   1.421   .     S
C468   C469    1.413   .     A
C468   C1250   1.421   1_554 S
C469   C470    1.388   .     A
C469   H488    1.078   .     S
C470   H494    1.084   .     S
C470   C1249   1.393   1_554 S
H487   C289    1.111   1_655 S
O499   Zn519   1.948   .     S
O499   Zn521   1.930   .     S
O499   Zn520   1.949   .     S
O499   Zn522   1.934   .     S
O500   Zn520   1.920   .     S
O501   Zn522   1.928   .     S
O502   Zn521   1.929   .     S
O503   Zn519   1.921   .     S
O504   C272    1.396   1_655 S
O510   Zn519   1.932   .     S
O512   Zn522   1.929   .     S
O513   Zn520   1.931   .     S
O514   Zn521   1.939   .     S
O515   Zn522   1.939   .     S
O516   Zn519   1.930   .     S
O517   Zn520   1.931   .     S
O518   Zn521   1.931   .     S
C523   C533    1.444   .     S
C523   O600    1.272   .     A
C523   O602    1.267   .     A
C524   C554    1.425   .     A
C524   O598    1.385   .     S
C524   C525    1.399   .     A
C525   O595    1.386   .     S
C525   C1310   1.407   .     S
C526   O603    1.267   .     A
C526   O601    1.282   .     A
C526   C532    1.457   .     S
C527   C529    1.405   .     A
C527   C528    1.424   .     A
C527   C1308   1.407   1_554 S
C528   C531    1.428   .     A
C528   C555    1.427   .     A
C529   H558    1.083   .     S
C529   C530    1.391   .     A
C530   C542    1.401   .     A
C530   O594    1.382   .     S
C531   C542    1.404   .     A
C531   O593    1.384   .     S
C532   C620    1.346   .     S
C532   H669    1.088   .     S
C533   C706    1.346   1_455 S
C533   O765    1.396   1_455 S
C534   O596    1.388   .     S
C534   C543    1.406   .     A
C534   C541    1.411   .     A
C535   C538    1.458   .     S
C535   C14     1.336   1_565 S
C535   O70     1.388   1_565 S
C536   H569    1.087   .     S
C536   C537    1.436   .     S
C537   O597    1.272   .     A
C537   O604    1.279   .     A
C538   O599    1.271   .     A
C538   O605    1.269   .     A
C539   C542    1.462   .     S
C539   O589    1.275   .     A
C539   O587    1.280   .     A
C540   C541    1.475   .     S
C540   O590    1.284   .     A
C540   O588    1.282   .     A
C541   C545    1.398   .     A
C543   C553    1.401   .     A
C543   H579    1.083   .     S
C544   H585    1.110   .     S
C544   O591    1.412   .     S
C544   H584    1.113   .     S
C544   H670    1.111   .     S
C545   H580    1.079   .     S
C545   C552    1.406   .     A
C546   H560    1.112   .     S
C546   H37     1.113   1_565 S
C546   H39     1.108   1_565 S
C546   O70     1.411   1_565 S
C547   H562    1.113   .     S
C547   O593    1.412   .     S
C547   H563    1.113   .     S
C547   H564    1.109   .     S
C548   O594    1.408   .     S
C548   H566    1.112   .     S
C548   H567    1.109   .     S
C548   H565    1.114   .     S
C549   H570    1.109   .     S
C549   H568    1.114   .     S
C549   O595    1.411   .     S
C549   H571    1.109   .     S
C550   O596    1.412   .     S
C550   H573    1.109   .     S
C550   H572    1.115   .     S
C550   H748    1.111   1_455 S
C551   O598    1.414   .     S
C551   H576    1.110   .     S
C551   H577    1.114   .     S
C551   H578    1.109   .     S
C552   C553    1.415   .     A
C552   C554    1.427   .     A
C553   C1340   1.393   .     S
C554   C1338   1.421   .     S
C555   C556    1.413   .     A
C555   C1337   1.421   1_554 S
C556   C557    1.388   .     A
C556   H575    1.078   .     S
C557   H581    1.084   .     S
C557   C1336   1.393   1_554 S
H574   C637    1.111   .     S
H582   C706    1.088   1_455 S
H583   C718    1.111   1_455 S
O586   Zn606   1.948   .     S
O586   Zn608   1.930   .     S
O586   Zn607   1.949   .     S
O586   Zn609   1.934   .     S
O587   Zn607   1.920   .     S
O588   Zn609   1.928   .     S
O589   Zn608   1.929   .     S
O590   Zn606   1.921   .     S
O591   C620    1.396   .     S
O597   Zn606   1.932   .     S
O599   Zn609   1.929   .     S
O600   Zn607   1.931   .     S
O601   Zn608   1.939   .     S
O602   Zn609   1.939   .     S
O603   Zn606   1.930   .     S
O604   Zn607   1.931   .     S
O605   Zn608   1.931   .     S
C610   C620    1.444   .     S
C610   O687    1.272   .     A
C610   O689    1.267   .     A
C611   C641    1.425   .     A
C611   O685    1.385   .     S
C611   C612    1.399   .     A
C612   O682    1.386   .     S
C612   C1397   1.407   .     S
C613   O690    1.267   .     A
C613   O688    1.282   .     A
C613   C619    1.457   .     S
C614   C616    1.405   .     A
C614   C615    1.424   .     A
C614   C1395   1.407   1_554 S
C615   C618    1.428   .     A
C615   C642    1.427   .     A
C616   H645    1.083   .     S
C616   C617    1.391   .     A
C617   C629    1.401   .     A
C617   O681    1.382   .     S
C618   C629    1.404   .     A
C618   O680    1.384   .     S
C619   C707    1.346   .     S
C619   H756    1.088   .     S
C621   O683    1.388   .     S
C621   C630    1.406   .     A
C621   C628    1.411   .     A
C622   C625    1.458   .     S
C622   C101    1.336   1_565 S
C622   O157    1.388   1_565 S
C623   H656    1.087   .     S
C623   C624    1.436   .     S
C624   O684    1.272   .     A
C624   O691    1.279   .     A
C625   O686    1.271   .     A
C625   O692    1.269   .     A
C626   C629    1.462   .     S
C626   O676    1.275   .     A
C626   O674    1.280   .     A
C627   C628    1.475   .     S
C627   O677    1.284   .     A
C627   O675    1.282   .     A
C628   C632    1.398   .     A
C630   C640    1.401   .     A
C630   H666    1.083   .     S
C631   H672    1.110   .     S
C631   O678    1.412   .     S
C631   H671    1.113   .     S
C631   H757    1.111   .     S
C632   H667    1.079   .     S
C632   C639    1.406   .     A
C633   H647    1.112   .     S
C633   H124    1.113   1_565 S
C633   H126    1.108   1_565 S
C633   O157    1.411   1_565 S
C634   H649    1.113   .     S
C634   O680    1.412   .     S
C634   H650    1.113   .     S
C634   H651    1.109   .     S
C635   O681    1.408   .     S
C635   H653    1.112   .     S
C635   H654    1.109   .     S
C635   H652    1.114   .     S
C636   H657    1.109   .     S
C636   H655    1.114   .     S
C636   O682    1.411   .     S
C636   H658    1.109   .     S
C637   O683    1.412   .     S
C637   H660    1.109   .     S
C637   H659    1.115   .     S
C638   O685    1.414   .     S
C638   H663    1.110   .     S
C638   H664    1.114   .     S
C638   H665    1.109   .     S
C639   C640    1.415   .     A
C639   C641    1.427   .     A
C640   C1427   1.393   .     S
C641   C1425   1.421   .     S
C642   C643    1.413   .     A
C642   C1424   1.421   1_554 S
C643   C644    1.388   .     A
C643   H662    1.078   .     S
C644   H668    1.084   .     S
C644   C1423   1.393   1_554 S
H661   C724    1.111   .     S
O673   Zn693   1.948   .     S
O673   Zn695   1.930   .     S
O673   Zn694   1.949   .     S
O673   Zn696   1.934   .     S
O674   Zn694   1.920   .     S
O675   Zn696   1.928   .     S
O676   Zn695   1.929   .     S
O677   Zn693   1.921   .     S
O678   C707    1.396   .     S
O684   Zn693   1.932   .     S
O686   Zn696   1.929   .     S
O687   Zn694   1.931   .     S
O688   Zn695   1.939   .     S
O689   Zn696   1.939   .     S
O690   Zn693   1.930   .     S
O691   Zn694   1.931   .     S
O692   Zn695   1.931   .     S
C697   C707    1.444   .     S
C697   O774    1.272   .     A
C697   O776    1.267   .     A
C698   C728    1.425   .     A
C698   O772    1.385   .     S
C698   C699    1.399   .     A
C699   O769    1.386   .     S
C699   C1484   1.407   .     S
C700   O777    1.267   .     A
C700   O775    1.282   .     A
C700   C706    1.457   .     S
C701   C703    1.405   .     A
C701   C702    1.424   .     A
C701   C1482   1.407   1_554 S
C702   C705    1.428   .     A
C702   C729    1.427   .     A
C703   H732    1.083   .     S
C703   C704    1.391   .     A
C704   C716    1.401   .     A
C704   O768    1.382   .     S
C705   C716    1.404   .     A
C705   O767    1.384   .     S
C706   C533    1.346   1_655 S
C706   H582    1.088   1_655 S
C708   O770    1.388   .     S
C708   C717    1.406   .     A
C708   C715    1.411   .     A
C709   C712    1.458   .     S
C709   C188    1.336   1_565 S
C709   O244    1.388   1_565 S
C710   H743    1.087   .     S
C710   C711    1.436   .     S
C711   O771    1.272   .     A
C711   O778    1.279   .     A
C712   O773    1.271   .     A
C712   O779    1.269   .     A
C713   C716    1.462   .     S
C713   O763    1.275   .     A
C713   O761    1.280   .     A
C714   C715    1.475   .     S
C714   O764    1.284   .     A
C714   O762    1.282   .     A
C715   C719    1.398   .     A
C717   C727    1.401   .     A
C717   H753    1.083   .     S
C718   H759    1.110   .     S
C718   O765    1.412   .     S
C718   H758    1.113   .     S
C718   H583    1.111   1_655 S
C719   H754    1.079   .     S
C719   C726    1.406   .     A
C720   H734    1.112   .     S
C720   H211    1.113   1_565 S
C720   H213    1.108   1_565 S
C720   O244    1.411   1_565 S
C721   H736    1.113   .     S
C721   O767    1.412   .     S
C721   H737    1.113   .     S
C721   H738    1.109   .     S
C722   O768    1.408   .     S
C722   H740    1.112   .     S
C722   H741    1.109   .     S
C722   H739    1.114   .     S
C723   H744    1.109   .     S
C723   H742    1.114   .     S
C723   O769    1.411   .     S
C723   H745    1.109   .     S
C724   O770    1.412   .     S
C724   H747    1.109   .     S
C724   H746    1.115   .     S
C725   O772    1.414   .     S
C725   H750    1.110   .     S
C725   H751    1.114   .     S
C725   H752    1.109   .     S
C726   C727    1.415   .     A
C726   C728    1.427   .     A
C727   C1514   1.393   .     S
C728   C1512   1.421   .     S
C729   C730    1.413   .     A
C729   C1511   1.421   1_554 S
C730   C731    1.388   .     A
C730   H749    1.078   .     S
C731   H755    1.084   .     S
C731   C1510   1.393   1_554 S
H748   C550    1.111   1_655 S
O760   Zn780   1.948   .     S
O760   Zn782   1.930   .     S
O760   Zn781   1.949   .     S
O760   Zn783   1.934   .     S
O761   Zn781   1.920   .     S
O762   Zn783   1.928   .     S
O763   Zn782   1.929   .     S
O764   Zn780   1.921   .     S
O765   C533    1.396   1_655 S
O771   Zn780   1.932   .     S
O773   Zn783   1.929   .     S
O774   Zn781   1.931   .     S
O775   Zn782   1.939   .     S
O776   Zn783   1.939   .     S
O777   Zn780   1.930   .     S
O778   Zn781   1.931   .     S
O779   Zn782   1.931   .     S
C784   C794    1.444   .     S
C784   O861    1.272   .     A
C784   O863    1.267   .     A
C785   C815    1.425   .     A
C785   O859    1.385   .     S
C785   C786    1.399   .     A
C786   O856    1.386   .     S
C786   C5      1.407   1_556 S
C787   O864    1.267   .     A
C787   O862    1.282   .     A
C787   C793    1.457   .     S
C788   C790    1.405   .     A
C788   C789    1.424   .     A
C789   C792    1.428   .     A
C789   C816    1.427   .     A
C790   H819    1.083   .     S
C790   C791    1.391   .     A
C791   C803    1.401   .     A
C791   O855    1.382   .     S
C792   C803    1.404   .     A
C792   O854    1.384   .     S
C793   C881    1.346   .     S
C793   H930    1.088   .     S
C794   C967    1.346   1_455 S
C794   O1026   1.396   1_455 S
C795   O857    1.388   .     S
C795   C804    1.406   .     A
C795   C802    1.411   .     A
C796   C799    1.458   .     S
C796   C1058   1.336   .     S
C796   O1114   1.388   .     S
C797   H830    1.087   .     S
C797   C798    1.436   .     S
C797   C1318   1.336   1_545 S
C798   O858    1.272   .     A
C798   O865    1.279   .     A
C799   O860    1.271   .     A
C799   O866    1.269   .     A
C800   C803    1.462   .     S
C800   O850    1.275   .     A
C800   O848    1.280   .     A
C801   C802    1.475   .     S
C801   O851    1.284   .     A
C801   O849    1.282   .     A
C802   C806    1.398   .     A
C804   C814    1.401   .     A
C804   H840    1.083   .     S
C805   H846    1.110   .     S
C805   O852    1.412   .     S
C805   H845    1.113   .     S
C805   H931    1.111   .     S
C806   H841    1.079   .     S
C806   C813    1.406   .     A
C807   H821    1.112   .     S
C807   H1081   1.113   .     S
C807   H1083   1.108   .     S
C807   O1114   1.411   .     S
C808   H823    1.113   .     S
C808   O854    1.412   .     S
C808   H824    1.113   .     S
C808   H825    1.109   .     S
C809   O855    1.408   .     S
C809   H827    1.112   .     S
C809   H828    1.109   .     S
C809   H826    1.114   .     S
C810   H831    1.109   .     S
C810   H829    1.114   .     S
C810   O856    1.411   .     S
C810   H832    1.109   .     S
C811   O857    1.412   .     S
C811   H834    1.109   .     S
C811   H833    1.115   .     S
C811   H1009   1.111   1_455 S
C812   O859    1.414   .     S
C812   H837    1.110   .     S
C812   H838    1.114   .     S
C812   H839    1.109   .     S
C813   C814    1.415   .     A
C813   C815    1.427   .     A
C814   C35     1.393   1_556 S
C815   C33     1.421   1_556 S
C816   C817    1.413   .     A
C817   C818    1.388   .     A
C817   H836    1.078   .     S
C818   H842    1.084   .     S
H820   C1329   1.113   1_545 S
H822   C1329   1.108   1_545 S
H835   C898    1.111   .     S
H843   C967    1.088   1_455 S
H844   C979    1.111   1_455 S
O847   Zn867   1.948   .     S
O847   Zn869   1.930   .     S
O847   Zn868   1.949   .     S
O847   Zn870   1.934   .     S
O848   Zn868   1.920   .     S
O849   Zn870   1.928   .     S
O850   Zn869   1.929   .     S
O851   Zn867   1.921   .     S
O852   C881    1.396   .     S
O853   C1318   1.388   1_545 S
O853   C1329   1.411   1_545 S
O858   Zn867   1.932   .     S
O860   Zn870   1.929   .     S
O861   Zn868   1.931   .     S
O862   Zn869   1.939   .     S
O863   Zn870   1.939   .     S
O864   Zn867   1.930   .     S
O865   Zn868   1.931   .     S
O866   Zn869   1.931   .     S
C871   C881    1.444   .     S
C871   O948    1.272   .     A
C871   O950    1.267   .     A
C872   C902    1.425   .     A
C872   O946    1.385   .     S
C872   C873    1.399   .     A
C873   O943    1.386   .     S
C873   C92     1.407   1_556 S
C874   O951    1.267   .     A
C874   O949    1.282   .     A
C874   C880    1.457   .     S
C875   C877    1.405   .     A
C875   C876    1.424   .     A
C876   C879    1.428   .     A
C876   C903    1.427   .     A
C877   H906    1.083   .     S
C877   C878    1.391   .     A
C878   C890    1.401   .     A
C878   O942    1.382   .     S
C879   C890    1.404   .     A
C879   O941    1.384   .     S
C880   C968    1.346   .     S
C880   H1017   1.088   .     S
C882   O944    1.388   .     S
C882   C891    1.406   .     A
C882   C889    1.411   .     A
C883   C886    1.458   .     S
C883   C1145   1.336   .     S
C883   O1201   1.388   .     S
C884   H917    1.087   .     S
C884   C885    1.436   .     S
C884   C1405   1.336   1_545 S
C885   O945    1.272   .     A
C885   O952    1.279   .     A
C886   O947    1.271   .     A
C886   O953    1.269   .     A
C887   C890    1.462   .     S
C887   O937    1.275   .     A
C887   O935    1.280   .     A
C888   C889    1.475   .     S
C888   O938    1.284   .     A
C888   O936    1.282   .     A
C889   C893    1.398   .     A
C891   C901    1.401   .     A
C891   H927    1.083   .     S
C892   H933    1.110   .     S
C892   O939    1.412   .     S
C892   H932    1.113   .     S
C892   H1018   1.111   .     S
C893   H928    1.079   .     S
C893   C900    1.406   .     A
C894   H908    1.112   .     S
C894   H1168   1.113   .     S
C894   H1170   1.108   .     S
C894   O1201   1.411   .     S
C895   H910    1.113   .     S
C895   O941    1.412   .     S
C895   H911    1.113   .     S
C895   H912    1.109   .     S
C896   O942    1.408   .     S
C896   H914    1.112   .     S
C896   H915    1.109   .     S
C896   H913    1.114   .     S
C897   H918    1.109   .     S
C897   H916    1.114   .     S
C897   O943    1.411   .     S
C897   H919    1.109   .     S
C898   O944    1.412   .     S
C898   H921    1.109   .     S
C898   H920    1.115   .     S
C899   O946    1.414   .     S
C899   H924    1.110   .     S
C899   H925    1.114   .     S
C899   H926    1.109   .     S
C900   C901    1.415   .     A
C900   C902    1.427   .     A
C901   C122    1.393   1_556 S
C902   C120    1.421   1_556 S
C903   C904    1.413   .     A
C904   C905    1.388   .     A
C904   H923    1.078   .     S
C905   H929    1.084   .     S
H907   C1416   1.113   1_545 S
H909   C1416   1.108   1_545 S
H922   C985    1.111   .     S
O934   Zn954   1.948   .     S
O934   Zn956   1.930   .     S
O934   Zn955   1.949   .     S
O934   Zn957   1.934   .     S
O935   Zn955   1.920   .     S
O936   Zn957   1.928   .     S
O937   Zn956   1.929   .     S
O938   Zn954   1.921   .     S
O939   C968    1.396   .     S
O940   C1405   1.388   1_545 S
O940   C1416   1.411   1_545 S
O945   Zn954   1.932   .     S
O947   Zn957   1.929   .     S
O948   Zn955   1.931   .     S
O949   Zn956   1.939   .     S
O950   Zn957   1.939   .     S
O951   Zn954   1.930   .     S
O952   Zn955   1.931   .     S
O953   Zn956   1.931   .     S
C958   C968    1.444   .     S
C958   O1035   1.272   .     A
C958   O1037   1.267   .     A
C959   C989    1.425   .     A
C959   O1033   1.385   .     S
C959   C960    1.399   .     A
C960   O1030   1.386   .     S
C960   C179    1.407   1_556 S
C961   O1038   1.267   .     A
C961   O1036   1.282   .     A
C961   C967    1.457   .     S
C962   C964    1.405   .     A
C962   C963    1.424   .     A
C963   C966    1.428   .     A
C963   C990    1.427   .     A
C964   H993    1.083   .     S
C964   C965    1.391   .     A
C965   C977    1.401   .     A
C965   O1029   1.382   .     S
C966   C977    1.404   .     A
C966   O1028   1.384   .     S
C967   C794    1.346   1_655 S
C967   H843    1.088   1_655 S
C969   O1031   1.388   .     S
C969   C978    1.406   .     A
C969   C976    1.411   .     A
C970   C973    1.458   .     S
C970   C1232   1.336   .     S
C970   O1288   1.388   .     S
C971   H1004   1.087   .     S
C971   C972    1.436   .     S
C971   C1492   1.336   1_545 S
C972   O1032   1.272   .     A
C972   O1039   1.279   .     A
C973   O1034   1.271   .     A
C973   O1040   1.269   .     A
C974   C977    1.462   .     S
C974   O1024   1.275   .     A
C974   O1022   1.280   .     A
C975   C976    1.475   .     S
C975   O1025   1.284   .     A
C975   O1023   1.282   .     A
C976   C980    1.398   .     A
C978   C988    1.401   .     A
C978   H1014   1.083   .     S
C979   H1020   1.110   .     S
C979   O1026   1.412   .     S
C979   H1019   1.113   .     S
C979   H844    1.111   1_655 S
C980   H1015   1.079   .     S
C980   C987    1.406   .     A
C981   H995    1.112   .     S
C981   H1255   1.113   .     S
C981   H1257   1.108   .     S
C981   O1288   1.411   .     S
C982   H997    1.113   .     S
C982   O1028   1.412   .     S
C982   H998    1.113   .     S
C982   H999    1.109   .     S
C983   O1029   1.408   .     S
C983   H1001   1.112   .     S
C983   H1002   1.109   .     S
C983   H1000   1.114   .     S
C984   H1005   1.109   .     S
C984   H1003   1.114   .     S
C984   O1030   1.411   .     S
C984   H1006   1.109   .     S
C985   O1031   1.412   .     S
C985   H1008   1.109   .     S
C985   H1007   1.115   .     S
C986   O1033   1.414   .     S
C986   H1011   1.110   .     S
C986   H1012   1.114   .     S
C986   H1013   1.109   .     S
C987   C988    1.415   .     A
C987   C989    1.427   .     A
C988   C209    1.393   1_556 S
C989   C207    1.421   1_556 S
C990   C991    1.413   .     A
C991   C992    1.388   .     A
C991   H1010   1.078   .     S
C992   H1016   1.084   .     S
H994   C1503   1.113   1_545 S
H996   C1503   1.108   1_545 S
H1009  C811    1.111   1_655 S
O1021  Zn1041  1.948   .     S
O1021  Zn1043  1.930   .     S
O1021  Zn1042  1.949   .     S
O1021  Zn1044  1.934   .     S
O1022  Zn1042  1.920   .     S
O1023  Zn1044  1.928   .     S
O1024  Zn1043  1.929   .     S
O1025  Zn1041  1.921   .     S
O1026  C794    1.396   1_655 S
O1027  C1492   1.388   1_545 S
O1027  C1503   1.411   1_545 S
O1032  Zn1041  1.932   .     S
O1034  Zn1044  1.929   .     S
O1035  Zn1042  1.931   .     S
O1036  Zn1043  1.939   .     S
O1037  Zn1044  1.939   .     S
O1038  Zn1041  1.930   .     S
O1039  Zn1042  1.931   .     S
O1040  Zn1043  1.931   .     S
C1045  C1055   1.444   .     S
C1045  O1122   1.272   .     A
C1045  O1124   1.267   .     A
C1046  C1076   1.425   .     A
C1046  O1120   1.385   .     S
C1046  C1047   1.399   .     A
C1047  O1117   1.386   .     S
C1047  C266    1.407   1_556 S
C1048  O1125   1.267   .     A
C1048  O1123   1.282   .     A
C1048  C1054   1.457   .     S
C1049  C1051   1.405   .     A
C1049  C1050   1.424   .     A
C1050  C1053   1.428   .     A
C1050  C1077   1.427   .     A
C1051  H1080   1.083   .     S
C1051  C1052   1.391   .     A
C1052  C1064   1.401   .     A
C1052  O1116   1.382   .     S
C1053  C1064   1.404   .     A
C1053  O1115   1.384   .     S
C1054  C1142   1.346   .     S
C1054  H1191   1.088   .     S
C1055  C1228   1.346   1_455 S
C1055  O1287   1.396   1_455 S
C1056  O1118   1.388   .     S
C1056  C1065   1.406   .     A
C1056  C1063   1.411   .     A
C1057  C1060   1.458   .     S
C1057  C1319   1.336   .     S
C1057  O1375   1.388   .     S
C1058  H1091   1.087   .     S
C1058  C1059   1.436   .     S
C1059  O1119   1.272   .     A
C1059  O1126   1.279   .     A
C1060  O1121   1.271   .     A
C1060  O1127   1.269   .     A
C1061  C1064   1.462   .     S
C1061  O1111   1.275   .     A
C1061  O1109   1.280   .     A
C1062  C1063   1.475   .     S
C1062  O1112   1.284   .     A
C1062  O1110   1.282   .     A
C1063  C1067   1.398   .     A
C1065  C1075   1.401   .     A
C1065  H1101   1.083   .     S
C1066  H1107   1.110   .     S
C1066  O1113   1.412   .     S
C1066  H1106   1.113   .     S
C1066  H1192   1.111   .     S
C1067  H1102   1.079   .     S
C1067  C1074   1.406   .     A
C1068  H1082   1.112   .     S
C1068  H1342   1.113   .     S
C1068  H1344   1.108   .     S
C1068  O1375   1.411   .     S
C1069  H1084   1.113   .     S
C1069  O1115   1.412   .     S
C1069  H1085   1.113   .     S
C1069  H1086   1.109   .     S
C1070  O1116   1.408   .     S
C1070  H1088   1.112   .     S
C1070  H1089   1.109   .     S
C1070  H1087   1.114   .     S
C1071  H1092   1.109   .     S
C1071  H1090   1.114   .     S
C1071  O1117   1.411   .     S
C1071  H1093   1.109   .     S
C1072  O1118   1.412   .     S
C1072  H1095   1.109   .     S
C1072  H1094   1.115   .     S
C1072  H1270   1.111   1_455 S
C1073  O1120   1.414   .     S
C1073  H1098   1.110   .     S
C1073  H1099   1.114   .     S
C1073  H1100   1.109   .     S
C1074  C1075   1.415   .     A
C1074  C1076   1.427   .     A
C1075  C296    1.393   1_556 S
C1076  C294    1.421   1_556 S
C1077  C1078   1.413   .     A
C1078  C1079   1.388   .     A
C1078  H1097   1.078   .     S
C1079  H1103   1.084   .     S
H1096  C1159   1.111   .     S
H1104  C1228   1.088   1_455 S
H1105  C1240   1.111   1_455 S
O1108  Zn1128  1.948   .     S
O1108  Zn1130  1.930   .     S
O1108  Zn1129  1.949   .     S
O1108  Zn1131  1.934   .     S
O1109  Zn1129  1.920   .     S
O1110  Zn1131  1.928   .     S
O1111  Zn1130  1.929   .     S
O1112  Zn1128  1.921   .     S
O1113  C1142   1.396   .     S
O1119  Zn1128  1.932   .     S
O1121  Zn1131  1.929   .     S
O1122  Zn1129  1.931   .     S
O1123  Zn1130  1.939   .     S
O1124  Zn1131  1.939   .     S
O1125  Zn1128  1.930   .     S
O1126  Zn1129  1.931   .     S
O1127  Zn1130  1.931   .     S
C1132  C1142   1.444   .     S
C1132  O1209   1.272   .     A
C1132  O1211   1.267   .     A
C1133  C1163   1.425   .     A
C1133  O1207   1.385   .     S
C1133  C1134   1.399   .     A
C1134  O1204   1.386   .     S
C1134  C353    1.407   1_556 S
C1135  O1212   1.267   .     A
C1135  O1210   1.282   .     A
C1135  C1141   1.457   .     S
C1136  C1138   1.405   .     A
C1136  C1137   1.424   .     A
C1137  C1140   1.428   .     A
C1137  C1164   1.427   .     A
C1138  H1167   1.083   .     S
C1138  C1139   1.391   .     A
C1139  C1151   1.401   .     A
C1139  O1203   1.382   .     S
C1140  C1151   1.404   .     A
C1140  O1202   1.384   .     S
C1141  C1229   1.346   .     S
C1141  H1278   1.088   .     S
C1143  O1205   1.388   .     S
C1143  C1152   1.406   .     A
C1143  C1150   1.411   .     A
C1144  C1147   1.458   .     S
C1144  C1406   1.336   .     S
C1144  O1462   1.388   .     S
C1145  H1178   1.087   .     S
C1145  C1146   1.436   .     S
C1146  O1206   1.272   .     A
C1146  O1213   1.279   .     A
C1147  O1208   1.271   .     A
C1147  O1214   1.269   .     A
C1148  C1151   1.462   .     S
C1148  O1198   1.275   .     A
C1148  O1196   1.280   .     A
C1149  C1150   1.475   .     S
C1149  O1199   1.284   .     A
C1149  O1197   1.282   .     A
C1150  C1154   1.398   .     A
C1152  C1162   1.401   .     A
C1152  H1188   1.083   .     S
C1153  H1194   1.110   .     S
C1153  O1200   1.412   .     S
C1153  H1193   1.113   .     S
C1153  H1279   1.111   .     S
C1154  H1189   1.079   .     S
C1154  C1161   1.406   .     A
C1155  H1169   1.112   .     S
C1155  H1429   1.113   .     S
C1155  H1431   1.108   .     S
C1155  O1462   1.411   .     S
C1156  H1171   1.113   .     S
C1156  O1202   1.412   .     S
C1156  H1172   1.113   .     S
C1156  H1173   1.109   .     S
C1157  O1203   1.408   .     S
C1157  H1175   1.112   .     S
C1157  H1176   1.109   .     S
C1157  H1174   1.114   .     S
C1158  H1179   1.109   .     S
C1158  H1177   1.114   .     S
C1158  O1204   1.411   .     S
C1158  H1180   1.109   .     S
C1159  O1205   1.412   .     S
C1159  H1182   1.109   .     S
C1159  H1181   1.115   .     S
C1160  O1207   1.414   .     S
C1160  H1185   1.110   .     S
C1160  H1186   1.114   .     S
C1160  H1187   1.109   .     S
C1161  C1162   1.415   .     A
C1161  C1163   1.427   .     A
C1162  C383    1.393   1_556 S
C1163  C381    1.421   1_556 S
C1164  C1165   1.413   .     A
C1165  C1166   1.388   .     A
C1165  H1184   1.078   .     S
C1166  H1190   1.084   .     S
H1183  C1246   1.111   .     S
O1195  Zn1215  1.948   .     S
O1195  Zn1217  1.930   .     S
O1195  Zn1216  1.949   .     S
O1195  Zn1218  1.934   .     S
O1196  Zn1216  1.920   .     S
O1197  Zn1218  1.928   .     S
O1198  Zn1217  1.929   .     S
O1199  Zn1215  1.921   .     S
O1200  C1229   1.396   .     S
O1206  Zn1215  1.932   .     S
O1208  Zn1218  1.929   .     S
O1209  Zn1216  1.931   .     S
O1210  Zn1217  1.939   .     S
O1211  Zn1218  1.939   .     S
O1212  Zn1215  1.930   .     S
O1213  Zn1216  1.931   .     S
O1214  Zn1217  1.931   .     S
C1219  C1229   1.444   .     S
C1219  O1296   1.272   .     A
C1219  O1298   1.267   .     A
C1220  C1250   1.425   .     A
C1220  O1294   1.385   .     S
C1220  C1221   1.399   .     A
C1221  O1291   1.386   .     S
C1221  C440    1.407   1_556 S
C1222  O1299   1.267   .     A
C1222  O1297   1.282   .     A
C1222  C1228   1.457   .     S
C1223  C1225   1.405   .     A
C1223  C1224   1.424   .     A
C1224  C1227   1.428   .     A
C1224  C1251   1.427   .     A
C1225  H1254   1.083   .     S
C1225  C1226   1.391   .     A
C1226  C1238   1.401   .     A
C1226  O1290   1.382   .     S
C1227  C1238   1.404   .     A
C1227  O1289   1.384   .     S
C1228  C1055   1.346   1_655 S
C1228  H1104   1.088   1_655 S
C1230  O1292   1.388   .     S
C1230  C1239   1.406   .     A
C1230  C1237   1.411   .     A
C1231  C1234   1.458   .     S
C1231  C1493   1.336   .     S
C1231  O1549   1.388   .     S
C1232  H1265   1.087   .     S
C1232  C1233   1.436   .     S
C1233  O1293   1.272   .     A
C1233  O1300   1.279   .     A
C1234  O1295   1.271   .     A
C1234  O1301   1.269   .     A
C1235  C1238   1.462   .     S
C1235  O1285   1.275   .     A
C1235  O1283   1.280   .     A
C1236  C1237   1.475   .     S
C1236  O1286   1.284   .     A
C1236  O1284   1.282   .     A
C1237  C1241   1.398   .     A
C1239  C1249   1.401   .     A
C1239  H1275   1.083   .     S
C1240  H1281   1.110   .     S
C1240  O1287   1.412   .     S
C1240  H1280   1.113   .     S
C1240  H1105   1.111   1_655 S
C1241  H1276   1.079   .     S
C1241  C1248   1.406   .     A
C1242  H1256   1.112   .     S
C1242  H1516   1.113   .     S
C1242  H1518   1.108   .     S
C1242  O1549   1.411   .     S
C1243  H1258   1.113   .     S
C1243  O1289   1.412   .     S
C1243  H1259   1.113   .     S
C1243  H1260   1.109   .     S
C1244  O1290   1.408   .     S
C1244  H1262   1.112   .     S
C1244  H1263   1.109   .     S
C1244  H1261   1.114   .     S
C1245  H1266   1.109   .     S
C1245  H1264   1.114   .     S
C1245  O1291   1.411   .     S
C1245  H1267   1.109   .     S
C1246  O1292   1.412   .     S
C1246  H1269   1.109   .     S
C1246  H1268   1.115   .     S
C1247  O1294   1.414   .     S
C1247  H1272   1.110   .     S
C1247  H1273   1.114   .     S
C1247  H1274   1.109   .     S
C1248  C1249   1.415   .     A
C1248  C1250   1.427   .     A
C1249  C470    1.393   1_556 S
C1250  C468    1.421   1_556 S
C1251  C1252   1.413   .     A
C1252  C1253   1.388   .     A
C1252  H1271   1.078   .     S
C1253  H1277   1.084   .     S
H1270  C1072   1.111   1_655 S
O1282  Zn1302  1.948   .     S
O1282  Zn1304  1.930   .     S
O1282  Zn1303  1.949   .     S
O1282  Zn1305  1.934   .     S
O1283  Zn1303  1.920   .     S
O1284  Zn1305  1.928   .     S
O1285  Zn1304  1.929   .     S
O1286  Zn1302  1.921   .     S
O1287  C1055   1.396   1_655 S
O1293  Zn1302  1.932   .     S
O1295  Zn1305  1.929   .     S
O1296  Zn1303  1.931   .     S
O1297  Zn1304  1.939   .     S
O1298  Zn1305  1.939   .     S
O1299  Zn1302  1.930   .     S
O1300  Zn1303  1.931   .     S
O1301  Zn1304  1.931   .     S
C1306  C1316   1.444   .     S
C1306  O1383   1.272   .     A
C1306  O1385   1.267   .     A
C1307  C1337   1.425   .     A
C1307  O1381   1.385   .     S
C1307  C1308   1.399   .     A
C1308  O1378   1.386   .     S
C1308  C527    1.407   1_556 S
C1309  O1386   1.267   .     A
C1309  O1384   1.282   .     A
C1309  C1315   1.457   .     S
C1310  C1312   1.405   .     A
C1310  C1311   1.424   .     A
C1311  C1314   1.428   .     A
C1311  C1338   1.427   .     A
C1312  H1341   1.083   .     S
C1312  C1313   1.391   .     A
C1313  C1325   1.401   .     A
C1313  O1377   1.382   .     S
C1314  C1325   1.404   .     A
C1314  O1376   1.384   .     S
C1315  C1403   1.346   .     S
C1315  H1452   1.088   .     S
C1316  C1489   1.346   1_455 S
C1316  O1548   1.396   1_455 S
C1317  O1379   1.388   .     S
C1317  C1326   1.406   .     A
C1317  C1324   1.411   .     A
C1318  C1321   1.458   .     S
C1318  C797    1.336   1_565 S
C1318  O853    1.388   1_565 S
C1319  H1352   1.087   .     S
C1319  C1320   1.436   .     S
C1320  O1380   1.272   .     A
C1320  O1387   1.279   .     A
C1321  O1382   1.271   .     A
C1321  O1388   1.269   .     A
C1322  C1325   1.462   .     S
C1322  O1372   1.275   .     A
C1322  O1370   1.280   .     A
C1323  C1324   1.475   .     S
C1323  O1373   1.284   .     A
C1323  O1371   1.282   .     A
C1324  C1328   1.398   .     A
C1326  C1336   1.401   .     A
C1326  H1362   1.083   .     S
C1327  H1368   1.110   .     S
C1327  O1374   1.412   .     S
C1327  H1367   1.113   .     S
C1327  H1453   1.111   .     S
C1328  H1363   1.079   .     S
C1328  C1335   1.406   .     A
C1329  H1343   1.112   .     S
C1329  H820    1.113   1_565 S
C1329  H822    1.108   1_565 S
C1329  O853    1.411   1_565 S
C1330  H1345   1.113   .     S
C1330  O1376   1.412   .     S
C1330  H1346   1.113   .     S
C1330  H1347   1.109   .     S
C1331  O1377   1.408   .     S
C1331  H1349   1.112   .     S
C1331  H1350   1.109   .     S
C1331  H1348   1.114   .     S
C1332  H1353   1.109   .     S
C1332  H1351   1.114   .     S
C1332  O1378   1.411   .     S
C1332  H1354   1.109   .     S
C1333  O1379   1.412   .     S
C1333  H1356   1.109   .     S
C1333  H1355   1.115   .     S
C1333  H1531   1.111   1_455 S
C1334  O1381   1.414   .     S
C1334  H1359   1.110   .     S
C1334  H1360   1.114   .     S
C1334  H1361   1.109   .     S
C1335  C1336   1.415   .     A
C1335  C1337   1.427   .     A
C1336  C557    1.393   1_556 S
C1337  C555    1.421   1_556 S
C1338  C1339   1.413   .     A
C1339  C1340   1.388   .     A
C1339  H1358   1.078   .     S
C1340  H1364   1.084   .     S
H1357  C1420   1.111   .     S
H1365  C1489   1.088   1_455 S
H1366  C1501   1.111   1_455 S
O1369  Zn1389  1.948   .     S
O1369  Zn1391  1.930   .     S
O1369  Zn1390  1.949   .     S
O1369  Zn1392  1.934   .     S
O1370  Zn1390  1.920   .     S
O1371  Zn1392  1.928   .     S
O1372  Zn1391  1.929   .     S
O1373  Zn1389  1.921   .     S
O1374  C1403   1.396   .     S
O1380  Zn1389  1.932   .     S
O1382  Zn1392  1.929   .     S
O1383  Zn1390  1.931   .     S
O1384  Zn1391  1.939   .     S
O1385  Zn1392  1.939   .     S
O1386  Zn1389  1.930   .     S
O1387  Zn1390  1.931   .     S
O1388  Zn1391  1.931   .     S
C1393  C1403   1.444   .     S
C1393  O1470   1.272   .     A
C1393  O1472   1.267   .     A
C1394  C1424   1.425   .     A
C1394  O1468   1.385   .     S
C1394  C1395   1.399   .     A
C1395  O1465   1.386   .     S
C1395  C614    1.407   1_556 S
C1396  O1473   1.267   .     A
C1396  O1471   1.282   .     A
C1396  C1402   1.457   .     S
C1397  C1399   1.405   .     A
C1397  C1398   1.424   .     A
C1398  C1401   1.428   .     A
C1398  C1425   1.427   .     A
C1399  H1428   1.083   .     S
C1399  C1400   1.391   .     A
C1400  C1412   1.401   .     A
C1400  O1464   1.382   .     S
C1401  C1412   1.404   .     A
C1401  O1463   1.384   .     S
C1402  C1490   1.346   .     S
C1402  H1539   1.088   .     S
C1404  O1466   1.388   .     S
C1404  C1413   1.406   .     A
C1404  C1411   1.411   .     A
C1405  C1408   1.458   .     S
C1405  C884    1.336   1_565 S
C1405  O940    1.388   1_565 S
C1406  H1439   1.087   .     S
C1406  C1407   1.436   .     S
C1407  O1467   1.272   .     A
C1407  O1474   1.279   .     A
C1408  O1469   1.271   .     A
C1408  O1475   1.269   .     A
C1409  C1412   1.462   .     S
C1409  O1459   1.275   .     A
C1409  O1457   1.280   .     A
C1410  C1411   1.475   .     S
C1410  O1460   1.284   .     A
C1410  O1458   1.282   .     A
C1411  C1415   1.398   .     A
C1413  C1423   1.401   .     A
C1413  H1449   1.083   .     S
C1414  H1455   1.110   .     S
C1414  O1461   1.412   .     S
C1414  H1454   1.113   .     S
C1414  H1540   1.111   .     S
C1415  H1450   1.079   .     S
C1415  C1422   1.406   .     A
C1416  H1430   1.112   .     S
C1416  H907    1.113   1_565 S
C1416  H909    1.108   1_565 S
C1416  O940    1.411   1_565 S
C1417  H1432   1.113   .     S
C1417  O1463   1.412   .     S
C1417  H1433   1.113   .     S
C1417  H1434   1.109   .     S
C1418  O1464   1.408   .     S
C1418  H1436   1.112   .     S
C1418  H1437   1.109   .     S
C1418  H1435   1.114   .     S
C1419  H1440   1.109   .     S
C1419  H1438   1.114   .     S
C1419  O1465   1.411   .     S
C1419  H1441   1.109   .     S
C1420  O1466   1.412   .     S
C1420  H1443   1.109   .     S
C1420  H1442   1.115   .     S
C1421  O1468   1.414   .     S
C1421  H1446   1.110   .     S
C1421  H1447   1.114   .     S
C1421  H1448   1.109   .     S
C1422  C1423   1.415   .     A
C1422  C1424   1.427   .     A
C1423  C644    1.393   1_556 S
C1424  C642    1.421   1_556 S
C1425  C1426   1.413   .     A
C1426  C1427   1.388   .     A
C1426  H1445   1.078   .     S
C1427  H1451   1.084   .     S
H1444  C1507   1.111   .     S
O1456  Zn1476  1.948   .     S
O1456  Zn1478  1.930   .     S
O1456  Zn1477  1.949   .     S
O1456  Zn1479  1.934   .     S
O1457  Zn1477  1.920   .     S
O1458  Zn1479  1.928   .     S
O1459  Zn1478  1.929   .     S
O1460  Zn1476  1.921   .     S
O1461  C1490   1.396   .     S
O1467  Zn1476  1.932   .     S
O1469  Zn1479  1.929   .     S
O1470  Zn1477  1.931   .     S
O1471  Zn1478  1.939   .     S
O1472  Zn1479  1.939   .     S
O1473  Zn1476  1.930   .     S
O1474  Zn1477  1.931   .     S
O1475  Zn1478  1.931   .     S
C1480  C1490   1.444   .     S
C1480  O1557   1.272   .     A
C1480  O1559   1.267   .     A
C1481  C1511   1.425   .     A
C1481  O1555   1.385   .     S
C1481  C1482   1.399   .     A
C1482  O1552   1.386   .     S
C1482  C701    1.407   1_556 S
C1483  O1560   1.267   .     A
C1483  O1558   1.282   .     A
C1483  C1489   1.457   .     S
C1484  C1486   1.405   .     A
C1484  C1485   1.424   .     A
C1485  C1488   1.428   .     A
C1485  C1512   1.427   .     A
C1486  H1515   1.083   .     S
C1486  C1487   1.391   .     A
C1487  C1499   1.401   .     A
C1487  O1551   1.382   .     S
C1488  C1499   1.404   .     A
C1488  O1550   1.384   .     S
C1489  C1316   1.346   1_655 S
C1489  H1365   1.088   1_655 S
C1491  O1553   1.388   .     S
C1491  C1500   1.406   .     A
C1491  C1498   1.411   .     A
C1492  C1495   1.458   .     S
C1492  C971    1.336   1_565 S
C1492  O1027   1.388   1_565 S
C1493  H1526   1.087   .     S
C1493  C1494   1.436   .     S
C1494  O1554   1.272   .     A
C1494  O1561   1.279   .     A
C1495  O1556   1.271   .     A
C1495  O1562   1.269   .     A
C1496  C1499   1.462   .     S
C1496  O1546   1.275   .     A
C1496  O1544   1.280   .     A
C1497  C1498   1.475   .     S
C1497  O1547   1.284   .     A
C1497  O1545   1.282   .     A
C1498  C1502   1.398   .     A
C1500  C1510   1.401   .     A
C1500  H1536   1.083   .     S
C1501  H1542   1.110   .     S
C1501  O1548   1.412   .     S
C1501  H1541   1.113   .     S
C1501  H1366   1.111   1_655 S
C1502  H1537   1.079   .     S
C1502  C1509   1.406   .     A
C1503  H1517   1.112   .     S
C1503  H994    1.113   1_565 S
C1503  H996    1.108   1_565 S
C1503  O1027   1.411   1_565 S
C1504  H1519   1.113   .     S
C1504  O1550   1.412   .     S
C1504  H1520   1.113   .     S
C1504  H1521   1.109   .     S
C1505  O1551   1.408   .     S
C1505  H1523   1.112   .     S
C1505  H1524   1.109   .     S
C1505  H1522   1.114   .     S
C1506  H1527   1.109   .     S
C1506  H1525   1.114   .     S
C1506  O1552   1.411   .     S
C1506  H1528   1.109   .     S
C1507  O1553   1.412   .     S
C1507  H1530   1.109   .     S
C1507  H1529   1.115   .     S
C1508  O1555   1.414   .     S
C1508  H1533   1.110   .     S
C1508  H1534   1.114   .     S
C1508  H1535   1.109   .     S
C1509  C1510   1.415   .     A
C1509  C1511   1.427   .     A
C1510  C731    1.393   1_556 S
C1511  C729    1.421   1_556 S
C1512  C1513   1.413   .     A
C1513  C1514   1.388   .     A
C1513  H1532   1.078   .     S
C1514  H1538   1.084   .     S
H1531  C1333   1.111   1_655 S
O1543  Zn1563  1.948   .     S
O1543  Zn1565  1.930   .     S
O1543  Zn1564  1.949   .     S
O1543  Zn1566  1.934   .     S
O1544  Zn1564  1.920   .     S
O1545  Zn1566  1.928   .     S
O1546  Zn1565  1.929   .     S
O1547  Zn1563  1.921   .     S
O1548  C1316   1.396   1_655 S
O1554  Zn1563  1.932   .     S
O1556  Zn1566  1.929   .     S
O1557  Zn1564  1.931   .     S
O1558  Zn1565  1.939   .     S
O1559  Zn1566  1.939   .     S
O1560  Zn1563  1.930   .     S
O1561  Zn1564  1.931   .     S
O1562  Zn1565  1.931   .     S
