data_str_m3_o1_o17_pcu_sym.134
_audit_creation_date              2020-01-03
_audit_creation_method            'Materials Studio'
_symmetry_space_group_name_H-M    'P1'
_symmetry_Int_Tables_number       1
_symmetry_cell_setting            triclinic
loop_
_symmetry_equiv_pos_as_xyz
  x,y,z
_cell_length_a                    32.4936
_cell_length_b                    29.4467
_cell_length_c                    29.9671
_cell_angle_alpha                 89.6863
_cell_angle_beta                  90.8919
_cell_angle_gamma                 89.3547
loop_
_atom_site_label
_atom_site_type_symbol
_atom_site_fract_x
_atom_site_fract_y
_atom_site_fract_z
_atom_site_U_iso_or_equiv
_atom_site_adp_type
_atom_site_occupancy
C1     C     0.08679   0.16703   0.24588   0.00000  Uiso   1.00
C2     C     0.24694   0.16640   0.25096   0.00000  Uiso   1.00
C3     C     0.09846   0.13544   0.02341   0.00000  Uiso   1.00
C4     C     0.24537   0.16516   0.47791   0.00000  Uiso   1.00
C5     C     0.02178   0.12691   0.23170   0.00000  Uiso   1.00
C6     C     0.31266   0.20785   0.25386   0.00000  Uiso   1.00
C7     C     0.31305   0.12543   0.23884   0.00000  Uiso   1.00
C8     C     0.02090   0.20927   0.24494   0.00000  Uiso   1.00
C9     C     0.29157   0.16610   0.24966   0.00000  Uiso   1.00
C10    C     0.04263   0.16803   0.23903   0.00000  Uiso   1.00
C11    C     0.17900   0.02364   0.28708   0.00000  Uiso   1.00
C12    C     0.15478   0.30969   0.21277   0.00000  Uiso   1.00
C13    C     0.15482   0.02432   0.21276   0.00000  Uiso   1.00
C14    C     0.17900   0.30899   0.28709   0.00000  Uiso   1.00
C15    C     0.16638   0.16688   0.16346   0.00000  Uiso   1.00
C16    C     0.16659   0.16641   0.33649   0.00000  Uiso   1.00
C17    C     0.20550   0.16876   0.40677   0.00000  Uiso   1.00
C18    C     0.13102   0.16644   0.09077   0.00000  Uiso   1.00
C19    C     0.16754   0.16460   0.38442   0.00000  Uiso   1.00
C20    C     0.16786   0.16724   0.11557   0.00000  Uiso   1.00
C21    C     0.13116   0.15485   0.40687   0.00000  Uiso   1.00
C22    C     0.20634   0.16537   0.09495   0.00000  Uiso   1.00
C23    C     0.13303   0.14766   0.45325   0.00000  Uiso   1.00
C24    C     0.20799   0.16505   0.04784   0.00000  Uiso   1.00
C25    C     0.17061   0.15589   0.47670   0.00000  Uiso   1.00
C26    C     0.17074   0.15753   0.02356   0.00000  Uiso   1.00
C27    C     0.20770   0.16307   0.45346   0.00000  Uiso   1.00
C28    C     0.13285   0.15378   0.04596   0.00000  Uiso   1.00
C29    C     0.09901   0.13109   0.47713   0.00000  Uiso   1.00
C30    C     0.24517   0.17045   0.02413   0.00000  Uiso   1.00
H31    H     0.18902   0.04149   0.31668   0.00000  Uiso   1.00
H32    H     0.14524   0.29185   0.18299   0.00000  Uiso   1.00
H33    H     0.14554   0.04269   0.18291   0.00000  Uiso   1.00
H34    H     0.18907   0.29058   0.31668   0.00000  Uiso   1.00
N35    N     0.16667   0.28573   0.25000   0.00000  Uiso   1.00
N36    N     0.16667   0.04760   0.25000   0.00000  Uiso   1.00
O37    O     0.10559   0.20487   0.24999   0.00000  Uiso   1.00
O38    O     0.22774   0.12846   0.25000   0.00000  Uiso   1.00
O39    O     0.22774   0.20487   0.25000   0.00000  Uiso   1.00
O40    O     0.10559   0.12846   0.24999   0.00000  Uiso   1.00
O41    O     0.16666   0.20489   0.18392   0.00000  Uiso   1.00
O42    O     0.16667   0.12844   0.31607   0.00000  Uiso   1.00
O43    O     0.16667   0.20489   0.31607   0.00000  Uiso   1.00
O44    O     0.16666   0.12844   0.18392   0.00000  Uiso   1.00
Zn45   Zn    0.16667   0.21771   0.25000   0.00000  Uiso   1.00
Zn46   Zn    0.16667   0.11563   0.25000   0.00000  Uiso   1.00
C47    C     0.24109   0.18481   0.38112   0.00000  Uiso   1.00
O48    O     0.25266   0.22392   0.38543   0.00000  Uiso   1.00
O49    O     0.26205   0.15467   0.35348   0.00000  Uiso   1.00
H50    H     0.28808   0.16829   0.34129   0.00000  Uiso   1.00
C51    C     0.09202   0.18532   0.10916   0.00000  Uiso   1.00
O52    O     0.08279   0.17845   0.14788   0.00000  Uiso   1.00
O53    O     0.06591   0.21166   0.08165   0.00000  Uiso   1.00
H54    H     0.04054   0.22286   0.09773   0.00000  Uiso   1.00
C55    C     0.09095   0.15968   0.38259   0.00000  Uiso   1.00
O56    O     0.08363   0.13670   0.34961   0.00000  Uiso   1.00
O57    O     0.06137   0.19038   0.39809   0.00000  Uiso   1.00
H58    H     0.03527   0.19061   0.37908   0.00000  Uiso   1.00
C59    C     0.24384   0.16274   0.12354   0.00000  Uiso   1.00
O60    O     0.26464   0.12790   0.12455   0.00000  Uiso   1.00
O61    O     0.25589   0.20072   0.14800   0.00000  Uiso   1.00
H62    H     0.28396   0.19638   0.16264   0.00000  Uiso   1.00
Cl63   Cl    0.05985   0.09849   0.45116   0.00000  Uiso   1.00
Cl64   Cl    0.29179   0.18992   0.04888   0.00000  Uiso   1.00
Cl65   Cl    0.05718   0.11110   0.05314   0.00000  Uiso   1.00
Cl66   Cl    0.29418   0.15562   0.45339   0.00000  Uiso   1.00
C67    C     0.04320   0.08580   0.21416   0.00000  Uiso   1.00
O68    O     0.04365   0.05037   0.23565   0.00000  Uiso   1.00
O69    O     0.06257   0.08798   0.17293   0.00000  Uiso   1.00
H70    H     0.07449   0.05761   0.16360   0.00000  Uiso   1.00
C71    C     0.29207   0.25090   0.26712   0.00000  Uiso   1.00
O72    O     0.28763   0.25949   0.30660   0.00000  Uiso   1.00
O73    O     0.27796   0.28132   0.23424   0.00000  Uiso   1.00
H74    H     0.26284   0.30822   0.24739   0.00000  Uiso   1.00
C75    C     0.29253   0.08083   0.23420   0.00000  Uiso   1.00
O76    O     0.28276   0.05971   0.26757   0.00000  Uiso   1.00
O77    O     0.28527   0.06300   0.19174   0.00000  Uiso   1.00
H78    H     0.27026   0.03307   0.19257   0.00000  Uiso   1.00
C79    C     0.04043   0.25443   0.23904   0.00000  Uiso   1.00
O80    O     0.04319   0.28064   0.27045   0.00000  Uiso   1.00
O81    O     0.05552   0.26654   0.19727   0.00000  Uiso   1.00
H82    H     0.06702   0.29838   0.19684   0.00000  Uiso   1.00
C83    C     0.42012   0.16703   0.24588   0.00000  Uiso   1.00
C84    C     0.58028   0.16640   0.25096   0.00000  Uiso   1.00
C85    C     0.43179   0.13544   0.02341   0.00000  Uiso   1.00
C86    C     0.57871   0.16516   0.47791   0.00000  Uiso   1.00
C87    C     0.35512   0.12691   0.23170   0.00000  Uiso   1.00
C88    C     0.64599   0.20785   0.25386   0.00000  Uiso   1.00
C89    C     0.64638   0.12543   0.23884   0.00000  Uiso   1.00
C90    C     0.35423   0.20927   0.24494   0.00000  Uiso   1.00
C91    C     0.62490   0.16610   0.24966   0.00000  Uiso   1.00
C92    C     0.37597   0.16803   0.23903   0.00000  Uiso   1.00
C93    C     0.51234   0.02364   0.28708   0.00000  Uiso   1.00
C94    C     0.48811   0.30969   0.21277   0.00000  Uiso   1.00
C95    C     0.48815   0.02432   0.21276   0.00000  Uiso   1.00
C96    C     0.51233   0.30899   0.28709   0.00000  Uiso   1.00
C97    C     0.49971   0.16688   0.16346   0.00000  Uiso   1.00
C98    C     0.49993   0.16641   0.33649   0.00000  Uiso   1.00
C99    C     0.53884   0.16876   0.40677   0.00000  Uiso   1.00
C100   C     0.46435   0.16644   0.09077   0.00000  Uiso   1.00
C101   C     0.50087   0.16460   0.38442   0.00000  Uiso   1.00
C102   C     0.50119   0.16724   0.11557   0.00000  Uiso   1.00
C103   C     0.46449   0.15485   0.40687   0.00000  Uiso   1.00
C104   C     0.53968   0.16537   0.09495   0.00000  Uiso   1.00
C105   C     0.46636   0.14766   0.45325   0.00000  Uiso   1.00
C106   C     0.54133   0.16505   0.04784   0.00000  Uiso   1.00
C107   C     0.50395   0.15589   0.47670   0.00000  Uiso   1.00
C108   C     0.50407   0.15753   0.02356   0.00000  Uiso   1.00
C109   C     0.54103   0.16307   0.45346   0.00000  Uiso   1.00
C110   C     0.46618   0.15378   0.04596   0.00000  Uiso   1.00
C111   C     0.43235   0.13109   0.47713   0.00000  Uiso   1.00
C112   C     0.57850   0.17045   0.02413   0.00000  Uiso   1.00
H113   H     0.52235   0.04149   0.31668   0.00000  Uiso   1.00
H114   H     0.47857   0.29185   0.18299   0.00000  Uiso   1.00
H115   H     0.47887   0.04269   0.18291   0.00000  Uiso   1.00
H116   H     0.52240   0.29058   0.31668   0.00000  Uiso   1.00
N117   N     0.50000   0.28573   0.25000   0.00000  Uiso   1.00
N118   N     0.50000   0.04760   0.25000   0.00000  Uiso   1.00
O119   O     0.43892   0.20487   0.24999   0.00000  Uiso   1.00
O120   O     0.56108   0.12846   0.25000   0.00000  Uiso   1.00
O121   O     0.56108   0.20487   0.25000   0.00000  Uiso   1.00
O122   O     0.43892   0.12846   0.24999   0.00000  Uiso   1.00
O123   O     0.49999   0.20489   0.18392   0.00000  Uiso   1.00
O124   O     0.50001   0.12844   0.31607   0.00000  Uiso   1.00
O125   O     0.50001   0.20489   0.31607   0.00000  Uiso   1.00
O126   O     0.49999   0.12844   0.18392   0.00000  Uiso   1.00
Zn127  Zn    0.50000   0.21771   0.25000   0.00000  Uiso   1.00
Zn128  Zn    0.50000   0.11563   0.25000   0.00000  Uiso   1.00
C129   C     0.57443   0.18481   0.38112   0.00000  Uiso   1.00
O130   O     0.58600   0.22392   0.38543   0.00000  Uiso   1.00
O131   O     0.59538   0.15467   0.35348   0.00000  Uiso   1.00
H132   H     0.62142   0.16829   0.34129   0.00000  Uiso   1.00
C133   C     0.42535   0.18532   0.10916   0.00000  Uiso   1.00
O134   O     0.41612   0.17845   0.14788   0.00000  Uiso   1.00
O135   O     0.39925   0.21166   0.08165   0.00000  Uiso   1.00
H136   H     0.37388   0.22286   0.09773   0.00000  Uiso   1.00
C137   C     0.42428   0.15968   0.38259   0.00000  Uiso   1.00
O138   O     0.41696   0.13670   0.34961   0.00000  Uiso   1.00
O139   O     0.39471   0.19038   0.39809   0.00000  Uiso   1.00
H140   H     0.36861   0.19061   0.37908   0.00000  Uiso   1.00
C141   C     0.57718   0.16274   0.12354   0.00000  Uiso   1.00
O142   O     0.59798   0.12790   0.12455   0.00000  Uiso   1.00
O143   O     0.58922   0.20072   0.14800   0.00000  Uiso   1.00
H144   H     0.61729   0.19638   0.16264   0.00000  Uiso   1.00
Cl145  Cl    0.39318   0.09849   0.45116   0.00000  Uiso   1.00
Cl146  Cl    0.62513   0.18992   0.04888   0.00000  Uiso   1.00
Cl147  Cl    0.39051   0.11110   0.05314   0.00000  Uiso   1.00
Cl148  Cl    0.62752   0.15562   0.45339   0.00000  Uiso   1.00
C149   C     0.37653   0.08580   0.21416   0.00000  Uiso   1.00
O150   O     0.37699   0.05037   0.23565   0.00000  Uiso   1.00
O151   O     0.39590   0.08798   0.17293   0.00000  Uiso   1.00
H152   H     0.40783   0.05761   0.16360   0.00000  Uiso   1.00
C153   C     0.62540   0.25090   0.26712   0.00000  Uiso   1.00
O154   O     0.62096   0.25949   0.30660   0.00000  Uiso   1.00
O155   O     0.61130   0.28132   0.23424   0.00000  Uiso   1.00
H156   H     0.59617   0.30822   0.24739   0.00000  Uiso   1.00
C157   C     0.62586   0.08083   0.23420   0.00000  Uiso   1.00
O158   O     0.61609   0.05971   0.26757   0.00000  Uiso   1.00
O159   O     0.61860   0.06300   0.19174   0.00000  Uiso   1.00
H160   H     0.60360   0.03307   0.19257   0.00000  Uiso   1.00
C161   C     0.37376   0.25443   0.23904   0.00000  Uiso   1.00
O162   O     0.37652   0.28064   0.27045   0.00000  Uiso   1.00
O163   O     0.38886   0.26654   0.19727   0.00000  Uiso   1.00
H164   H     0.40035   0.29838   0.19684   0.00000  Uiso   1.00
C165   C     0.75345   0.16703   0.24588   0.00000  Uiso   1.00
C166   C     0.91361   0.16640   0.25096   0.00000  Uiso   1.00
C167   C     0.76512   0.13544   0.02341   0.00000  Uiso   1.00
C168   C     0.91204   0.16516   0.47791   0.00000  Uiso   1.00
C169   C     0.68845   0.12691   0.23170   0.00000  Uiso   1.00
C170   C     0.97932   0.20785   0.25386   0.00000  Uiso   1.00
C171   C     0.97972   0.12543   0.23884   0.00000  Uiso   1.00
C172   C     0.68757   0.20927   0.24494   0.00000  Uiso   1.00
C173   C     0.95824   0.16610   0.24966   0.00000  Uiso   1.00
C174   C     0.70930   0.16803   0.23903   0.00000  Uiso   1.00
C175   C     0.84567   0.02364   0.28708   0.00000  Uiso   1.00
C176   C     0.82145   0.30969   0.21277   0.00000  Uiso   1.00
C177   C     0.82148   0.02432   0.21276   0.00000  Uiso   1.00
C178   C     0.84566   0.30899   0.28709   0.00000  Uiso   1.00
C179   C     0.83305   0.16688   0.16346   0.00000  Uiso   1.00
C180   C     0.83326   0.16641   0.33649   0.00000  Uiso   1.00
C181   C     0.87217   0.16876   0.40677   0.00000  Uiso   1.00
C182   C     0.79769   0.16644   0.09077   0.00000  Uiso   1.00
C183   C     0.83421   0.16460   0.38442   0.00000  Uiso   1.00
C184   C     0.83452   0.16724   0.11557   0.00000  Uiso   1.00
C185   C     0.79783   0.15485   0.40687   0.00000  Uiso   1.00
C186   C     0.87301   0.16537   0.09495   0.00000  Uiso   1.00
C187   C     0.79969   0.14766   0.45325   0.00000  Uiso   1.00
C188   C     0.87466   0.16505   0.04784   0.00000  Uiso   1.00
C189   C     0.83728   0.15589   0.47670   0.00000  Uiso   1.00
C190   C     0.83740   0.15753   0.02356   0.00000  Uiso   1.00
C191   C     0.87436   0.16307   0.45346   0.00000  Uiso   1.00
C192   C     0.79951   0.15378   0.04596   0.00000  Uiso   1.00
C193   C     0.76568   0.13109   0.47713   0.00000  Uiso   1.00
C194   C     0.91184   0.17045   0.02413   0.00000  Uiso   1.00
H195   H     0.85569   0.04149   0.31668   0.00000  Uiso   1.00
H196   H     0.81191   0.29185   0.18299   0.00000  Uiso   1.00
H197   H     0.81221   0.04269   0.18291   0.00000  Uiso   1.00
H198   H     0.85573   0.29058   0.31668   0.00000  Uiso   1.00
N199   N     0.83333   0.28573   0.25000   0.00000  Uiso   1.00
N200   N     0.83333   0.04760   0.25000   0.00000  Uiso   1.00
O201   O     0.77226   0.20487   0.24999   0.00000  Uiso   1.00
O202   O     0.89441   0.12846   0.25000   0.00000  Uiso   1.00
O203   O     0.89441   0.20487   0.25000   0.00000  Uiso   1.00
O204   O     0.77226   0.12846   0.24999   0.00000  Uiso   1.00
O205   O     0.83333   0.20489   0.18392   0.00000  Uiso   1.00
O206   O     0.83334   0.12844   0.31607   0.00000  Uiso   1.00
O207   O     0.83334   0.20489   0.31607   0.00000  Uiso   1.00
O208   O     0.83333   0.12844   0.18392   0.00000  Uiso   1.00
Zn209  Zn    0.83333   0.21771   0.25000   0.00000  Uiso   1.00
Zn210  Zn    0.83333   0.11563   0.25000   0.00000  Uiso   1.00
C211   C     0.90776   0.18481   0.38112   0.00000  Uiso   1.00
O212   O     0.91933   0.22392   0.38543   0.00000  Uiso   1.00
O213   O     0.92871   0.15467   0.35348   0.00000  Uiso   1.00
H214   H     0.95475   0.16829   0.34129   0.00000  Uiso   1.00
C215   C     0.75868   0.18532   0.10916   0.00000  Uiso   1.00
O216   O     0.74945   0.17845   0.14788   0.00000  Uiso   1.00
O217   O     0.73258   0.21166   0.08165   0.00000  Uiso   1.00
H218   H     0.70721   0.22286   0.09773   0.00000  Uiso   1.00
C219   C     0.75762   0.15968   0.38259   0.00000  Uiso   1.00
O220   O     0.75029   0.13670   0.34961   0.00000  Uiso   1.00
O221   O     0.72804   0.19038   0.39809   0.00000  Uiso   1.00
H222   H     0.70194   0.19061   0.37908   0.00000  Uiso   1.00
C223   C     0.91051   0.16274   0.12354   0.00000  Uiso   1.00
O224   O     0.93131   0.12790   0.12455   0.00000  Uiso   1.00
O225   O     0.92255   0.20072   0.14800   0.00000  Uiso   1.00
H226   H     0.95062   0.19638   0.16264   0.00000  Uiso   1.00
Cl227  Cl    0.72651   0.09849   0.45116   0.00000  Uiso   1.00
Cl228  Cl    0.95846   0.18992   0.04888   0.00000  Uiso   1.00
Cl229  Cl    0.72384   0.11110   0.05314   0.00000  Uiso   1.00
Cl230  Cl    0.96085   0.15562   0.45339   0.00000  Uiso   1.00
C231   C     0.70987   0.08580   0.21416   0.00000  Uiso   1.00
O232   O     0.71032   0.05037   0.23565   0.00000  Uiso   1.00
O233   O     0.72924   0.08798   0.17293   0.00000  Uiso   1.00
H234   H     0.74116   0.05761   0.16360   0.00000  Uiso   1.00
C235   C     0.95873   0.25090   0.26712   0.00000  Uiso   1.00
O236   O     0.95429   0.25949   0.30660   0.00000  Uiso   1.00
O237   O     0.94463   0.28132   0.23424   0.00000  Uiso   1.00
H238   H     0.92950   0.30822   0.24739   0.00000  Uiso   1.00
C239   C     0.95919   0.08083   0.23420   0.00000  Uiso   1.00
O240   O     0.94942   0.05971   0.26757   0.00000  Uiso   1.00
O241   O     0.95193   0.06300   0.19174   0.00000  Uiso   1.00
H242   H     0.93693   0.03307   0.19257   0.00000  Uiso   1.00
C243   C     0.70710   0.25443   0.23904   0.00000  Uiso   1.00
O244   O     0.70985   0.28064   0.27045   0.00000  Uiso   1.00
O245   O     0.72219   0.26654   0.19727   0.00000  Uiso   1.00
H246   H     0.73369   0.29838   0.19684   0.00000  Uiso   1.00
C247   C     0.08679   0.50037   0.24588   0.00000  Uiso   1.00
C248   C     0.24694   0.49974   0.25096   0.00000  Uiso   1.00
C249   C     0.09846   0.46877   0.02341   0.00000  Uiso   1.00
C250   C     0.24537   0.49849   0.47791   0.00000  Uiso   1.00
C251   C     0.02178   0.46025   0.23170   0.00000  Uiso   1.00
C252   C     0.31266   0.54118   0.25386   0.00000  Uiso   1.00
C253   C     0.31305   0.45876   0.23884   0.00000  Uiso   1.00
C254   C     0.02090   0.54260   0.24494   0.00000  Uiso   1.00
C255   C     0.29157   0.49943   0.24966   0.00000  Uiso   1.00
C256   C     0.04263   0.50136   0.23903   0.00000  Uiso   1.00
C257   C     0.17900   0.35697   0.28708   0.00000  Uiso   1.00
C258   C     0.15478   0.64303   0.21277   0.00000  Uiso   1.00
C259   C     0.15482   0.35766   0.21276   0.00000  Uiso   1.00
C260   C     0.17900   0.64232   0.28709   0.00000  Uiso   1.00
C261   C     0.16638   0.50022   0.16346   0.00000  Uiso   1.00
C262   C     0.16659   0.49974   0.33649   0.00000  Uiso   1.00
C263   C     0.20550   0.50209   0.40677   0.00000  Uiso   1.00
C264   C     0.13102   0.49977   0.09077   0.00000  Uiso   1.00
C265   C     0.16754   0.49793   0.38442   0.00000  Uiso   1.00
C266   C     0.16786   0.50058   0.11557   0.00000  Uiso   1.00
C267   C     0.13116   0.48818   0.40687   0.00000  Uiso   1.00
C268   C     0.20634   0.49870   0.09495   0.00000  Uiso   1.00
C269   C     0.13303   0.48099   0.45325   0.00000  Uiso   1.00
C270   C     0.20799   0.49839   0.04784   0.00000  Uiso   1.00
C271   C     0.17061   0.48922   0.47670   0.00000  Uiso   1.00
C272   C     0.17074   0.49087   0.02356   0.00000  Uiso   1.00
C273   C     0.20770   0.49640   0.45346   0.00000  Uiso   1.00
C274   C     0.13285   0.48712   0.04596   0.00000  Uiso   1.00
C275   C     0.09901   0.46443   0.47713   0.00000  Uiso   1.00
C276   C     0.24517   0.50378   0.02413   0.00000  Uiso   1.00
H277   H     0.18902   0.37482   0.31668   0.00000  Uiso   1.00
H278   H     0.14524   0.62518   0.18299   0.00000  Uiso   1.00
H279   H     0.14554   0.37603   0.18291   0.00000  Uiso   1.00
H280   H     0.18907   0.62391   0.31668   0.00000  Uiso   1.00
N281   N     0.16667   0.61907   0.25000   0.00000  Uiso   1.00
N282   N     0.16667   0.38093   0.25000   0.00000  Uiso   1.00
O283   O     0.10559   0.53821   0.24999   0.00000  Uiso   1.00
O284   O     0.22774   0.46179   0.25000   0.00000  Uiso   1.00
O285   O     0.22774   0.53821   0.25000   0.00000  Uiso   1.00
O286   O     0.10559   0.46179   0.24999   0.00000  Uiso   1.00
O287   O     0.16666   0.53823   0.18392   0.00000  Uiso   1.00
O288   O     0.16667   0.46177   0.31607   0.00000  Uiso   1.00
O289   O     0.16667   0.53823   0.31607   0.00000  Uiso   1.00
O290   O     0.16666   0.46177   0.18392   0.00000  Uiso   1.00
Zn291  Zn    0.16667   0.55104   0.25000   0.00000  Uiso   1.00
Zn292  Zn    0.16667   0.44896   0.25000   0.00000  Uiso   1.00
C293   C     0.24109   0.51814   0.38112   0.00000  Uiso   1.00
O294   O     0.25266   0.55725   0.38543   0.00000  Uiso   1.00
O295   O     0.26205   0.48801   0.35348   0.00000  Uiso   1.00
H296   H     0.28808   0.50163   0.34129   0.00000  Uiso   1.00
C297   C     0.09202   0.51866   0.10916   0.00000  Uiso   1.00
O298   O     0.08279   0.51179   0.14788   0.00000  Uiso   1.00
O299   O     0.06591   0.54500   0.08165   0.00000  Uiso   1.00
H300   H     0.04054   0.55619   0.09773   0.00000  Uiso   1.00
C301   C     0.09095   0.49302   0.38259   0.00000  Uiso   1.00
O302   O     0.08363   0.47004   0.34961   0.00000  Uiso   1.00
O303   O     0.06137   0.52371   0.39809   0.00000  Uiso   1.00
H304   H     0.03527   0.52394   0.37908   0.00000  Uiso   1.00
C305   C     0.24384   0.49607   0.12354   0.00000  Uiso   1.00
O306   O     0.26464   0.46124   0.12455   0.00000  Uiso   1.00
O307   O     0.25589   0.53406   0.14800   0.00000  Uiso   1.00
H308   H     0.28396   0.52971   0.16264   0.00000  Uiso   1.00
Cl309  Cl    0.05985   0.43182   0.45116   0.00000  Uiso   1.00
Cl310  Cl    0.29179   0.52325   0.04888   0.00000  Uiso   1.00
Cl311  Cl    0.05718   0.44444   0.05314   0.00000  Uiso   1.00
Cl312  Cl    0.29418   0.48895   0.45339   0.00000  Uiso   1.00
C313   C     0.04320   0.41914   0.21416   0.00000  Uiso   1.00
O314   O     0.04365   0.38370   0.23565   0.00000  Uiso   1.00
O315   O     0.06257   0.42131   0.17293   0.00000  Uiso   1.00
H316   H     0.07449   0.39094   0.16360   0.00000  Uiso   1.00
C317   C     0.29207   0.58424   0.26712   0.00000  Uiso   1.00
O318   O     0.28763   0.59282   0.30660   0.00000  Uiso   1.00
O319   O     0.27796   0.61465   0.23424   0.00000  Uiso   1.00
H320   H     0.26284   0.64155   0.24739   0.00000  Uiso   1.00
C321   C     0.29253   0.41417   0.23420   0.00000  Uiso   1.00
O322   O     0.28276   0.39304   0.26757   0.00000  Uiso   1.00
O323   O     0.28527   0.39633   0.19174   0.00000  Uiso   1.00
H324   H     0.27026   0.36640   0.19257   0.00000  Uiso   1.00
C325   C     0.04043   0.58777   0.23904   0.00000  Uiso   1.00
O326   O     0.04319   0.61398   0.27045   0.00000  Uiso   1.00
O327   O     0.05552   0.59987   0.19727   0.00000  Uiso   1.00
H328   H     0.06702   0.63171   0.19684   0.00000  Uiso   1.00
C329   C     0.42012   0.50037   0.24588   0.00000  Uiso   1.00
C330   C     0.58028   0.49974   0.25096   0.00000  Uiso   1.00
C331   C     0.43179   0.46877   0.02341   0.00000  Uiso   1.00
C332   C     0.57871   0.49849   0.47791   0.00000  Uiso   1.00
C333   C     0.35512   0.46025   0.23170   0.00000  Uiso   1.00
C334   C     0.64599   0.54118   0.25386   0.00000  Uiso   1.00
C335   C     0.64638   0.45876   0.23884   0.00000  Uiso   1.00
C336   C     0.35423   0.54260   0.24494   0.00000  Uiso   1.00
C337   C     0.62490   0.49943   0.24966   0.00000  Uiso   1.00
C338   C     0.37597   0.50136   0.23903   0.00000  Uiso   1.00
C339   C     0.51234   0.35697   0.28708   0.00000  Uiso   1.00
C340   C     0.48811   0.64303   0.21277   0.00000  Uiso   1.00
C341   C     0.48815   0.35766   0.21276   0.00000  Uiso   1.00
C342   C     0.51233   0.64232   0.28709   0.00000  Uiso   1.00
C343   C     0.49971   0.50022   0.16346   0.00000  Uiso   1.00
C344   C     0.49993   0.49974   0.33649   0.00000  Uiso   1.00
C345   C     0.53884   0.50209   0.40677   0.00000  Uiso   1.00
C346   C     0.46435   0.49977   0.09077   0.00000  Uiso   1.00
C347   C     0.50087   0.49793   0.38442   0.00000  Uiso   1.00
C348   C     0.50119   0.50058   0.11557   0.00000  Uiso   1.00
C349   C     0.46449   0.48818   0.40687   0.00000  Uiso   1.00
C350   C     0.53968   0.49870   0.09495   0.00000  Uiso   1.00
C351   C     0.46636   0.48099   0.45325   0.00000  Uiso   1.00
C352   C     0.54133   0.49839   0.04784   0.00000  Uiso   1.00
C353   C     0.50395   0.48922   0.47670   0.00000  Uiso   1.00
C354   C     0.50407   0.49087   0.02356   0.00000  Uiso   1.00
C355   C     0.54103   0.49640   0.45346   0.00000  Uiso   1.00
C356   C     0.46618   0.48712   0.04596   0.00000  Uiso   1.00
C357   C     0.43235   0.46443   0.47713   0.00000  Uiso   1.00
C358   C     0.57850   0.50378   0.02413   0.00000  Uiso   1.00
H359   H     0.52235   0.37482   0.31668   0.00000  Uiso   1.00
H360   H     0.47857   0.62518   0.18299   0.00000  Uiso   1.00
H361   H     0.47887   0.37603   0.18291   0.00000  Uiso   1.00
H362   H     0.52240   0.62391   0.31668   0.00000  Uiso   1.00
N363   N     0.50000   0.61907   0.25000   0.00000  Uiso   1.00
N364   N     0.50000   0.38093   0.25000   0.00000  Uiso   1.00
O365   O     0.43892   0.53821   0.24999   0.00000  Uiso   1.00
O366   O     0.56108   0.46179   0.25000   0.00000  Uiso   1.00
O367   O     0.56108   0.53821   0.25000   0.00000  Uiso   1.00
O368   O     0.43892   0.46179   0.24999   0.00000  Uiso   1.00
O369   O     0.49999   0.53823   0.18392   0.00000  Uiso   1.00
O370   O     0.50001   0.46177   0.31607   0.00000  Uiso   1.00
O371   O     0.50001   0.53823   0.31607   0.00000  Uiso   1.00
O372   O     0.49999   0.46177   0.18392   0.00000  Uiso   1.00
Zn373  Zn    0.50000   0.55104   0.25000   0.00000  Uiso   1.00
Zn374  Zn    0.50000   0.44896   0.25000   0.00000  Uiso   1.00
C375   C     0.57443   0.51814   0.38112   0.00000  Uiso   1.00
O376   O     0.58600   0.55725   0.38543   0.00000  Uiso   1.00
O377   O     0.59538   0.48801   0.35348   0.00000  Uiso   1.00
H378   H     0.62142   0.50163   0.34129   0.00000  Uiso   1.00
C379   C     0.42535   0.51866   0.10916   0.00000  Uiso   1.00
O380   O     0.41612   0.51179   0.14788   0.00000  Uiso   1.00
O381   O     0.39925   0.54500   0.08165   0.00000  Uiso   1.00
H382   H     0.37388   0.55619   0.09773   0.00000  Uiso   1.00
C383   C     0.42428   0.49302   0.38259   0.00000  Uiso   1.00
O384   O     0.41696   0.47004   0.34961   0.00000  Uiso   1.00
O385   O     0.39471   0.52371   0.39809   0.00000  Uiso   1.00
H386   H     0.36861   0.52394   0.37908   0.00000  Uiso   1.00
C387   C     0.57718   0.49607   0.12354   0.00000  Uiso   1.00
O388   O     0.59798   0.46124   0.12455   0.00000  Uiso   1.00
O389   O     0.58922   0.53406   0.14800   0.00000  Uiso   1.00
H390   H     0.61729   0.52971   0.16264   0.00000  Uiso   1.00
Cl391  Cl    0.39318   0.43182   0.45116   0.00000  Uiso   1.00
Cl392  Cl    0.62513   0.52325   0.04888   0.00000  Uiso   1.00
Cl393  Cl    0.39051   0.44444   0.05314   0.00000  Uiso   1.00
Cl394  Cl    0.62752   0.48895   0.45339   0.00000  Uiso   1.00
C395   C     0.37653   0.41914   0.21416   0.00000  Uiso   1.00
O396   O     0.37699   0.38370   0.23565   0.00000  Uiso   1.00
O397   O     0.39590   0.42131   0.17293   0.00000  Uiso   1.00
H398   H     0.40783   0.39094   0.16360   0.00000  Uiso   1.00
C399   C     0.62540   0.58424   0.26712   0.00000  Uiso   1.00
O400   O     0.62096   0.59282   0.30660   0.00000  Uiso   1.00
O401   O     0.61130   0.61465   0.23424   0.00000  Uiso   1.00
H402   H     0.59617   0.64155   0.24739   0.00000  Uiso   1.00
C403   C     0.62586   0.41417   0.23420   0.00000  Uiso   1.00
O404   O     0.61609   0.39304   0.26757   0.00000  Uiso   1.00
O405   O     0.61860   0.39633   0.19174   0.00000  Uiso   1.00
H406   H     0.60360   0.36640   0.19257   0.00000  Uiso   1.00
C407   C     0.37376   0.58777   0.23904   0.00000  Uiso   1.00
O408   O     0.37652   0.61398   0.27045   0.00000  Uiso   1.00
O409   O     0.38886   0.59987   0.19727   0.00000  Uiso   1.00
H410   H     0.40035   0.63171   0.19684   0.00000  Uiso   1.00
C411   C     0.75345   0.50037   0.24588   0.00000  Uiso   1.00
C412   C     0.91361   0.49974   0.25096   0.00000  Uiso   1.00
C413   C     0.76512   0.46877   0.02341   0.00000  Uiso   1.00
C414   C     0.91204   0.49849   0.47791   0.00000  Uiso   1.00
C415   C     0.68845   0.46025   0.23170   0.00000  Uiso   1.00
C416   C     0.97932   0.54118   0.25386   0.00000  Uiso   1.00
C417   C     0.97972   0.45876   0.23884   0.00000  Uiso   1.00
C418   C     0.68757   0.54260   0.24494   0.00000  Uiso   1.00
C419   C     0.95824   0.49943   0.24966   0.00000  Uiso   1.00
C420   C     0.70930   0.50136   0.23903   0.00000  Uiso   1.00
C421   C     0.84567   0.35697   0.28708   0.00000  Uiso   1.00
C422   C     0.82145   0.64303   0.21277   0.00000  Uiso   1.00
C423   C     0.82148   0.35766   0.21276   0.00000  Uiso   1.00
C424   C     0.84566   0.64232   0.28709   0.00000  Uiso   1.00
C425   C     0.83305   0.50022   0.16346   0.00000  Uiso   1.00
C426   C     0.83326   0.49974   0.33649   0.00000  Uiso   1.00
C427   C     0.87217   0.50209   0.40677   0.00000  Uiso   1.00
C428   C     0.79769   0.49977   0.09077   0.00000  Uiso   1.00
C429   C     0.83421   0.49793   0.38442   0.00000  Uiso   1.00
C430   C     0.83452   0.50058   0.11557   0.00000  Uiso   1.00
C431   C     0.79783   0.48818   0.40687   0.00000  Uiso   1.00
C432   C     0.87301   0.49870   0.09495   0.00000  Uiso   1.00
C433   C     0.79969   0.48099   0.45325   0.00000  Uiso   1.00
C434   C     0.87466   0.49839   0.04784   0.00000  Uiso   1.00
C435   C     0.83728   0.48922   0.47670   0.00000  Uiso   1.00
C436   C     0.83740   0.49087   0.02356   0.00000  Uiso   1.00
C437   C     0.87436   0.49640   0.45346   0.00000  Uiso   1.00
C438   C     0.79951   0.48712   0.04596   0.00000  Uiso   1.00
C439   C     0.76568   0.46443   0.47713   0.00000  Uiso   1.00
C440   C     0.91184   0.50378   0.02413   0.00000  Uiso   1.00
H441   H     0.85569   0.37482   0.31668   0.00000  Uiso   1.00
H442   H     0.81191   0.62518   0.18299   0.00000  Uiso   1.00
H443   H     0.81221   0.37603   0.18291   0.00000  Uiso   1.00
H444   H     0.85573   0.62391   0.31668   0.00000  Uiso   1.00
N445   N     0.83333   0.61907   0.25000   0.00000  Uiso   1.00
N446   N     0.83333   0.38093   0.25000   0.00000  Uiso   1.00
O447   O     0.77226   0.53821   0.24999   0.00000  Uiso   1.00
O448   O     0.89441   0.46179   0.25000   0.00000  Uiso   1.00
O449   O     0.89441   0.53821   0.25000   0.00000  Uiso   1.00
O450   O     0.77226   0.46179   0.24999   0.00000  Uiso   1.00
O451   O     0.83333   0.53823   0.18392   0.00000  Uiso   1.00
O452   O     0.83334   0.46177   0.31607   0.00000  Uiso   1.00
O453   O     0.83334   0.53823   0.31607   0.00000  Uiso   1.00
O454   O     0.83333   0.46177   0.18392   0.00000  Uiso   1.00
Zn455  Zn    0.83333   0.55104   0.25000   0.00000  Uiso   1.00
Zn456  Zn    0.83333   0.44896   0.25000   0.00000  Uiso   1.00
C457   C     0.90776   0.51814   0.38112   0.00000  Uiso   1.00
O458   O     0.91933   0.55725   0.38543   0.00000  Uiso   1.00
O459   O     0.92871   0.48801   0.35348   0.00000  Uiso   1.00
H460   H     0.95475   0.50163   0.34129   0.00000  Uiso   1.00
C461   C     0.75868   0.51866   0.10916   0.00000  Uiso   1.00
O462   O     0.74945   0.51179   0.14788   0.00000  Uiso   1.00
O463   O     0.73258   0.54500   0.08165   0.00000  Uiso   1.00
H464   H     0.70721   0.55619   0.09773   0.00000  Uiso   1.00
C465   C     0.75762   0.49302   0.38259   0.00000  Uiso   1.00
O466   O     0.75029   0.47004   0.34961   0.00000  Uiso   1.00
O467   O     0.72804   0.52371   0.39809   0.00000  Uiso   1.00
H468   H     0.70194   0.52394   0.37908   0.00000  Uiso   1.00
C469   C     0.91051   0.49607   0.12354   0.00000  Uiso   1.00
O470   O     0.93131   0.46124   0.12455   0.00000  Uiso   1.00
O471   O     0.92255   0.53406   0.14800   0.00000  Uiso   1.00
H472   H     0.95062   0.52971   0.16264   0.00000  Uiso   1.00
Cl473  Cl    0.72651   0.43182   0.45116   0.00000  Uiso   1.00
Cl474  Cl    0.95846   0.52325   0.04888   0.00000  Uiso   1.00
Cl475  Cl    0.72384   0.44444   0.05314   0.00000  Uiso   1.00
Cl476  Cl    0.96085   0.48895   0.45339   0.00000  Uiso   1.00
C477   C     0.70987   0.41914   0.21416   0.00000  Uiso   1.00
O478   O     0.71032   0.38370   0.23565   0.00000  Uiso   1.00
O479   O     0.72924   0.42131   0.17293   0.00000  Uiso   1.00
H480   H     0.74116   0.39094   0.16360   0.00000  Uiso   1.00
C481   C     0.95873   0.58424   0.26712   0.00000  Uiso   1.00
O482   O     0.95429   0.59282   0.30660   0.00000  Uiso   1.00
O483   O     0.94463   0.61465   0.23424   0.00000  Uiso   1.00
H484   H     0.92950   0.64155   0.24739   0.00000  Uiso   1.00
C485   C     0.95919   0.41417   0.23420   0.00000  Uiso   1.00
O486   O     0.94942   0.39304   0.26757   0.00000  Uiso   1.00
O487   O     0.95193   0.39633   0.19174   0.00000  Uiso   1.00
H488   H     0.93693   0.36640   0.19257   0.00000  Uiso   1.00
C489   C     0.70710   0.58777   0.23904   0.00000  Uiso   1.00
O490   O     0.70985   0.61398   0.27045   0.00000  Uiso   1.00
O491   O     0.72219   0.59987   0.19727   0.00000  Uiso   1.00
H492   H     0.73369   0.63171   0.19684   0.00000  Uiso   1.00
C493   C     0.08679   0.83370   0.24588   0.00000  Uiso   1.00
C494   C     0.24694   0.83307   0.25096   0.00000  Uiso   1.00
C495   C     0.09846   0.80210   0.02341   0.00000  Uiso   1.00
C496   C     0.24537   0.83182   0.47791   0.00000  Uiso   1.00
C497   C     0.02178   0.79358   0.23170   0.00000  Uiso   1.00
C498   C     0.31266   0.87452   0.25386   0.00000  Uiso   1.00
C499   C     0.31305   0.79209   0.23884   0.00000  Uiso   1.00
C500   C     0.02090   0.87594   0.24494   0.00000  Uiso   1.00
C501   C     0.29157   0.83276   0.24966   0.00000  Uiso   1.00
C502   C     0.04263   0.83469   0.23903   0.00000  Uiso   1.00
C503   C     0.17900   0.69031   0.28708   0.00000  Uiso   1.00
C504   C     0.15478   0.97636   0.21277   0.00000  Uiso   1.00
C505   C     0.15482   0.69099   0.21276   0.00000  Uiso   1.00
C506   C     0.17900   0.97565   0.28709   0.00000  Uiso   1.00
C507   C     0.16638   0.83355   0.16346   0.00000  Uiso   1.00
C508   C     0.16659   0.83307   0.33649   0.00000  Uiso   1.00
C509   C     0.20550   0.83543   0.40677   0.00000  Uiso   1.00
C510   C     0.13102   0.83311   0.09077   0.00000  Uiso   1.00
C511   C     0.16754   0.83126   0.38442   0.00000  Uiso   1.00
C512   C     0.16786   0.83391   0.11557   0.00000  Uiso   1.00
C513   C     0.13116   0.82151   0.40687   0.00000  Uiso   1.00
C514   C     0.20634   0.83204   0.09495   0.00000  Uiso   1.00
C515   C     0.13303   0.81433   0.45325   0.00000  Uiso   1.00
C516   C     0.20799   0.83172   0.04784   0.00000  Uiso   1.00
C517   C     0.17061   0.82256   0.47670   0.00000  Uiso   1.00
C518   C     0.17074   0.82420   0.02356   0.00000  Uiso   1.00
C519   C     0.20770   0.82973   0.45346   0.00000  Uiso   1.00
C520   C     0.13285   0.82045   0.04596   0.00000  Uiso   1.00
C521   C     0.09901   0.79776   0.47713   0.00000  Uiso   1.00
C522   C     0.24517   0.83712   0.02413   0.00000  Uiso   1.00
H523   H     0.18902   0.70816   0.31668   0.00000  Uiso   1.00
H524   H     0.14524   0.95852   0.18299   0.00000  Uiso   1.00
H525   H     0.14554   0.70936   0.18291   0.00000  Uiso   1.00
H526   H     0.18907   0.95725   0.31668   0.00000  Uiso   1.00
N527   N     0.16667   0.95240   0.25000   0.00000  Uiso   1.00
N528   N     0.16667   0.71427   0.25000   0.00000  Uiso   1.00
O529   O     0.10559   0.87154   0.24999   0.00000  Uiso   1.00
O530   O     0.22774   0.79513   0.25000   0.00000  Uiso   1.00
O531   O     0.22774   0.87154   0.25000   0.00000  Uiso   1.00
O532   O     0.10559   0.79513   0.24999   0.00000  Uiso   1.00
O533   O     0.16666   0.87156   0.18392   0.00000  Uiso   1.00
O534   O     0.16667   0.79511   0.31607   0.00000  Uiso   1.00
O535   O     0.16667   0.87156   0.31607   0.00000  Uiso   1.00
O536   O     0.16666   0.79511   0.18392   0.00000  Uiso   1.00
Zn537  Zn    0.16667   0.88437   0.25000   0.00000  Uiso   1.00
Zn538  Zn    0.16667   0.78229   0.25000   0.00000  Uiso   1.00
C539   C     0.24109   0.85148   0.38112   0.00000  Uiso   1.00
O540   O     0.25266   0.89059   0.38543   0.00000  Uiso   1.00
O541   O     0.26205   0.82134   0.35348   0.00000  Uiso   1.00
H542   H     0.28808   0.83496   0.34129   0.00000  Uiso   1.00
C543   C     0.09202   0.85199   0.10916   0.00000  Uiso   1.00
O544   O     0.08279   0.84512   0.14788   0.00000  Uiso   1.00
O545   O     0.06591   0.87833   0.08165   0.00000  Uiso   1.00
H546   H     0.04054   0.88952   0.09773   0.00000  Uiso   1.00
C547   C     0.09095   0.82635   0.38259   0.00000  Uiso   1.00
O548   O     0.08363   0.80337   0.34961   0.00000  Uiso   1.00
O549   O     0.06137   0.85704   0.39809   0.00000  Uiso   1.00
H550   H     0.03527   0.85727   0.37908   0.00000  Uiso   1.00
C551   C     0.24384   0.82941   0.12354   0.00000  Uiso   1.00
O552   O     0.26464   0.79457   0.12455   0.00000  Uiso   1.00
O553   O     0.25589   0.86739   0.14800   0.00000  Uiso   1.00
H554   H     0.28396   0.86305   0.16264   0.00000  Uiso   1.00
Cl555  Cl    0.05985   0.76515   0.45116   0.00000  Uiso   1.00
Cl556  Cl    0.29179   0.85659   0.04888   0.00000  Uiso   1.00
Cl557  Cl    0.05718   0.77777   0.05314   0.00000  Uiso   1.00
Cl558  Cl    0.29418   0.82229   0.45339   0.00000  Uiso   1.00
C559   C     0.04320   0.75247   0.21416   0.00000  Uiso   1.00
O560   O     0.04365   0.71703   0.23565   0.00000  Uiso   1.00
O561   O     0.06257   0.75465   0.17293   0.00000  Uiso   1.00
H562   H     0.07449   0.72428   0.16360   0.00000  Uiso   1.00
C563   C     0.29207   0.91757   0.26712   0.00000  Uiso   1.00
O564   O     0.28763   0.92615   0.30660   0.00000  Uiso   1.00
O565   O     0.27796   0.94798   0.23424   0.00000  Uiso   1.00
H566   H     0.26284   0.97488   0.24739   0.00000  Uiso   1.00
C567   C     0.29253   0.74750   0.23420   0.00000  Uiso   1.00
O568   O     0.28276   0.72638   0.26757   0.00000  Uiso   1.00
O569   O     0.28527   0.72967   0.19174   0.00000  Uiso   1.00
H570   H     0.27026   0.69973   0.19257   0.00000  Uiso   1.00
C571   C     0.04043   0.92110   0.23904   0.00000  Uiso   1.00
O572   O     0.04319   0.94731   0.27045   0.00000  Uiso   1.00
O573   O     0.05552   0.93320   0.19727   0.00000  Uiso   1.00
H574   H     0.06702   0.96504   0.19684   0.00000  Uiso   1.00
C575   C     0.42012   0.83370   0.24588   0.00000  Uiso   1.00
C576   C     0.58028   0.83307   0.25096   0.00000  Uiso   1.00
C577   C     0.43179   0.80210   0.02341   0.00000  Uiso   1.00
C578   C     0.57871   0.83182   0.47791   0.00000  Uiso   1.00
C579   C     0.35512   0.79358   0.23170   0.00000  Uiso   1.00
C580   C     0.64599   0.87452   0.25386   0.00000  Uiso   1.00
C581   C     0.64638   0.79209   0.23884   0.00000  Uiso   1.00
C582   C     0.35423   0.87594   0.24494   0.00000  Uiso   1.00
C583   C     0.62490   0.83276   0.24966   0.00000  Uiso   1.00
C584   C     0.37597   0.83469   0.23903   0.00000  Uiso   1.00
C585   C     0.51234   0.69031   0.28708   0.00000  Uiso   1.00
C586   C     0.48811   0.97636   0.21277   0.00000  Uiso   1.00
C587   C     0.48815   0.69099   0.21276   0.00000  Uiso   1.00
C588   C     0.51233   0.97565   0.28709   0.00000  Uiso   1.00
C589   C     0.49971   0.83355   0.16346   0.00000  Uiso   1.00
C590   C     0.49993   0.83307   0.33649   0.00000  Uiso   1.00
C591   C     0.53884   0.83543   0.40677   0.00000  Uiso   1.00
C592   C     0.46435   0.83311   0.09077   0.00000  Uiso   1.00
C593   C     0.50087   0.83126   0.38442   0.00000  Uiso   1.00
C594   C     0.50119   0.83391   0.11557   0.00000  Uiso   1.00
C595   C     0.46449   0.82151   0.40687   0.00000  Uiso   1.00
C596   C     0.53968   0.83204   0.09495   0.00000  Uiso   1.00
C597   C     0.46636   0.81433   0.45325   0.00000  Uiso   1.00
C598   C     0.54133   0.83172   0.04784   0.00000  Uiso   1.00
C599   C     0.50395   0.82256   0.47670   0.00000  Uiso   1.00
C600   C     0.50407   0.82420   0.02356   0.00000  Uiso   1.00
C601   C     0.54103   0.82973   0.45346   0.00000  Uiso   1.00
C602   C     0.46618   0.82045   0.04596   0.00000  Uiso   1.00
C603   C     0.43235   0.79776   0.47713   0.00000  Uiso   1.00
C604   C     0.57850   0.83712   0.02413   0.00000  Uiso   1.00
H605   H     0.52235   0.70816   0.31668   0.00000  Uiso   1.00
H606   H     0.47857   0.95852   0.18299   0.00000  Uiso   1.00
H607   H     0.47887   0.70936   0.18291   0.00000  Uiso   1.00
H608   H     0.52240   0.95725   0.31668   0.00000  Uiso   1.00
N609   N     0.50000   0.95240   0.25000   0.00000  Uiso   1.00
N610   N     0.50000   0.71427   0.25000   0.00000  Uiso   1.00
O611   O     0.43892   0.87154   0.24999   0.00000  Uiso   1.00
O612   O     0.56108   0.79513   0.25000   0.00000  Uiso   1.00
O613   O     0.56108   0.87154   0.25000   0.00000  Uiso   1.00
O614   O     0.43892   0.79513   0.24999   0.00000  Uiso   1.00
O615   O     0.49999   0.87156   0.18392   0.00000  Uiso   1.00
O616   O     0.50001   0.79511   0.31607   0.00000  Uiso   1.00
O617   O     0.50001   0.87156   0.31607   0.00000  Uiso   1.00
O618   O     0.49999   0.79511   0.18392   0.00000  Uiso   1.00
Zn619  Zn    0.50000   0.88437   0.25000   0.00000  Uiso   1.00
Zn620  Zn    0.50000   0.78229   0.25000   0.00000  Uiso   1.00
C621   C     0.57443   0.85148   0.38112   0.00000  Uiso   1.00
O622   O     0.58600   0.89059   0.38543   0.00000  Uiso   1.00
O623   O     0.59538   0.82134   0.35348   0.00000  Uiso   1.00
H624   H     0.62142   0.83496   0.34129   0.00000  Uiso   1.00
C625   C     0.42535   0.85199   0.10916   0.00000  Uiso   1.00
O626   O     0.41612   0.84512   0.14788   0.00000  Uiso   1.00
O627   O     0.39925   0.87833   0.08165   0.00000  Uiso   1.00
H628   H     0.37388   0.88952   0.09773   0.00000  Uiso   1.00
C629   C     0.42428   0.82635   0.38259   0.00000  Uiso   1.00
O630   O     0.41696   0.80337   0.34961   0.00000  Uiso   1.00
O631   O     0.39471   0.85704   0.39809   0.00000  Uiso   1.00
H632   H     0.36861   0.85727   0.37908   0.00000  Uiso   1.00
C633   C     0.57718   0.82941   0.12354   0.00000  Uiso   1.00
O634   O     0.59798   0.79457   0.12455   0.00000  Uiso   1.00
O635   O     0.58922   0.86739   0.14800   0.00000  Uiso   1.00
H636   H     0.61729   0.86305   0.16264   0.00000  Uiso   1.00
Cl637  Cl    0.39318   0.76515   0.45116   0.00000  Uiso   1.00
Cl638  Cl    0.62513   0.85659   0.04888   0.00000  Uiso   1.00
Cl639  Cl    0.39051   0.77777   0.05314   0.00000  Uiso   1.00
Cl640  Cl    0.62752   0.82229   0.45339   0.00000  Uiso   1.00
C641   C     0.37653   0.75247   0.21416   0.00000  Uiso   1.00
O642   O     0.37699   0.71703   0.23565   0.00000  Uiso   1.00
O643   O     0.39590   0.75465   0.17293   0.00000  Uiso   1.00
H644   H     0.40783   0.72428   0.16360   0.00000  Uiso   1.00
C645   C     0.62540   0.91757   0.26712   0.00000  Uiso   1.00
O646   O     0.62096   0.92615   0.30660   0.00000  Uiso   1.00
O647   O     0.61130   0.94798   0.23424   0.00000  Uiso   1.00
H648   H     0.59617   0.97488   0.24739   0.00000  Uiso   1.00
C649   C     0.62586   0.74750   0.23420   0.00000  Uiso   1.00
O650   O     0.61609   0.72638   0.26757   0.00000  Uiso   1.00
O651   O     0.61860   0.72967   0.19174   0.00000  Uiso   1.00
H652   H     0.60360   0.69973   0.19257   0.00000  Uiso   1.00
C653   C     0.37376   0.92110   0.23904   0.00000  Uiso   1.00
O654   O     0.37652   0.94731   0.27045   0.00000  Uiso   1.00
O655   O     0.38886   0.93320   0.19727   0.00000  Uiso   1.00
H656   H     0.40035   0.96504   0.19684   0.00000  Uiso   1.00
C657   C     0.75345   0.83370   0.24588   0.00000  Uiso   1.00
C658   C     0.91361   0.83307   0.25096   0.00000  Uiso   1.00
C659   C     0.76512   0.80210   0.02341   0.00000  Uiso   1.00
C660   C     0.91204   0.83182   0.47791   0.00000  Uiso   1.00
C661   C     0.68845   0.79358   0.23170   0.00000  Uiso   1.00
C662   C     0.97932   0.87452   0.25386   0.00000  Uiso   1.00
C663   C     0.97972   0.79209   0.23884   0.00000  Uiso   1.00
C664   C     0.68757   0.87594   0.24494   0.00000  Uiso   1.00
C665   C     0.95824   0.83276   0.24966   0.00000  Uiso   1.00
C666   C     0.70930   0.83469   0.23903   0.00000  Uiso   1.00
C667   C     0.84567   0.69031   0.28708   0.00000  Uiso   1.00
C668   C     0.82145   0.97636   0.21277   0.00000  Uiso   1.00
C669   C     0.82148   0.69099   0.21276   0.00000  Uiso   1.00
C670   C     0.84566   0.97565   0.28709   0.00000  Uiso   1.00
C671   C     0.83305   0.83355   0.16346   0.00000  Uiso   1.00
C672   C     0.83326   0.83307   0.33649   0.00000  Uiso   1.00
C673   C     0.87217   0.83543   0.40677   0.00000  Uiso   1.00
C674   C     0.79769   0.83311   0.09077   0.00000  Uiso   1.00
C675   C     0.83421   0.83126   0.38442   0.00000  Uiso   1.00
C676   C     0.83452   0.83391   0.11557   0.00000  Uiso   1.00
C677   C     0.79783   0.82151   0.40687   0.00000  Uiso   1.00
C678   C     0.87301   0.83204   0.09495   0.00000  Uiso   1.00
C679   C     0.79969   0.81433   0.45325   0.00000  Uiso   1.00
C680   C     0.87466   0.83172   0.04784   0.00000  Uiso   1.00
C681   C     0.83728   0.82256   0.47670   0.00000  Uiso   1.00
C682   C     0.83740   0.82420   0.02356   0.00000  Uiso   1.00
C683   C     0.87436   0.82973   0.45346   0.00000  Uiso   1.00
C684   C     0.79951   0.82045   0.04596   0.00000  Uiso   1.00
C685   C     0.76568   0.79776   0.47713   0.00000  Uiso   1.00
C686   C     0.91184   0.83712   0.02413   0.00000  Uiso   1.00
H687   H     0.85569   0.70816   0.31668   0.00000  Uiso   1.00
H688   H     0.81191   0.95852   0.18299   0.00000  Uiso   1.00
H689   H     0.81221   0.70936   0.18291   0.00000  Uiso   1.00
H690   H     0.85573   0.95725   0.31668   0.00000  Uiso   1.00
N691   N     0.83333   0.95240   0.25000   0.00000  Uiso   1.00
N692   N     0.83333   0.71427   0.25000   0.00000  Uiso   1.00
O693   O     0.77226   0.87154   0.24999   0.00000  Uiso   1.00
O694   O     0.89441   0.79513   0.25000   0.00000  Uiso   1.00
O695   O     0.89441   0.87154   0.25000   0.00000  Uiso   1.00
O696   O     0.77226   0.79513   0.24999   0.00000  Uiso   1.00
O697   O     0.83333   0.87156   0.18392   0.00000  Uiso   1.00
O698   O     0.83334   0.79511   0.31607   0.00000  Uiso   1.00
O699   O     0.83334   0.87156   0.31607   0.00000  Uiso   1.00
O700   O     0.83333   0.79511   0.18392   0.00000  Uiso   1.00
Zn701  Zn    0.83333   0.88437   0.25000   0.00000  Uiso   1.00
Zn702  Zn    0.83333   0.78229   0.25000   0.00000  Uiso   1.00
C703   C     0.90776   0.85148   0.38112   0.00000  Uiso   1.00
O704   O     0.91933   0.89059   0.38543   0.00000  Uiso   1.00
O705   O     0.92871   0.82134   0.35348   0.00000  Uiso   1.00
H706   H     0.95475   0.83496   0.34129   0.00000  Uiso   1.00
C707   C     0.75868   0.85199   0.10916   0.00000  Uiso   1.00
O708   O     0.74945   0.84512   0.14788   0.00000  Uiso   1.00
O709   O     0.73258   0.87833   0.08165   0.00000  Uiso   1.00
H710   H     0.70721   0.88952   0.09773   0.00000  Uiso   1.00
C711   C     0.75762   0.82635   0.38259   0.00000  Uiso   1.00
O712   O     0.75029   0.80337   0.34961   0.00000  Uiso   1.00
O713   O     0.72804   0.85704   0.39809   0.00000  Uiso   1.00
H714   H     0.70194   0.85727   0.37908   0.00000  Uiso   1.00
C715   C     0.91051   0.82941   0.12354   0.00000  Uiso   1.00
O716   O     0.93131   0.79457   0.12455   0.00000  Uiso   1.00
O717   O     0.92255   0.86739   0.14800   0.00000  Uiso   1.00
H718   H     0.95062   0.86305   0.16264   0.00000  Uiso   1.00
Cl719  Cl    0.72651   0.76515   0.45116   0.00000  Uiso   1.00
Cl720  Cl    0.95846   0.85659   0.04888   0.00000  Uiso   1.00
Cl721  Cl    0.72384   0.77777   0.05314   0.00000  Uiso   1.00
Cl722  Cl    0.96085   0.82229   0.45339   0.00000  Uiso   1.00
C723   C     0.70987   0.75247   0.21416   0.00000  Uiso   1.00
O724   O     0.71032   0.71703   0.23565   0.00000  Uiso   1.00
O725   O     0.72924   0.75465   0.17293   0.00000  Uiso   1.00
H726   H     0.74116   0.72428   0.16360   0.00000  Uiso   1.00
C727   C     0.95873   0.91757   0.26712   0.00000  Uiso   1.00
O728   O     0.95429   0.92615   0.30660   0.00000  Uiso   1.00
O729   O     0.94463   0.94798   0.23424   0.00000  Uiso   1.00
H730   H     0.92950   0.97488   0.24739   0.00000  Uiso   1.00
C731   C     0.95919   0.74750   0.23420   0.00000  Uiso   1.00
O732   O     0.94942   0.72638   0.26757   0.00000  Uiso   1.00
O733   O     0.95193   0.72967   0.19174   0.00000  Uiso   1.00
H734   H     0.93693   0.69973   0.19257   0.00000  Uiso   1.00
C735   C     0.70710   0.92110   0.23904   0.00000  Uiso   1.00
O736   O     0.70985   0.94731   0.27045   0.00000  Uiso   1.00
O737   O     0.72219   0.93320   0.19727   0.00000  Uiso   1.00
H738   H     0.73369   0.96504   0.19684   0.00000  Uiso   1.00
C739   C     0.08679   0.16703   0.74588   0.00000  Uiso   1.00
C740   C     0.24694   0.16640   0.75096   0.00000  Uiso   1.00
C741   C     0.09846   0.13544   0.52341   0.00000  Uiso   1.00
C742   C     0.24537   0.16516   0.97791   0.00000  Uiso   1.00
C743   C     0.02178   0.12691   0.73170   0.00000  Uiso   1.00
C744   C     0.31266   0.20785   0.75386   0.00000  Uiso   1.00
C745   C     0.31305   0.12543   0.73884   0.00000  Uiso   1.00
C746   C     0.02090   0.20927   0.74494   0.00000  Uiso   1.00
C747   C     0.29157   0.16610   0.74966   0.00000  Uiso   1.00
C748   C     0.04263   0.16803   0.73903   0.00000  Uiso   1.00
C749   C     0.17900   0.02364   0.78708   0.00000  Uiso   1.00
C750   C     0.15478   0.30969   0.71277   0.00000  Uiso   1.00
C751   C     0.15482   0.02432   0.71276   0.00000  Uiso   1.00
C752   C     0.17900   0.30899   0.78709   0.00000  Uiso   1.00
C753   C     0.16638   0.16688   0.66346   0.00000  Uiso   1.00
C754   C     0.16659   0.16641   0.83649   0.00000  Uiso   1.00
C755   C     0.20550   0.16876   0.90677   0.00000  Uiso   1.00
C756   C     0.13102   0.16644   0.59077   0.00000  Uiso   1.00
C757   C     0.16754   0.16460   0.88442   0.00000  Uiso   1.00
C758   C     0.16786   0.16724   0.61557   0.00000  Uiso   1.00
C759   C     0.13116   0.15485   0.90687   0.00000  Uiso   1.00
C760   C     0.20634   0.16537   0.59495   0.00000  Uiso   1.00
C761   C     0.13303   0.14766   0.95325   0.00000  Uiso   1.00
C762   C     0.20799   0.16505   0.54784   0.00000  Uiso   1.00
C763   C     0.17061   0.15589   0.97670   0.00000  Uiso   1.00
C764   C     0.17074   0.15753   0.52356   0.00000  Uiso   1.00
C765   C     0.20770   0.16307   0.95346   0.00000  Uiso   1.00
C766   C     0.13285   0.15378   0.54596   0.00000  Uiso   1.00
C767   C     0.09901   0.13109   0.97713   0.00000  Uiso   1.00
C768   C     0.24517   0.17045   0.52413   0.00000  Uiso   1.00
H769   H     0.18902   0.04149   0.81668   0.00000  Uiso   1.00
H770   H     0.14524   0.29185   0.68299   0.00000  Uiso   1.00
H771   H     0.14554   0.04269   0.68291   0.00000  Uiso   1.00
H772   H     0.18907   0.29058   0.81668   0.00000  Uiso   1.00
N773   N     0.16667   0.28573   0.75000   0.00000  Uiso   1.00
N774   N     0.16667   0.04760   0.75000   0.00000  Uiso   1.00
O775   O     0.10559   0.20487   0.74999   0.00000  Uiso   1.00
O776   O     0.22774   0.12846   0.75000   0.00000  Uiso   1.00
O777   O     0.22774   0.20487   0.75000   0.00000  Uiso   1.00
O778   O     0.10559   0.12846   0.74999   0.00000  Uiso   1.00
O779   O     0.16666   0.20489   0.68392   0.00000  Uiso   1.00
O780   O     0.16667   0.12844   0.81607   0.00000  Uiso   1.00
O781   O     0.16667   0.20489   0.81607   0.00000  Uiso   1.00
O782   O     0.16666   0.12844   0.68392   0.00000  Uiso   1.00
Zn783  Zn    0.16667   0.21771   0.75000   0.00000  Uiso   1.00
Zn784  Zn    0.16667   0.11563   0.75000   0.00000  Uiso   1.00
C785   C     0.24109   0.18481   0.88112   0.00000  Uiso   1.00
O786   O     0.25266   0.22392   0.88543   0.00000  Uiso   1.00
O787   O     0.26205   0.15467   0.85348   0.00000  Uiso   1.00
H788   H     0.28808   0.16829   0.84129   0.00000  Uiso   1.00
C789   C     0.09202   0.18532   0.60916   0.00000  Uiso   1.00
O790   O     0.08279   0.17845   0.64788   0.00000  Uiso   1.00
O791   O     0.06591   0.21166   0.58165   0.00000  Uiso   1.00
H792   H     0.04054   0.22286   0.59773   0.00000  Uiso   1.00
C793   C     0.09095   0.15968   0.88259   0.00000  Uiso   1.00
O794   O     0.08363   0.13670   0.84961   0.00000  Uiso   1.00
O795   O     0.06137   0.19038   0.89809   0.00000  Uiso   1.00
H796   H     0.03527   0.19061   0.87908   0.00000  Uiso   1.00
C797   C     0.24384   0.16274   0.62354   0.00000  Uiso   1.00
O798   O     0.26464   0.12790   0.62455   0.00000  Uiso   1.00
O799   O     0.25589   0.20072   0.64800   0.00000  Uiso   1.00
H800   H     0.28396   0.19638   0.66264   0.00000  Uiso   1.00
Cl801  Cl    0.05985   0.09849   0.95116   0.00000  Uiso   1.00
Cl802  Cl    0.29179   0.18992   0.54888   0.00000  Uiso   1.00
Cl803  Cl    0.05718   0.11110   0.55314   0.00000  Uiso   1.00
Cl804  Cl    0.29418   0.15562   0.95339   0.00000  Uiso   1.00
C805   C     0.04320   0.08580   0.71416   0.00000  Uiso   1.00
O806   O     0.04365   0.05037   0.73565   0.00000  Uiso   1.00
O807   O     0.06257   0.08798   0.67293   0.00000  Uiso   1.00
H808   H     0.07449   0.05761   0.66360   0.00000  Uiso   1.00
C809   C     0.29207   0.25090   0.76712   0.00000  Uiso   1.00
O810   O     0.28763   0.25949   0.80660   0.00000  Uiso   1.00
O811   O     0.27796   0.28132   0.73424   0.00000  Uiso   1.00
H812   H     0.26284   0.30822   0.74739   0.00000  Uiso   1.00
C813   C     0.29253   0.08083   0.73420   0.00000  Uiso   1.00
O814   O     0.28276   0.05971   0.76757   0.00000  Uiso   1.00
O815   O     0.28527   0.06300   0.69174   0.00000  Uiso   1.00
H816   H     0.27026   0.03307   0.69257   0.00000  Uiso   1.00
C817   C     0.04043   0.25443   0.73904   0.00000  Uiso   1.00
O818   O     0.04319   0.28064   0.77045   0.00000  Uiso   1.00
O819   O     0.05552   0.26654   0.69727   0.00000  Uiso   1.00
H820   H     0.06702   0.29838   0.69684   0.00000  Uiso   1.00
C821   C     0.42012   0.16703   0.74588   0.00000  Uiso   1.00
C822   C     0.58028   0.16640   0.75096   0.00000  Uiso   1.00
C823   C     0.43179   0.13544   0.52341   0.00000  Uiso   1.00
C824   C     0.57871   0.16516   0.97791   0.00000  Uiso   1.00
C825   C     0.35512   0.12691   0.73170   0.00000  Uiso   1.00
C826   C     0.64599   0.20785   0.75386   0.00000  Uiso   1.00
C827   C     0.64638   0.12543   0.73884   0.00000  Uiso   1.00
C828   C     0.35423   0.20927   0.74494   0.00000  Uiso   1.00
C829   C     0.62490   0.16610   0.74966   0.00000  Uiso   1.00
C830   C     0.37597   0.16803   0.73903   0.00000  Uiso   1.00
C831   C     0.51234   0.02364   0.78708   0.00000  Uiso   1.00
C832   C     0.48811   0.30969   0.71277   0.00000  Uiso   1.00
C833   C     0.48815   0.02432   0.71276   0.00000  Uiso   1.00
C834   C     0.51233   0.30899   0.78709   0.00000  Uiso   1.00
C835   C     0.49971   0.16688   0.66346   0.00000  Uiso   1.00
C836   C     0.49993   0.16641   0.83649   0.00000  Uiso   1.00
C837   C     0.53884   0.16876   0.90677   0.00000  Uiso   1.00
C838   C     0.46435   0.16644   0.59077   0.00000  Uiso   1.00
C839   C     0.50087   0.16460   0.88442   0.00000  Uiso   1.00
C840   C     0.50119   0.16724   0.61557   0.00000  Uiso   1.00
C841   C     0.46449   0.15485   0.90687   0.00000  Uiso   1.00
C842   C     0.53968   0.16537   0.59495   0.00000  Uiso   1.00
C843   C     0.46636   0.14766   0.95325   0.00000  Uiso   1.00
C844   C     0.54133   0.16505   0.54784   0.00000  Uiso   1.00
C845   C     0.50395   0.15589   0.97670   0.00000  Uiso   1.00
C846   C     0.50407   0.15753   0.52356   0.00000  Uiso   1.00
C847   C     0.54103   0.16307   0.95346   0.00000  Uiso   1.00
C848   C     0.46618   0.15378   0.54596   0.00000  Uiso   1.00
C849   C     0.43235   0.13109   0.97713   0.00000  Uiso   1.00
C850   C     0.57850   0.17045   0.52413   0.00000  Uiso   1.00
H851   H     0.52235   0.04149   0.81668   0.00000  Uiso   1.00
H852   H     0.47857   0.29185   0.68299   0.00000  Uiso   1.00
H853   H     0.47887   0.04269   0.68291   0.00000  Uiso   1.00
H854   H     0.52240   0.29058   0.81668   0.00000  Uiso   1.00
N855   N     0.50000   0.28573   0.75000   0.00000  Uiso   1.00
N856   N     0.50000   0.04760   0.75000   0.00000  Uiso   1.00
O857   O     0.43892   0.20487   0.74999   0.00000  Uiso   1.00
O858   O     0.56108   0.12846   0.75000   0.00000  Uiso   1.00
O859   O     0.56108   0.20487   0.75000   0.00000  Uiso   1.00
O860   O     0.43892   0.12846   0.74999   0.00000  Uiso   1.00
O861   O     0.49999   0.20489   0.68392   0.00000  Uiso   1.00
O862   O     0.50001   0.12844   0.81607   0.00000  Uiso   1.00
O863   O     0.50001   0.20489   0.81607   0.00000  Uiso   1.00
O864   O     0.49999   0.12844   0.68392   0.00000  Uiso   1.00
Zn865  Zn    0.50000   0.21771   0.75000   0.00000  Uiso   1.00
Zn866  Zn    0.50000   0.11563   0.75000   0.00000  Uiso   1.00
C867   C     0.57443   0.18481   0.88112   0.00000  Uiso   1.00
O868   O     0.58600   0.22392   0.88543   0.00000  Uiso   1.00
O869   O     0.59538   0.15467   0.85348   0.00000  Uiso   1.00
H870   H     0.62142   0.16829   0.84129   0.00000  Uiso   1.00
C871   C     0.42535   0.18532   0.60916   0.00000  Uiso   1.00
O872   O     0.41612   0.17845   0.64788   0.00000  Uiso   1.00
O873   O     0.39925   0.21166   0.58165   0.00000  Uiso   1.00
H874   H     0.37388   0.22286   0.59773   0.00000  Uiso   1.00
C875   C     0.42428   0.15968   0.88259   0.00000  Uiso   1.00
O876   O     0.41696   0.13670   0.84961   0.00000  Uiso   1.00
O877   O     0.39471   0.19038   0.89809   0.00000  Uiso   1.00
H878   H     0.36861   0.19061   0.87908   0.00000  Uiso   1.00
C879   C     0.57718   0.16274   0.62354   0.00000  Uiso   1.00
O880   O     0.59798   0.12790   0.62455   0.00000  Uiso   1.00
O881   O     0.58922   0.20072   0.64800   0.00000  Uiso   1.00
H882   H     0.61729   0.19638   0.66264   0.00000  Uiso   1.00
Cl883  Cl    0.39318   0.09849   0.95116   0.00000  Uiso   1.00
Cl884  Cl    0.62513   0.18992   0.54888   0.00000  Uiso   1.00
Cl885  Cl    0.39051   0.11110   0.55314   0.00000  Uiso   1.00
Cl886  Cl    0.62752   0.15562   0.95339   0.00000  Uiso   1.00
C887   C     0.37653   0.08580   0.71416   0.00000  Uiso   1.00
O888   O     0.37699   0.05037   0.73565   0.00000  Uiso   1.00
O889   O     0.39590   0.08798   0.67293   0.00000  Uiso   1.00
H890   H     0.40783   0.05761   0.66360   0.00000  Uiso   1.00
C891   C     0.62540   0.25090   0.76712   0.00000  Uiso   1.00
O892   O     0.62096   0.25949   0.80660   0.00000  Uiso   1.00
O893   O     0.61130   0.28132   0.73424   0.00000  Uiso   1.00
H894   H     0.59617   0.30822   0.74739   0.00000  Uiso   1.00
C895   C     0.62586   0.08083   0.73420   0.00000  Uiso   1.00
O896   O     0.61609   0.05971   0.76757   0.00000  Uiso   1.00
O897   O     0.61860   0.06300   0.69174   0.00000  Uiso   1.00
H898   H     0.60360   0.03307   0.69257   0.00000  Uiso   1.00
C899   C     0.37376   0.25443   0.73904   0.00000  Uiso   1.00
O900   O     0.37652   0.28064   0.77045   0.00000  Uiso   1.00
O901   O     0.38886   0.26654   0.69727   0.00000  Uiso   1.00
H902   H     0.40035   0.29838   0.69684   0.00000  Uiso   1.00
C903   C     0.75345   0.16703   0.74588   0.00000  Uiso   1.00
C904   C     0.91361   0.16640   0.75096   0.00000  Uiso   1.00
C905   C     0.76512   0.13544   0.52341   0.00000  Uiso   1.00
C906   C     0.91204   0.16516   0.97791   0.00000  Uiso   1.00
C907   C     0.68845   0.12691   0.73170   0.00000  Uiso   1.00
C908   C     0.97932   0.20785   0.75386   0.00000  Uiso   1.00
C909   C     0.97972   0.12543   0.73884   0.00000  Uiso   1.00
C910   C     0.68757   0.20927   0.74494   0.00000  Uiso   1.00
C911   C     0.95824   0.16610   0.74966   0.00000  Uiso   1.00
C912   C     0.70930   0.16803   0.73903   0.00000  Uiso   1.00
C913   C     0.84567   0.02364   0.78708   0.00000  Uiso   1.00
C914   C     0.82145   0.30969   0.71277   0.00000  Uiso   1.00
C915   C     0.82148   0.02432   0.71276   0.00000  Uiso   1.00
C916   C     0.84566   0.30899   0.78709   0.00000  Uiso   1.00
C917   C     0.83305   0.16688   0.66346   0.00000  Uiso   1.00
C918   C     0.83326   0.16641   0.83649   0.00000  Uiso   1.00
C919   C     0.87217   0.16876   0.90677   0.00000  Uiso   1.00
C920   C     0.79769   0.16644   0.59077   0.00000  Uiso   1.00
C921   C     0.83421   0.16460   0.88442   0.00000  Uiso   1.00
C922   C     0.83452   0.16724   0.61557   0.00000  Uiso   1.00
C923   C     0.79783   0.15485   0.90687   0.00000  Uiso   1.00
C924   C     0.87301   0.16537   0.59495   0.00000  Uiso   1.00
C925   C     0.79969   0.14766   0.95325   0.00000  Uiso   1.00
C926   C     0.87466   0.16505   0.54784   0.00000  Uiso   1.00
C927   C     0.83728   0.15589   0.97670   0.00000  Uiso   1.00
C928   C     0.83740   0.15753   0.52356   0.00000  Uiso   1.00
C929   C     0.87436   0.16307   0.95346   0.00000  Uiso   1.00
C930   C     0.79951   0.15378   0.54596   0.00000  Uiso   1.00
C931   C     0.76568   0.13109   0.97713   0.00000  Uiso   1.00
C932   C     0.91184   0.17045   0.52413   0.00000  Uiso   1.00
H933   H     0.85569   0.04149   0.81668   0.00000  Uiso   1.00
H934   H     0.81191   0.29185   0.68299   0.00000  Uiso   1.00
H935   H     0.81221   0.04269   0.68291   0.00000  Uiso   1.00
H936   H     0.85573   0.29058   0.81668   0.00000  Uiso   1.00
N937   N     0.83333   0.28573   0.75000   0.00000  Uiso   1.00
N938   N     0.83333   0.04760   0.75000   0.00000  Uiso   1.00
O939   O     0.77226   0.20487   0.74999   0.00000  Uiso   1.00
O940   O     0.89441   0.12846   0.75000   0.00000  Uiso   1.00
O941   O     0.89441   0.20487   0.75000   0.00000  Uiso   1.00
O942   O     0.77226   0.12846   0.74999   0.00000  Uiso   1.00
O943   O     0.83333   0.20489   0.68392   0.00000  Uiso   1.00
O944   O     0.83334   0.12844   0.81607   0.00000  Uiso   1.00
O945   O     0.83334   0.20489   0.81607   0.00000  Uiso   1.00
O946   O     0.83333   0.12844   0.68392   0.00000  Uiso   1.00
Zn947  Zn    0.83333   0.21771   0.75000   0.00000  Uiso   1.00
Zn948  Zn    0.83333   0.11563   0.75000   0.00000  Uiso   1.00
C949   C     0.90776   0.18481   0.88112   0.00000  Uiso   1.00
O950   O     0.91933   0.22392   0.88543   0.00000  Uiso   1.00
O951   O     0.92871   0.15467   0.85348   0.00000  Uiso   1.00
H952   H     0.95475   0.16829   0.84129   0.00000  Uiso   1.00
C953   C     0.75868   0.18532   0.60916   0.00000  Uiso   1.00
O954   O     0.74945   0.17845   0.64788   0.00000  Uiso   1.00
O955   O     0.73258   0.21166   0.58165   0.00000  Uiso   1.00
H956   H     0.70721   0.22286   0.59773   0.00000  Uiso   1.00
C957   C     0.75762   0.15968   0.88259   0.00000  Uiso   1.00
O958   O     0.75029   0.13670   0.84961   0.00000  Uiso   1.00
O959   O     0.72804   0.19038   0.89809   0.00000  Uiso   1.00
H960   H     0.70194   0.19061   0.87908   0.00000  Uiso   1.00
C961   C     0.91051   0.16274   0.62354   0.00000  Uiso   1.00
O962   O     0.93131   0.12790   0.62455   0.00000  Uiso   1.00
O963   O     0.92255   0.20072   0.64800   0.00000  Uiso   1.00
H964   H     0.95062   0.19638   0.66264   0.00000  Uiso   1.00
Cl965  Cl    0.72651   0.09849   0.95116   0.00000  Uiso   1.00
Cl966  Cl    0.95846   0.18992   0.54888   0.00000  Uiso   1.00
Cl967  Cl    0.72384   0.11110   0.55314   0.00000  Uiso   1.00
Cl968  Cl    0.96085   0.15562   0.95339   0.00000  Uiso   1.00
C969   C     0.70987   0.08580   0.71416   0.00000  Uiso   1.00
O970   O     0.71032   0.05037   0.73565   0.00000  Uiso   1.00
O971   O     0.72924   0.08798   0.67293   0.00000  Uiso   1.00
H972   H     0.74116   0.05761   0.66360   0.00000  Uiso   1.00
C973   C     0.95873   0.25090   0.76712   0.00000  Uiso   1.00
O974   O     0.95429   0.25949   0.80660   0.00000  Uiso   1.00
O975   O     0.94463   0.28132   0.73424   0.00000  Uiso   1.00
H976   H     0.92950   0.30822   0.74739   0.00000  Uiso   1.00
C977   C     0.95919   0.08083   0.73420   0.00000  Uiso   1.00
O978   O     0.94942   0.05971   0.76757   0.00000  Uiso   1.00
O979   O     0.95193   0.06300   0.69174   0.00000  Uiso   1.00
H980   H     0.93693   0.03307   0.69257   0.00000  Uiso   1.00
C981   C     0.70710   0.25443   0.73904   0.00000  Uiso   1.00
O982   O     0.70985   0.28064   0.77045   0.00000  Uiso   1.00
O983   O     0.72219   0.26654   0.69727   0.00000  Uiso   1.00
H984   H     0.73369   0.29838   0.69684   0.00000  Uiso   1.00
C985   C     0.08679   0.50037   0.74588   0.00000  Uiso   1.00
C986   C     0.24694   0.49974   0.75096   0.00000  Uiso   1.00
C987   C     0.09846   0.46877   0.52341   0.00000  Uiso   1.00
C988   C     0.24537   0.49849   0.97791   0.00000  Uiso   1.00
C989   C     0.02178   0.46025   0.73170   0.00000  Uiso   1.00
C990   C     0.31266   0.54118   0.75386   0.00000  Uiso   1.00
C991   C     0.31305   0.45876   0.73884   0.00000  Uiso   1.00
C992   C     0.02090   0.54260   0.74494   0.00000  Uiso   1.00
C993   C     0.29157   0.49943   0.74966   0.00000  Uiso   1.00
C994   C     0.04263   0.50136   0.73903   0.00000  Uiso   1.00
C995   C     0.17900   0.35697   0.78708   0.00000  Uiso   1.00
C996   C     0.15478   0.64303   0.71277   0.00000  Uiso   1.00
C997   C     0.15482   0.35766   0.71276   0.00000  Uiso   1.00
C998   C     0.17900   0.64232   0.78709   0.00000  Uiso   1.00
C999   C     0.16638   0.50022   0.66346   0.00000  Uiso   1.00
C1000  C     0.16659   0.49974   0.83649   0.00000  Uiso   1.00
C1001  C     0.20550   0.50209   0.90677   0.00000  Uiso   1.00
C1002  C     0.13102   0.49977   0.59077   0.00000  Uiso   1.00
C1003  C     0.16754   0.49793   0.88442   0.00000  Uiso   1.00
C1004  C     0.16786   0.50058   0.61557   0.00000  Uiso   1.00
C1005  C     0.13116   0.48818   0.90687   0.00000  Uiso   1.00
C1006  C     0.20634   0.49870   0.59495   0.00000  Uiso   1.00
C1007  C     0.13303   0.48099   0.95325   0.00000  Uiso   1.00
C1008  C     0.20799   0.49839   0.54784   0.00000  Uiso   1.00
C1009  C     0.17061   0.48922   0.97670   0.00000  Uiso   1.00
C1010  C     0.17074   0.49087   0.52356   0.00000  Uiso   1.00
C1011  C     0.20770   0.49640   0.95346   0.00000  Uiso   1.00
C1012  C     0.13285   0.48712   0.54596   0.00000  Uiso   1.00
C1013  C     0.09901   0.46443   0.97713   0.00000  Uiso   1.00
C1014  C     0.24517   0.50378   0.52413   0.00000  Uiso   1.00
H1015  H     0.18902   0.37482   0.81668   0.00000  Uiso   1.00
H1016  H     0.14524   0.62518   0.68299   0.00000  Uiso   1.00
H1017  H     0.14554   0.37603   0.68291   0.00000  Uiso   1.00
H1018  H     0.18907   0.62391   0.81668   0.00000  Uiso   1.00
N1019  N     0.16667   0.61907   0.75000   0.00000  Uiso   1.00
N1020  N     0.16667   0.38093   0.75000   0.00000  Uiso   1.00
O1021  O     0.10559   0.53821   0.74999   0.00000  Uiso   1.00
O1022  O     0.22774   0.46179   0.75000   0.00000  Uiso   1.00
O1023  O     0.22774   0.53821   0.75000   0.00000  Uiso   1.00
O1024  O     0.10559   0.46179   0.74999   0.00000  Uiso   1.00
O1025  O     0.16666   0.53823   0.68392   0.00000  Uiso   1.00
O1026  O     0.16667   0.46177   0.81607   0.00000  Uiso   1.00
O1027  O     0.16667   0.53823   0.81607   0.00000  Uiso   1.00
O1028  O     0.16666   0.46177   0.68392   0.00000  Uiso   1.00
Zn1029 Zn    0.16667   0.55104   0.75000   0.00000  Uiso   1.00
Zn1030 Zn    0.16667   0.44896   0.75000   0.00000  Uiso   1.00
C1031  C     0.24109   0.51814   0.88112   0.00000  Uiso   1.00
O1032  O     0.25266   0.55725   0.88543   0.00000  Uiso   1.00
O1033  O     0.26205   0.48801   0.85348   0.00000  Uiso   1.00
H1034  H     0.28808   0.50163   0.84129   0.00000  Uiso   1.00
C1035  C     0.09202   0.51866   0.60916   0.00000  Uiso   1.00
O1036  O     0.08279   0.51179   0.64788   0.00000  Uiso   1.00
O1037  O     0.06591   0.54500   0.58165   0.00000  Uiso   1.00
H1038  H     0.04054   0.55619   0.59773   0.00000  Uiso   1.00
C1039  C     0.09095   0.49302   0.88259   0.00000  Uiso   1.00
O1040  O     0.08363   0.47004   0.84961   0.00000  Uiso   1.00
O1041  O     0.06137   0.52371   0.89809   0.00000  Uiso   1.00
H1042  H     0.03527   0.52394   0.87908   0.00000  Uiso   1.00
C1043  C     0.24384   0.49607   0.62354   0.00000  Uiso   1.00
O1044  O     0.26464   0.46124   0.62455   0.00000  Uiso   1.00
O1045  O     0.25589   0.53406   0.64800   0.00000  Uiso   1.00
H1046  H     0.28396   0.52971   0.66264   0.00000  Uiso   1.00
Cl1047 Cl    0.05985   0.43182   0.95116   0.00000  Uiso   1.00
Cl1048 Cl    0.29179   0.52325   0.54888   0.00000  Uiso   1.00
Cl1049 Cl    0.05718   0.44444   0.55314   0.00000  Uiso   1.00
Cl1050 Cl    0.29418   0.48895   0.95339   0.00000  Uiso   1.00
C1051  C     0.04320   0.41914   0.71416   0.00000  Uiso   1.00
O1052  O     0.04365   0.38370   0.73565   0.00000  Uiso   1.00
O1053  O     0.06257   0.42131   0.67293   0.00000  Uiso   1.00
H1054  H     0.07449   0.39094   0.66360   0.00000  Uiso   1.00
C1055  C     0.29207   0.58424   0.76712   0.00000  Uiso   1.00
O1056  O     0.28763   0.59282   0.80660   0.00000  Uiso   1.00
O1057  O     0.27796   0.61465   0.73424   0.00000  Uiso   1.00
H1058  H     0.26284   0.64155   0.74739   0.00000  Uiso   1.00
C1059  C     0.29253   0.41417   0.73420   0.00000  Uiso   1.00
O1060  O     0.28276   0.39304   0.76757   0.00000  Uiso   1.00
O1061  O     0.28527   0.39633   0.69174   0.00000  Uiso   1.00
H1062  H     0.27026   0.36640   0.69257   0.00000  Uiso   1.00
C1063  C     0.04043   0.58777   0.73904   0.00000  Uiso   1.00
O1064  O     0.04319   0.61398   0.77045   0.00000  Uiso   1.00
O1065  O     0.05552   0.59987   0.69727   0.00000  Uiso   1.00
H1066  H     0.06702   0.63171   0.69684   0.00000  Uiso   1.00
C1067  C     0.42012   0.50037   0.74588   0.00000  Uiso   1.00
C1068  C     0.58028   0.49974   0.75096   0.00000  Uiso   1.00
C1069  C     0.43179   0.46877   0.52341   0.00000  Uiso   1.00
C1070  C     0.57871   0.49849   0.97791   0.00000  Uiso   1.00
C1071  C     0.35512   0.46025   0.73170   0.00000  Uiso   1.00
C1072  C     0.64599   0.54118   0.75386   0.00000  Uiso   1.00
C1073  C     0.64638   0.45876   0.73884   0.00000  Uiso   1.00
C1074  C     0.35423   0.54260   0.74494   0.00000  Uiso   1.00
C1075  C     0.62490   0.49943   0.74966   0.00000  Uiso   1.00
C1076  C     0.37597   0.50136   0.73903   0.00000  Uiso   1.00
C1077  C     0.51234   0.35697   0.78708   0.00000  Uiso   1.00
C1078  C     0.48811   0.64303   0.71277   0.00000  Uiso   1.00
C1079  C     0.48815   0.35766   0.71276   0.00000  Uiso   1.00
C1080  C     0.51233   0.64232   0.78709   0.00000  Uiso   1.00
C1081  C     0.49971   0.50022   0.66346   0.00000  Uiso   1.00
C1082  C     0.49993   0.49974   0.83649   0.00000  Uiso   1.00
C1083  C     0.53884   0.50209   0.90677   0.00000  Uiso   1.00
C1084  C     0.46435   0.49977   0.59077   0.00000  Uiso   1.00
C1085  C     0.50087   0.49793   0.88442   0.00000  Uiso   1.00
C1086  C     0.50119   0.50058   0.61557   0.00000  Uiso   1.00
C1087  C     0.46449   0.48818   0.90687   0.00000  Uiso   1.00
C1088  C     0.53968   0.49870   0.59495   0.00000  Uiso   1.00
C1089  C     0.46636   0.48099   0.95325   0.00000  Uiso   1.00
C1090  C     0.54133   0.49839   0.54784   0.00000  Uiso   1.00
C1091  C     0.50395   0.48922   0.97670   0.00000  Uiso   1.00
C1092  C     0.50407   0.49087   0.52356   0.00000  Uiso   1.00
C1093  C     0.54103   0.49640   0.95346   0.00000  Uiso   1.00
C1094  C     0.46618   0.48712   0.54596   0.00000  Uiso   1.00
C1095  C     0.43235   0.46443   0.97713   0.00000  Uiso   1.00
C1096  C     0.57850   0.50378   0.52413   0.00000  Uiso   1.00
H1097  H     0.52235   0.37482   0.81668   0.00000  Uiso   1.00
H1098  H     0.47857   0.62518   0.68299   0.00000  Uiso   1.00
H1099  H     0.47887   0.37603   0.68291   0.00000  Uiso   1.00
H1100  H     0.52240   0.62391   0.81668   0.00000  Uiso   1.00
N1101  N     0.50000   0.61907   0.75000   0.00000  Uiso   1.00
N1102  N     0.50000   0.38093   0.75000   0.00000  Uiso   1.00
O1103  O     0.43892   0.53821   0.74999   0.00000  Uiso   1.00
O1104  O     0.56108   0.46179   0.75000   0.00000  Uiso   1.00
O1105  O     0.56108   0.53821   0.75000   0.00000  Uiso   1.00
O1106  O     0.43892   0.46179   0.74999   0.00000  Uiso   1.00
O1107  O     0.49999   0.53823   0.68392   0.00000  Uiso   1.00
O1108  O     0.50001   0.46177   0.81607   0.00000  Uiso   1.00
O1109  O     0.50001   0.53823   0.81607   0.00000  Uiso   1.00
O1110  O     0.49999   0.46177   0.68392   0.00000  Uiso   1.00
Zn1111 Zn    0.50000   0.55104   0.75000   0.00000  Uiso   1.00
Zn1112 Zn    0.50000   0.44896   0.75000   0.00000  Uiso   1.00
C1113  C     0.57443   0.51814   0.88112   0.00000  Uiso   1.00
O1114  O     0.58600   0.55725   0.88543   0.00000  Uiso   1.00
O1115  O     0.59538   0.48801   0.85348   0.00000  Uiso   1.00
H1116  H     0.62142   0.50163   0.84129   0.00000  Uiso   1.00
C1117  C     0.42535   0.51866   0.60916   0.00000  Uiso   1.00
O1118  O     0.41612   0.51179   0.64788   0.00000  Uiso   1.00
O1119  O     0.39925   0.54500   0.58165   0.00000  Uiso   1.00
H1120  H     0.37388   0.55619   0.59773   0.00000  Uiso   1.00
C1121  C     0.42428   0.49302   0.88259   0.00000  Uiso   1.00
O1122  O     0.41696   0.47004   0.84961   0.00000  Uiso   1.00
O1123  O     0.39471   0.52371   0.89809   0.00000  Uiso   1.00
H1124  H     0.36861   0.52394   0.87908   0.00000  Uiso   1.00
C1125  C     0.57718   0.49607   0.62354   0.00000  Uiso   1.00
O1126  O     0.59798   0.46124   0.62455   0.00000  Uiso   1.00
O1127  O     0.58922   0.53406   0.64800   0.00000  Uiso   1.00
H1128  H     0.61729   0.52971   0.66264   0.00000  Uiso   1.00
Cl1129 Cl    0.39318   0.43182   0.95116   0.00000  Uiso   1.00
Cl1130 Cl    0.62513   0.52325   0.54888   0.00000  Uiso   1.00
Cl1131 Cl    0.39051   0.44444   0.55314   0.00000  Uiso   1.00
Cl1132 Cl    0.62752   0.48895   0.95339   0.00000  Uiso   1.00
C1133  C     0.37653   0.41914   0.71416   0.00000  Uiso   1.00
O1134  O     0.37699   0.38370   0.73565   0.00000  Uiso   1.00
O1135  O     0.39590   0.42131   0.67293   0.00000  Uiso   1.00
H1136  H     0.40783   0.39094   0.66360   0.00000  Uiso   1.00
C1137  C     0.62540   0.58424   0.76712   0.00000  Uiso   1.00
O1138  O     0.62096   0.59282   0.80660   0.00000  Uiso   1.00
O1139  O     0.61130   0.61465   0.73424   0.00000  Uiso   1.00
H1140  H     0.59617   0.64155   0.74739   0.00000  Uiso   1.00
C1141  C     0.62586   0.41417   0.73420   0.00000  Uiso   1.00
O1142  O     0.61609   0.39304   0.76757   0.00000  Uiso   1.00
O1143  O     0.61860   0.39633   0.69174   0.00000  Uiso   1.00
H1144  H     0.60360   0.36640   0.69257   0.00000  Uiso   1.00
C1145  C     0.37376   0.58777   0.73904   0.00000  Uiso   1.00
O1146  O     0.37652   0.61398   0.77045   0.00000  Uiso   1.00
O1147  O     0.38886   0.59987   0.69727   0.00000  Uiso   1.00
H1148  H     0.40035   0.63171   0.69684   0.00000  Uiso   1.00
C1149  C     0.75345   0.50037   0.74588   0.00000  Uiso   1.00
C1150  C     0.91361   0.49974   0.75096   0.00000  Uiso   1.00
C1151  C     0.76512   0.46877   0.52341   0.00000  Uiso   1.00
C1152  C     0.91204   0.49849   0.97791   0.00000  Uiso   1.00
C1153  C     0.68845   0.46025   0.73170   0.00000  Uiso   1.00
C1154  C     0.97932   0.54118   0.75386   0.00000  Uiso   1.00
C1155  C     0.97972   0.45876   0.73884   0.00000  Uiso   1.00
C1156  C     0.68757   0.54260   0.74494   0.00000  Uiso   1.00
C1157  C     0.95824   0.49943   0.74966   0.00000  Uiso   1.00
C1158  C     0.70930   0.50136   0.73903   0.00000  Uiso   1.00
C1159  C     0.84567   0.35697   0.78708   0.00000  Uiso   1.00
C1160  C     0.82145   0.64303   0.71277   0.00000  Uiso   1.00
C1161  C     0.82148   0.35766   0.71276   0.00000  Uiso   1.00
C1162  C     0.84566   0.64232   0.78709   0.00000  Uiso   1.00
C1163  C     0.83305   0.50022   0.66346   0.00000  Uiso   1.00
C1164  C     0.83326   0.49974   0.83649   0.00000  Uiso   1.00
C1165  C     0.87217   0.50209   0.90677   0.00000  Uiso   1.00
C1166  C     0.79769   0.49977   0.59077   0.00000  Uiso   1.00
C1167  C     0.83421   0.49793   0.88442   0.00000  Uiso   1.00
C1168  C     0.83452   0.50058   0.61557   0.00000  Uiso   1.00
C1169  C     0.79783   0.48818   0.90687   0.00000  Uiso   1.00
C1170  C     0.87301   0.49870   0.59495   0.00000  Uiso   1.00
C1171  C     0.79969   0.48099   0.95325   0.00000  Uiso   1.00
C1172  C     0.87466   0.49839   0.54784   0.00000  Uiso   1.00
C1173  C     0.83728   0.48922   0.97670   0.00000  Uiso   1.00
C1174  C     0.83740   0.49087   0.52356   0.00000  Uiso   1.00
C1175  C     0.87436   0.49640   0.95346   0.00000  Uiso   1.00
C1176  C     0.79951   0.48712   0.54596   0.00000  Uiso   1.00
C1177  C     0.76568   0.46443   0.97713   0.00000  Uiso   1.00
C1178  C     0.91184   0.50378   0.52413   0.00000  Uiso   1.00
H1179  H     0.85569   0.37482   0.81668   0.00000  Uiso   1.00
H1180  H     0.81191   0.62518   0.68299   0.00000  Uiso   1.00
H1181  H     0.81221   0.37603   0.68291   0.00000  Uiso   1.00
H1182  H     0.85573   0.62391   0.81668   0.00000  Uiso   1.00
N1183  N     0.83333   0.61907   0.75000   0.00000  Uiso   1.00
N1184  N     0.83333   0.38093   0.75000   0.00000  Uiso   1.00
O1185  O     0.77226   0.53821   0.74999   0.00000  Uiso   1.00
O1186  O     0.89441   0.46179   0.75000   0.00000  Uiso   1.00
O1187  O     0.89441   0.53821   0.75000   0.00000  Uiso   1.00
O1188  O     0.77226   0.46179   0.74999   0.00000  Uiso   1.00
O1189  O     0.83333   0.53823   0.68392   0.00000  Uiso   1.00
O1190  O     0.83334   0.46177   0.81607   0.00000  Uiso   1.00
O1191  O     0.83334   0.53823   0.81607   0.00000  Uiso   1.00
O1192  O     0.83333   0.46177   0.68392   0.00000  Uiso   1.00
Zn1193 Zn    0.83333   0.55104   0.75000   0.00000  Uiso   1.00
Zn1194 Zn    0.83333   0.44896   0.75000   0.00000  Uiso   1.00
C1195  C     0.90776   0.51814   0.88112   0.00000  Uiso   1.00
O1196  O     0.91933   0.55725   0.88543   0.00000  Uiso   1.00
O1197  O     0.92871   0.48801   0.85348   0.00000  Uiso   1.00
H1198  H     0.95475   0.50163   0.84129   0.00000  Uiso   1.00
C1199  C     0.75868   0.51866   0.60916   0.00000  Uiso   1.00
O1200  O     0.74945   0.51179   0.64788   0.00000  Uiso   1.00
O1201  O     0.73258   0.54500   0.58165   0.00000  Uiso   1.00
H1202  H     0.70721   0.55619   0.59773   0.00000  Uiso   1.00
C1203  C     0.75762   0.49302   0.88259   0.00000  Uiso   1.00
O1204  O     0.75029   0.47004   0.84961   0.00000  Uiso   1.00
O1205  O     0.72804   0.52371   0.89809   0.00000  Uiso   1.00
H1206  H     0.70194   0.52394   0.87908   0.00000  Uiso   1.00
C1207  C     0.91051   0.49607   0.62354   0.00000  Uiso   1.00
O1208  O     0.93131   0.46124   0.62455   0.00000  Uiso   1.00
O1209  O     0.92255   0.53406   0.64800   0.00000  Uiso   1.00
H1210  H     0.95062   0.52971   0.66264   0.00000  Uiso   1.00
Cl1211 Cl    0.72651   0.43182   0.95116   0.00000  Uiso   1.00
Cl1212 Cl    0.95846   0.52325   0.54888   0.00000  Uiso   1.00
Cl1213 Cl    0.72384   0.44444   0.55314   0.00000  Uiso   1.00
Cl1214 Cl    0.96085   0.48895   0.95339   0.00000  Uiso   1.00
C1215  C     0.70987   0.41914   0.71416   0.00000  Uiso   1.00
O1216  O     0.71032   0.38370   0.73565   0.00000  Uiso   1.00
O1217  O     0.72924   0.42131   0.67293   0.00000  Uiso   1.00
H1218  H     0.74116   0.39094   0.66360   0.00000  Uiso   1.00
C1219  C     0.95873   0.58424   0.76712   0.00000  Uiso   1.00
O1220  O     0.95429   0.59282   0.80660   0.00000  Uiso   1.00
O1221  O     0.94463   0.61465   0.73424   0.00000  Uiso   1.00
H1222  H     0.92950   0.64155   0.74739   0.00000  Uiso   1.00
C1223  C     0.95919   0.41417   0.73420   0.00000  Uiso   1.00
O1224  O     0.94942   0.39304   0.76757   0.00000  Uiso   1.00
O1225  O     0.95193   0.39633   0.69174   0.00000  Uiso   1.00
H1226  H     0.93693   0.36640   0.69257   0.00000  Uiso   1.00
C1227  C     0.70710   0.58777   0.73904   0.00000  Uiso   1.00
O1228  O     0.70985   0.61398   0.77045   0.00000  Uiso   1.00
O1229  O     0.72219   0.59987   0.69727   0.00000  Uiso   1.00
H1230  H     0.73369   0.63171   0.69684   0.00000  Uiso   1.00
C1231  C     0.08679   0.83370   0.74588   0.00000  Uiso   1.00
C1232  C     0.24694   0.83307   0.75096   0.00000  Uiso   1.00
C1233  C     0.09846   0.80210   0.52341   0.00000  Uiso   1.00
C1234  C     0.24537   0.83182   0.97791   0.00000  Uiso   1.00
C1235  C     0.02178   0.79358   0.73170   0.00000  Uiso   1.00
C1236  C     0.31266   0.87452   0.75386   0.00000  Uiso   1.00
C1237  C     0.31305   0.79209   0.73884   0.00000  Uiso   1.00
C1238  C     0.02090   0.87594   0.74494   0.00000  Uiso   1.00
C1239  C     0.29157   0.83276   0.74966   0.00000  Uiso   1.00
C1240  C     0.04263   0.83469   0.73903   0.00000  Uiso   1.00
C1241  C     0.17900   0.69031   0.78708   0.00000  Uiso   1.00
C1242  C     0.15478   0.97636   0.71277   0.00000  Uiso   1.00
C1243  C     0.15482   0.69099   0.71276   0.00000  Uiso   1.00
C1244  C     0.17900   0.97565   0.78709   0.00000  Uiso   1.00
C1245  C     0.16638   0.83355   0.66346   0.00000  Uiso   1.00
C1246  C     0.16659   0.83307   0.83649   0.00000  Uiso   1.00
C1247  C     0.20550   0.83543   0.90677   0.00000  Uiso   1.00
C1248  C     0.13102   0.83311   0.59077   0.00000  Uiso   1.00
C1249  C     0.16754   0.83126   0.88442   0.00000  Uiso   1.00
C1250  C     0.16786   0.83391   0.61557   0.00000  Uiso   1.00
C1251  C     0.13116   0.82151   0.90687   0.00000  Uiso   1.00
C1252  C     0.20634   0.83204   0.59495   0.00000  Uiso   1.00
C1253  C     0.13303   0.81433   0.95325   0.00000  Uiso   1.00
C1254  C     0.20799   0.83172   0.54784   0.00000  Uiso   1.00
C1255  C     0.17061   0.82256   0.97670   0.00000  Uiso   1.00
C1256  C     0.17074   0.82420   0.52356   0.00000  Uiso   1.00
C1257  C     0.20770   0.82973   0.95346   0.00000  Uiso   1.00
C1258  C     0.13285   0.82045   0.54596   0.00000  Uiso   1.00
C1259  C     0.09901   0.79776   0.97713   0.00000  Uiso   1.00
C1260  C     0.24517   0.83712   0.52413   0.00000  Uiso   1.00
H1261  H     0.18902   0.70816   0.81668   0.00000  Uiso   1.00
H1262  H     0.14524   0.95852   0.68299   0.00000  Uiso   1.00
H1263  H     0.14554   0.70936   0.68291   0.00000  Uiso   1.00
H1264  H     0.18907   0.95725   0.81668   0.00000  Uiso   1.00
N1265  N     0.16667   0.95240   0.75000   0.00000  Uiso   1.00
N1266  N     0.16667   0.71427   0.75000   0.00000  Uiso   1.00
O1267  O     0.10559   0.87154   0.74999   0.00000  Uiso   1.00
O1268  O     0.22774   0.79513   0.75000   0.00000  Uiso   1.00
O1269  O     0.22774   0.87154   0.75000   0.00000  Uiso   1.00
O1270  O     0.10559   0.79513   0.74999   0.00000  Uiso   1.00
O1271  O     0.16666   0.87156   0.68392   0.00000  Uiso   1.00
O1272  O     0.16667   0.79511   0.81607   0.00000  Uiso   1.00
O1273  O     0.16667   0.87156   0.81607   0.00000  Uiso   1.00
O1274  O     0.16666   0.79511   0.68392   0.00000  Uiso   1.00
Zn1275 Zn    0.16667   0.88437   0.75000   0.00000  Uiso   1.00
Zn1276 Zn    0.16667   0.78229   0.75000   0.00000  Uiso   1.00
C1277  C     0.24109   0.85148   0.88112   0.00000  Uiso   1.00
O1278  O     0.25266   0.89059   0.88543   0.00000  Uiso   1.00
O1279  O     0.26205   0.82134   0.85348   0.00000  Uiso   1.00
H1280  H     0.28808   0.83496   0.84129   0.00000  Uiso   1.00
C1281  C     0.09202   0.85199   0.60916   0.00000  Uiso   1.00
O1282  O     0.08279   0.84512   0.64788   0.00000  Uiso   1.00
O1283  O     0.06591   0.87833   0.58165   0.00000  Uiso   1.00
H1284  H     0.04054   0.88952   0.59773   0.00000  Uiso   1.00
C1285  C     0.09095   0.82635   0.88259   0.00000  Uiso   1.00
O1286  O     0.08363   0.80337   0.84961   0.00000  Uiso   1.00
O1287  O     0.06137   0.85704   0.89809   0.00000  Uiso   1.00
H1288  H     0.03527   0.85727   0.87908   0.00000  Uiso   1.00
C1289  C     0.24384   0.82941   0.62354   0.00000  Uiso   1.00
O1290  O     0.26464   0.79457   0.62455   0.00000  Uiso   1.00
O1291  O     0.25589   0.86739   0.64800   0.00000  Uiso   1.00
H1292  H     0.28396   0.86305   0.66264   0.00000  Uiso   1.00
Cl1293 Cl    0.05985   0.76515   0.95116   0.00000  Uiso   1.00
Cl1294 Cl    0.29179   0.85659   0.54888   0.00000  Uiso   1.00
Cl1295 Cl    0.05718   0.77777   0.55314   0.00000  Uiso   1.00
Cl1296 Cl    0.29418   0.82229   0.95339   0.00000  Uiso   1.00
C1297  C     0.04320   0.75247   0.71416   0.00000  Uiso   1.00
O1298  O     0.04365   0.71703   0.73565   0.00000  Uiso   1.00
O1299  O     0.06257   0.75465   0.67293   0.00000  Uiso   1.00
H1300  H     0.07449   0.72428   0.66360   0.00000  Uiso   1.00
C1301  C     0.29207   0.91757   0.76712   0.00000  Uiso   1.00
O1302  O     0.28763   0.92615   0.80660   0.00000  Uiso   1.00
O1303  O     0.27796   0.94798   0.73424   0.00000  Uiso   1.00
H1304  H     0.26284   0.97488   0.74739   0.00000  Uiso   1.00
C1305  C     0.29253   0.74750   0.73420   0.00000  Uiso   1.00
O1306  O     0.28276   0.72638   0.76757   0.00000  Uiso   1.00
O1307  O     0.28527   0.72967   0.69174   0.00000  Uiso   1.00
H1308  H     0.27026   0.69973   0.69257   0.00000  Uiso   1.00
C1309  C     0.04043   0.92110   0.73904   0.00000  Uiso   1.00
O1310  O     0.04319   0.94731   0.77045   0.00000  Uiso   1.00
O1311  O     0.05552   0.93320   0.69727   0.00000  Uiso   1.00
H1312  H     0.06702   0.96504   0.69684   0.00000  Uiso   1.00
C1313  C     0.42012   0.83370   0.74588   0.00000  Uiso   1.00
C1314  C     0.58028   0.83307   0.75096   0.00000  Uiso   1.00
C1315  C     0.43179   0.80210   0.52341   0.00000  Uiso   1.00
C1316  C     0.57871   0.83182   0.97791   0.00000  Uiso   1.00
C1317  C     0.35512   0.79358   0.73170   0.00000  Uiso   1.00
C1318  C     0.64599   0.87452   0.75386   0.00000  Uiso   1.00
C1319  C     0.64638   0.79209   0.73884   0.00000  Uiso   1.00
C1320  C     0.35423   0.87594   0.74494   0.00000  Uiso   1.00
C1321  C     0.62490   0.83276   0.74966   0.00000  Uiso   1.00
C1322  C     0.37597   0.83469   0.73903   0.00000  Uiso   1.00
C1323  C     0.51234   0.69031   0.78708   0.00000  Uiso   1.00
C1324  C     0.48811   0.97636   0.71277   0.00000  Uiso   1.00
C1325  C     0.48815   0.69099   0.71276   0.00000  Uiso   1.00
C1326  C     0.51233   0.97565   0.78709   0.00000  Uiso   1.00
C1327  C     0.49971   0.83355   0.66346   0.00000  Uiso   1.00
C1328  C     0.49993   0.83307   0.83649   0.00000  Uiso   1.00
C1329  C     0.53884   0.83543   0.90677   0.00000  Uiso   1.00
C1330  C     0.46435   0.83311   0.59077   0.00000  Uiso   1.00
C1331  C     0.50087   0.83126   0.88442   0.00000  Uiso   1.00
C1332  C     0.50119   0.83391   0.61557   0.00000  Uiso   1.00
C1333  C     0.46449   0.82151   0.90687   0.00000  Uiso   1.00
C1334  C     0.53968   0.83204   0.59495   0.00000  Uiso   1.00
C1335  C     0.46636   0.81433   0.95325   0.00000  Uiso   1.00
C1336  C     0.54133   0.83172   0.54784   0.00000  Uiso   1.00
C1337  C     0.50395   0.82256   0.97670   0.00000  Uiso   1.00
C1338  C     0.50407   0.82420   0.52356   0.00000  Uiso   1.00
C1339  C     0.54103   0.82973   0.95346   0.00000  Uiso   1.00
C1340  C     0.46618   0.82045   0.54596   0.00000  Uiso   1.00
C1341  C     0.43235   0.79776   0.97713   0.00000  Uiso   1.00
C1342  C     0.57850   0.83712   0.52413   0.00000  Uiso   1.00
H1343  H     0.52235   0.70816   0.81668   0.00000  Uiso   1.00
H1344  H     0.47857   0.95852   0.68299   0.00000  Uiso   1.00
H1345  H     0.47887   0.70936   0.68291   0.00000  Uiso   1.00
H1346  H     0.52240   0.95725   0.81668   0.00000  Uiso   1.00
N1347  N     0.50000   0.95240   0.75000   0.00000  Uiso   1.00
N1348  N     0.50000   0.71427   0.75000   0.00000  Uiso   1.00
O1349  O     0.43892   0.87154   0.74999   0.00000  Uiso   1.00
O1350  O     0.56108   0.79513   0.75000   0.00000  Uiso   1.00
O1351  O     0.56108   0.87154   0.75000   0.00000  Uiso   1.00
O1352  O     0.43892   0.79513   0.74999   0.00000  Uiso   1.00
O1353  O     0.49999   0.87156   0.68392   0.00000  Uiso   1.00
O1354  O     0.50001   0.79511   0.81607   0.00000  Uiso   1.00
O1355  O     0.50001   0.87156   0.81607   0.00000  Uiso   1.00
O1356  O     0.49999   0.79511   0.68392   0.00000  Uiso   1.00
Zn1357 Zn    0.50000   0.88437   0.75000   0.00000  Uiso   1.00
Zn1358 Zn    0.50000   0.78229   0.75000   0.00000  Uiso   1.00
C1359  C     0.57443   0.85148   0.88112   0.00000  Uiso   1.00
O1360  O     0.58600   0.89059   0.88543   0.00000  Uiso   1.00
O1361  O     0.59538   0.82134   0.85348   0.00000  Uiso   1.00
H1362  H     0.62142   0.83496   0.84129   0.00000  Uiso   1.00
C1363  C     0.42535   0.85199   0.60916   0.00000  Uiso   1.00
O1364  O     0.41612   0.84512   0.64788   0.00000  Uiso   1.00
O1365  O     0.39925   0.87833   0.58165   0.00000  Uiso   1.00
H1366  H     0.37388   0.88952   0.59773   0.00000  Uiso   1.00
C1367  C     0.42428   0.82635   0.88259   0.00000  Uiso   1.00
O1368  O     0.41696   0.80337   0.84961   0.00000  Uiso   1.00
O1369  O     0.39471   0.85704   0.89809   0.00000  Uiso   1.00
H1370  H     0.36861   0.85727   0.87908   0.00000  Uiso   1.00
C1371  C     0.57718   0.82941   0.62354   0.00000  Uiso   1.00
O1372  O     0.59798   0.79457   0.62455   0.00000  Uiso   1.00
O1373  O     0.58922   0.86739   0.64800   0.00000  Uiso   1.00
H1374  H     0.61729   0.86305   0.66264   0.00000  Uiso   1.00
Cl1375 Cl    0.39318   0.76515   0.95116   0.00000  Uiso   1.00
Cl1376 Cl    0.62513   0.85659   0.54888   0.00000  Uiso   1.00
Cl1377 Cl    0.39051   0.77777   0.55314   0.00000  Uiso   1.00
Cl1378 Cl    0.62752   0.82229   0.95339   0.00000  Uiso   1.00
C1379  C     0.37653   0.75247   0.71416   0.00000  Uiso   1.00
O1380  O     0.37699   0.71703   0.73565   0.00000  Uiso   1.00
O1381  O     0.39590   0.75465   0.67293   0.00000  Uiso   1.00
H1382  H     0.40783   0.72428   0.66360   0.00000  Uiso   1.00
C1383  C     0.62540   0.91757   0.76712   0.00000  Uiso   1.00
O1384  O     0.62096   0.92615   0.80660   0.00000  Uiso   1.00
O1385  O     0.61130   0.94798   0.73424   0.00000  Uiso   1.00
H1386  H     0.59617   0.97488   0.74739   0.00000  Uiso   1.00
C1387  C     0.62586   0.74750   0.73420   0.00000  Uiso   1.00
O1388  O     0.61609   0.72638   0.76757   0.00000  Uiso   1.00
O1389  O     0.61860   0.72967   0.69174   0.00000  Uiso   1.00
H1390  H     0.60360   0.69973   0.69257   0.00000  Uiso   1.00
C1391  C     0.37376   0.92110   0.73904   0.00000  Uiso   1.00
O1392  O     0.37652   0.94731   0.77045   0.00000  Uiso   1.00
O1393  O     0.38886   0.93320   0.69727   0.00000  Uiso   1.00
H1394  H     0.40035   0.96504   0.69684   0.00000  Uiso   1.00
C1395  C     0.75345   0.83370   0.74588   0.00000  Uiso   1.00
C1396  C     0.91361   0.83307   0.75096   0.00000  Uiso   1.00
C1397  C     0.76512   0.80210   0.52341   0.00000  Uiso   1.00
C1398  C     0.91204   0.83182   0.97791   0.00000  Uiso   1.00
C1399  C     0.68845   0.79358   0.73170   0.00000  Uiso   1.00
C1400  C     0.97932   0.87452   0.75386   0.00000  Uiso   1.00
C1401  C     0.97972   0.79209   0.73884   0.00000  Uiso   1.00
C1402  C     0.68757   0.87594   0.74494   0.00000  Uiso   1.00
C1403  C     0.95824   0.83276   0.74966   0.00000  Uiso   1.00
C1404  C     0.70930   0.83469   0.73903   0.00000  Uiso   1.00
C1405  C     0.84567   0.69031   0.78708   0.00000  Uiso   1.00
C1406  C     0.82145   0.97636   0.71277   0.00000  Uiso   1.00
C1407  C     0.82148   0.69099   0.71276   0.00000  Uiso   1.00
C1408  C     0.84566   0.97565   0.78709   0.00000  Uiso   1.00
C1409  C     0.83305   0.83355   0.66346   0.00000  Uiso   1.00
C1410  C     0.83326   0.83307   0.83649   0.00000  Uiso   1.00
C1411  C     0.87217   0.83543   0.90677   0.00000  Uiso   1.00
C1412  C     0.79769   0.83311   0.59077   0.00000  Uiso   1.00
C1413  C     0.83421   0.83126   0.88442   0.00000  Uiso   1.00
C1414  C     0.83452   0.83391   0.61557   0.00000  Uiso   1.00
C1415  C     0.79783   0.82151   0.90687   0.00000  Uiso   1.00
C1416  C     0.87301   0.83204   0.59495   0.00000  Uiso   1.00
C1417  C     0.79969   0.81433   0.95325   0.00000  Uiso   1.00
C1418  C     0.87466   0.83172   0.54784   0.00000  Uiso   1.00
C1419  C     0.83728   0.82256   0.97670   0.00000  Uiso   1.00
C1420  C     0.83740   0.82420   0.52356   0.00000  Uiso   1.00
C1421  C     0.87436   0.82973   0.95346   0.00000  Uiso   1.00
C1422  C     0.79951   0.82045   0.54596   0.00000  Uiso   1.00
C1423  C     0.76568   0.79776   0.97713   0.00000  Uiso   1.00
C1424  C     0.91184   0.83712   0.52413   0.00000  Uiso   1.00
H1425  H     0.85569   0.70816   0.81668   0.00000  Uiso   1.00
H1426  H     0.81191   0.95852   0.68299   0.00000  Uiso   1.00
H1427  H     0.81221   0.70936   0.68291   0.00000  Uiso   1.00
H1428  H     0.85573   0.95725   0.81668   0.00000  Uiso   1.00
N1429  N     0.83333   0.95240   0.75000   0.00000  Uiso   1.00
N1430  N     0.83333   0.71427   0.75000   0.00000  Uiso   1.00
O1431  O     0.77226   0.87154   0.74999   0.00000  Uiso   1.00
O1432  O     0.89441   0.79513   0.75000   0.00000  Uiso   1.00
O1433  O     0.89441   0.87154   0.75000   0.00000  Uiso   1.00
O1434  O     0.77226   0.79513   0.74999   0.00000  Uiso   1.00
O1435  O     0.83333   0.87156   0.68392   0.00000  Uiso   1.00
O1436  O     0.83334   0.79511   0.81607   0.00000  Uiso   1.00
O1437  O     0.83334   0.87156   0.81607   0.00000  Uiso   1.00
O1438  O     0.83333   0.79511   0.68392   0.00000  Uiso   1.00
Zn1439 Zn    0.83333   0.88437   0.75000   0.00000  Uiso   1.00
Zn1440 Zn    0.83333   0.78229   0.75000   0.00000  Uiso   1.00
C1441  C     0.90776   0.85148   0.88112   0.00000  Uiso   1.00
O1442  O     0.91933   0.89059   0.88543   0.00000  Uiso   1.00
O1443  O     0.92871   0.82134   0.85348   0.00000  Uiso   1.00
H1444  H     0.95475   0.83496   0.84129   0.00000  Uiso   1.00
C1445  C     0.75868   0.85199   0.60916   0.00000  Uiso   1.00
O1446  O     0.74945   0.84512   0.64788   0.00000  Uiso   1.00
O1447  O     0.73258   0.87833   0.58165   0.00000  Uiso   1.00
H1448  H     0.70721   0.88952   0.59773   0.00000  Uiso   1.00
C1449  C     0.75762   0.82635   0.88259   0.00000  Uiso   1.00
O1450  O     0.75029   0.80337   0.84961   0.00000  Uiso   1.00
O1451  O     0.72804   0.85704   0.89809   0.00000  Uiso   1.00
H1452  H     0.70194   0.85727   0.87908   0.00000  Uiso   1.00
C1453  C     0.91051   0.82941   0.62354   0.00000  Uiso   1.00
O1454  O     0.93131   0.79457   0.62455   0.00000  Uiso   1.00
O1455  O     0.92255   0.86739   0.64800   0.00000  Uiso   1.00
H1456  H     0.95062   0.86305   0.66264   0.00000  Uiso   1.00
Cl1457 Cl    0.72651   0.76515   0.95116   0.00000  Uiso   1.00
Cl1458 Cl    0.95846   0.85659   0.54888   0.00000  Uiso   1.00
Cl1459 Cl    0.72384   0.77777   0.55314   0.00000  Uiso   1.00
Cl1460 Cl    0.96085   0.82229   0.95339   0.00000  Uiso   1.00
C1461  C     0.70987   0.75247   0.71416   0.00000  Uiso   1.00
O1462  O     0.71032   0.71703   0.73565   0.00000  Uiso   1.00
O1463  O     0.72924   0.75465   0.67293   0.00000  Uiso   1.00
H1464  H     0.74116   0.72428   0.66360   0.00000  Uiso   1.00
C1465  C     0.95873   0.91757   0.76712   0.00000  Uiso   1.00
O1466  O     0.95429   0.92615   0.80660   0.00000  Uiso   1.00
O1467  O     0.94463   0.94798   0.73424   0.00000  Uiso   1.00
H1468  H     0.92950   0.97488   0.74739   0.00000  Uiso   1.00
C1469  C     0.95919   0.74750   0.73420   0.00000  Uiso   1.00
O1470  O     0.94942   0.72638   0.76757   0.00000  Uiso   1.00
O1471  O     0.95193   0.72967   0.69174   0.00000  Uiso   1.00
H1472  H     0.93693   0.69973   0.69257   0.00000  Uiso   1.00
C1473  C     0.70710   0.92110   0.73904   0.00000  Uiso   1.00
O1474  O     0.70985   0.94731   0.77045   0.00000  Uiso   1.00
O1475  O     0.72219   0.93320   0.69727   0.00000  Uiso   1.00
H1476  H     0.73369   0.96504   0.69684   0.00000  Uiso   1.00
loop_
_geom_bond_atom_site_label_1
_geom_bond_atom_site_label_2
_geom_bond_distance
_geom_bond_site_symmetry_2
_ccdc_geom_bond_type
C1     O40     1.288   .     A
C1     O37     1.282   .     A
C1     C10     1.446   .     S
C2     O39     1.287   .     A
C2     O38     1.286   .     A
C2     C9      1.451   .     S
C3     Cl65    1.777   .     S
C3     C28     1.411   .     A
C3     C767    1.394   1_554 S
C4     C27     1.419   .     A
C4     Cl66    1.778   .     S
C4     C768    1.395   .     S
C5     C67     1.492   .     S
C5     C10     1.411   .     A
C5     C171    1.388   1_455 S
C6     C9      1.419   .     A
C6     C71     1.486   .     S
C6     C90     1.382   .     S
C7     C75     1.486   .     S
C7     C9      1.421   .     A
C7     C87     1.388   .     S
C8     C79     1.491   .     S
C8     C10     1.411   .     A
C8     C170    1.382   1_455 S
C11    N36     1.366   .     A
C11    H31     1.081   .     S
C11    C506    1.413   1_545 S
C12    H32     1.081   .     S
C12    N35     1.365   .     A
C12    C259    1.412   .     S
C13    N36     1.365   .     A
C13    H33     1.080   .     S
C13    C504    1.412   1_545 S
C14    N35     1.366   .     A
C14    H34     1.081   .     S
C14    C257    1.413   .     S
C15    O44     1.284   .     A
C15    C20     1.437   .     S
C15    O41     1.279   .     A
C16    O43     1.285   .     A
C16    O42     1.277   .     A
C16    C19     1.437   .     S
C17    C27     1.409   .     A
C17    C47     1.479   .     S
C17    C19     1.401   .     A
C18    C51     1.493   .     S
C18    C28     1.397   .     A
C18    C20     1.400   .     A
C19    C21     1.401   .     A
C20    C22     1.404   .     A
C21    C55     1.491   .     S
C21    C23     1.405   .     A
C22    C24     1.414   .     A
C22    C59     1.480   .     S
C23    C29     1.416   .     A
C23    C25     1.423   .     A
C24    C26     1.423   .     A
C24    C30     1.421   .     A
C25    C27     1.418   .     A
C25    C764    1.405   .     S
C26    C28     1.417   .     A
C26    C763    1.405   1_554 S
C29    Cl63    1.776   .     S
C29    C741    1.394   .     S
C30    Cl64    1.778   .     S
C30    C742    1.395   1_554 S
N35    Zn45    2.003   .     S
N36    Zn46    2.003   .     S
O37    Zn45    2.024   .     S
O38    Zn46    2.024   .     S
O39    Zn45    2.016   .     S
O40    Zn46    2.016   .     S
O41    Zn45    2.018   .     S
O42    Zn46    2.018   .     S
O43    Zn45    2.014   .     S
O44    Zn46    2.014   .     S
C47    O49     1.396   .     S
C47    O48     1.222   .     D
O49    H50     1.013   .     S
C51    O52     1.219   .     D
C51    O53     1.399   .     S
O53    H54     1.014   .     S
C55    O56     1.223   .     D
C55    O57     1.398   .     S
O57    H58     1.014   .     S
C59    O60     1.222   .     D
C59    O61     1.397   .     S
O61    H62     1.012   .     S
C67    O68     1.223   .     D
C67    O69     1.397   .     S
O69    H70     1.013   .     S
C71    O72     1.221   .     D
C71    O73     1.396   .     S
O73    H74     1.012   .     S
C75    O76     1.223   .     D
C75    O77     1.397   .     S
O77    H78     1.012   .     S
C79    O81     1.397   .     S
C79    O80     1.223   .     D
O81    H82     1.013   .     S
C83    O122    1.288   .     A
C83    O119    1.282   .     A
C83    C92     1.446   .     S
C84    O121    1.287   .     A
C84    O120    1.286   .     A
C84    C91     1.451   .     S
C85    Cl147   1.777   .     S
C85    C110    1.411   .     A
C85    C849    1.394   1_554 S
C86    C109    1.419   .     A
C86    Cl148   1.778   .     S
C86    C850    1.395   .     S
C87    C149    1.492   .     S
C87    C92     1.411   .     A
C88    C91     1.419   .     A
C88    C153    1.486   .     S
C88    C172    1.382   .     S
C89    C157    1.486   .     S
C89    C91     1.421   .     A
C89    C169    1.388   .     S
C90    C161    1.491   .     S
C90    C92     1.411   .     A
C93    N118    1.366   .     A
C93    H113    1.081   .     S
C93    C588    1.413   1_545 S
C94    H114    1.081   .     S
C94    N117    1.365   .     A
C94    C341    1.412   .     S
C95    N118    1.365   .     A
C95    H115    1.080   .     S
C95    C586    1.412   1_545 S
C96    N117    1.366   .     A
C96    H116    1.081   .     S
C96    C339    1.413   .     S
C97    O126    1.284   .     A
C97    C102    1.437   .     S
C97    O123    1.279   .     A
C98    O125    1.285   .     A
C98    O124    1.277   .     A
C98    C101    1.437   .     S
C99    C109    1.409   .     A
C99    C129    1.479   .     S
C99    C101    1.401   .     A
C100   C133    1.493   .     S
C100   C110    1.397   .     A
C100   C102    1.400   .     A
C101   C103    1.401   .     A
C102   C104    1.404   .     A
C103   C137    1.491   .     S
C103   C105    1.405   .     A
C104   C106    1.414   .     A
C104   C141    1.480   .     S
C105   C111    1.416   .     A
C105   C107    1.423   .     A
C106   C108    1.423   .     A
C106   C112    1.421   .     A
C107   C109    1.418   .     A
C107   C846    1.405   .     S
C108   C110    1.417   .     A
C108   C845    1.405   1_554 S
C111   Cl145   1.776   .     S
C111   C823    1.394   .     S
C112   Cl146   1.778   .     S
C112   C824    1.395   1_554 S
N117   Zn127   2.003   .     S
N118   Zn128   2.003   .     S
O119   Zn127   2.024   .     S
O120   Zn128   2.024   .     S
O121   Zn127   2.016   .     S
O122   Zn128   2.016   .     S
O123   Zn127   2.018   .     S
O124   Zn128   2.018   .     S
O125   Zn127   2.014   .     S
O126   Zn128   2.014   .     S
C129   O131    1.396   .     S
C129   O130    1.222   .     D
O131   H132    1.013   .     S
C133   O134    1.219   .     D
C133   O135    1.399   .     S
O135   H136    1.014   .     S
C137   O138    1.223   .     D
C137   O139    1.398   .     S
O139   H140    1.014   .     S
C141   O142    1.222   .     D
C141   O143    1.397   .     S
O143   H144    1.012   .     S
C149   O150    1.223   .     D
C149   O151    1.397   .     S
O151   H152    1.013   .     S
C153   O154    1.221   .     D
C153   O155    1.396   .     S
O155   H156    1.012   .     S
C157   O158    1.223   .     D
C157   O159    1.397   .     S
O159   H160    1.012   .     S
C161   O163    1.397   .     S
C161   O162    1.223   .     D
O163   H164    1.013   .     S
C165   O204    1.288   .     A
C165   O201    1.282   .     A
C165   C174    1.446   .     S
C166   O203    1.287   .     A
C166   O202    1.286   .     A
C166   C173    1.451   .     S
C167   Cl229   1.777   .     S
C167   C192    1.411   .     A
C167   C931    1.394   1_554 S
C168   C191    1.419   .     A
C168   Cl230   1.778   .     S
C168   C932    1.395   .     S
C169   C231    1.492   .     S
C169   C174    1.411   .     A
C170   C173    1.419   .     A
C170   C235    1.486   .     S
C170   C8      1.382   1_655 S
C171   C239    1.486   .     S
C171   C173    1.421   .     A
C171   C5      1.388   1_655 S
C172   C243    1.491   .     S
C172   C174    1.411   .     A
C175   N200    1.366   .     A
C175   H195    1.081   .     S
C175   C670    1.413   1_545 S
C176   H196    1.081   .     S
C176   N199    1.365   .     A
C176   C423    1.412   .     S
C177   N200    1.365   .     A
C177   H197    1.080   .     S
C177   C668    1.412   1_545 S
C178   N199    1.366   .     A
C178   H198    1.081   .     S
C178   C421    1.413   .     S
C179   O208    1.284   .     A
C179   C184    1.437   .     S
C179   O205    1.279   .     A
C180   O207    1.285   .     A
C180   O206    1.277   .     A
C180   C183    1.437   .     S
C181   C191    1.409   .     A
C181   C211    1.479   .     S
C181   C183    1.401   .     A
C182   C215    1.493   .     S
C182   C192    1.397   .     A
C182   C184    1.400   .     A
C183   C185    1.401   .     A
C184   C186    1.404   .     A
C185   C219    1.491   .     S
C185   C187    1.405   .     A
C186   C188    1.414   .     A
C186   C223    1.480   .     S
C187   C193    1.416   .     A
C187   C189    1.423   .     A
C188   C190    1.423   .     A
C188   C194    1.421   .     A
C189   C191    1.418   .     A
C189   C928    1.405   .     S
C190   C192    1.417   .     A
C190   C927    1.405   1_554 S
C193   Cl227   1.776   .     S
C193   C905    1.394   .     S
C194   Cl228   1.778   .     S
C194   C906    1.395   1_554 S
N199   Zn209   2.003   .     S
N200   Zn210   2.003   .     S
O201   Zn209   2.024   .     S
O202   Zn210   2.024   .     S
O203   Zn209   2.016   .     S
O204   Zn210   2.016   .     S
O205   Zn209   2.018   .     S
O206   Zn210   2.018   .     S
O207   Zn209   2.014   .     S
O208   Zn210   2.014   .     S
C211   O213    1.396   .     S
C211   O212    1.222   .     D
O213   H214    1.013   .     S
C215   O216    1.219   .     D
C215   O217    1.399   .     S
O217   H218    1.014   .     S
C219   O220    1.223   .     D
C219   O221    1.398   .     S
O221   H222    1.014   .     S
C223   O224    1.222   .     D
C223   O225    1.397   .     S
O225   H226    1.012   .     S
C231   O232    1.223   .     D
C231   O233    1.397   .     S
O233   H234    1.013   .     S
C235   O236    1.221   .     D
C235   O237    1.396   .     S
O237   H238    1.012   .     S
C239   O240    1.223   .     D
C239   O241    1.397   .     S
O241   H242    1.012   .     S
C243   O245    1.397   .     S
C243   O244    1.223   .     D
O245   H246    1.013   .     S
C247   O286    1.288   .     A
C247   O283    1.282   .     A
C247   C256    1.446   .     S
C248   O285    1.287   .     A
C248   O284    1.286   .     A
C248   C255    1.451   .     S
C249   Cl311   1.777   .     S
C249   C274    1.411   .     A
C249   C1013   1.394   1_554 S
C250   C273    1.419   .     A
C250   Cl312   1.778   .     S
C250   C1014   1.395   .     S
C251   C313    1.492   .     S
C251   C256    1.411   .     A
C251   C417    1.388   1_455 S
C252   C255    1.419   .     A
C252   C317    1.486   .     S
C252   C336    1.382   .     S
C253   C321    1.486   .     S
C253   C255    1.421   .     A
C253   C333    1.388   .     S
C254   C325    1.491   .     S
C254   C256    1.411   .     A
C254   C416    1.382   1_455 S
C257   N282    1.366   .     A
C257   H277    1.081   .     S
C258   H278    1.081   .     S
C258   N281    1.365   .     A
C258   C505    1.412   .     S
C259   N282    1.365   .     A
C259   H279    1.080   .     S
C260   N281    1.366   .     A
C260   H280    1.081   .     S
C260   C503    1.413   .     S
C261   O290    1.284   .     A
C261   C266    1.437   .     S
C261   O287    1.279   .     A
C262   O289    1.285   .     A
C262   O288    1.277   .     A
C262   C265    1.437   .     S
C263   C273    1.409   .     A
C263   C293    1.479   .     S
C263   C265    1.401   .     A
C264   C297    1.493   .     S
C264   C274    1.397   .     A
C264   C266    1.400   .     A
C265   C267    1.401   .     A
C266   C268    1.404   .     A
C267   C301    1.491   .     S
C267   C269    1.405   .     A
C268   C270    1.414   .     A
C268   C305    1.480   .     S
C269   C275    1.416   .     A
C269   C271    1.423   .     A
C270   C272    1.423   .     A
C270   C276    1.421   .     A
C271   C273    1.418   .     A
C271   C1010   1.405   .     S
C272   C274    1.417   .     A
C272   C1009   1.405   1_554 S
C275   Cl309   1.776   .     S
C275   C987    1.394   .     S
C276   Cl310   1.778   .     S
C276   C988    1.395   1_554 S
N281   Zn291   2.003   .     S
N282   Zn292   2.003   .     S
O283   Zn291   2.024   .     S
O284   Zn292   2.024   .     S
O285   Zn291   2.016   .     S
O286   Zn292   2.016   .     S
O287   Zn291   2.018   .     S
O288   Zn292   2.018   .     S
O289   Zn291   2.014   .     S
O290   Zn292   2.014   .     S
C293   O295    1.396   .     S
C293   O294    1.222   .     D
O295   H296    1.013   .     S
C297   O298    1.219   .     D
C297   O299    1.399   .     S
O299   H300    1.014   .     S
C301   O302    1.223   .     D
C301   O303    1.398   .     S
O303   H304    1.014   .     S
C305   O306    1.222   .     D
C305   O307    1.397   .     S
O307   H308    1.012   .     S
C313   O314    1.223   .     D
C313   O315    1.397   .     S
O315   H316    1.013   .     S
C317   O318    1.221   .     D
C317   O319    1.396   .     S
O319   H320    1.012   .     S
C321   O322    1.223   .     D
C321   O323    1.397   .     S
O323   H324    1.012   .     S
C325   O327    1.397   .     S
C325   O326    1.223   .     D
O327   H328    1.013   .     S
C329   O368    1.288   .     A
C329   O365    1.282   .     A
C329   C338    1.446   .     S
C330   O367    1.287   .     A
C330   O366    1.286   .     A
C330   C337    1.451   .     S
C331   Cl393   1.777   .     S
C331   C356    1.411   .     A
C331   C1095   1.394   1_554 S
C332   C355    1.419   .     A
C332   Cl394   1.778   .     S
C332   C1096   1.395   .     S
C333   C395    1.492   .     S
C333   C338    1.411   .     A
C334   C337    1.419   .     A
C334   C399    1.486   .     S
C334   C418    1.382   .     S
C335   C403    1.486   .     S
C335   C337    1.421   .     A
C335   C415    1.388   .     S
C336   C407    1.491   .     S
C336   C338    1.411   .     A
C339   N364    1.366   .     A
C339   H359    1.081   .     S
C340   H360    1.081   .     S
C340   N363    1.365   .     A
C340   C587    1.412   .     S
C341   N364    1.365   .     A
C341   H361    1.080   .     S
C342   N363    1.366   .     A
C342   H362    1.081   .     S
C342   C585    1.413   .     S
C343   O372    1.284   .     A
C343   C348    1.437   .     S
C343   O369    1.279   .     A
C344   O371    1.285   .     A
C344   O370    1.277   .     A
C344   C347    1.437   .     S
C345   C355    1.409   .     A
C345   C375    1.479   .     S
C345   C347    1.401   .     A
C346   C379    1.493   .     S
C346   C356    1.397   .     A
C346   C348    1.400   .     A
C347   C349    1.401   .     A
C348   C350    1.404   .     A
C349   C383    1.491   .     S
C349   C351    1.405   .     A
C350   C352    1.414   .     A
C350   C387    1.480   .     S
C351   C357    1.416   .     A
C351   C353    1.423   .     A
C352   C354    1.423   .     A
C352   C358    1.421   .     A
C353   C355    1.418   .     A
C353   C1092   1.405   .     S
C354   C356    1.417   .     A
C354   C1091   1.405   1_554 S
C357   Cl391   1.776   .     S
C357   C1069   1.394   .     S
C358   Cl392   1.778   .     S
C358   C1070   1.395   1_554 S
N363   Zn373   2.003   .     S
N364   Zn374   2.003   .     S
O365   Zn373   2.024   .     S
O366   Zn374   2.024   .     S
O367   Zn373   2.016   .     S
O368   Zn374   2.016   .     S
O369   Zn373   2.018   .     S
O370   Zn374   2.018   .     S
O371   Zn373   2.014   .     S
O372   Zn374   2.014   .     S
C375   O377    1.396   .     S
C375   O376    1.222   .     D
O377   H378    1.013   .     S
C379   O380    1.219   .     D
C379   O381    1.399   .     S
O381   H382    1.014   .     S
C383   O384    1.223   .     D
C383   O385    1.398   .     S
O385   H386    1.014   .     S
C387   O388    1.222   .     D
C387   O389    1.397   .     S
O389   H390    1.012   .     S
C395   O396    1.223   .     D
C395   O397    1.397   .     S
O397   H398    1.013   .     S
C399   O400    1.221   .     D
C399   O401    1.396   .     S
O401   H402    1.012   .     S
C403   O404    1.223   .     D
C403   O405    1.397   .     S
O405   H406    1.012   .     S
C407   O409    1.397   .     S
C407   O408    1.223   .     D
O409   H410    1.013   .     S
C411   O450    1.288   .     A
C411   O447    1.282   .     A
C411   C420    1.446   .     S
C412   O449    1.287   .     A
C412   O448    1.286   .     A
C412   C419    1.451   .     S
C413   Cl475   1.777   .     S
C413   C438    1.411   .     A
C413   C1177   1.394   1_554 S
C414   C437    1.419   .     A
C414   Cl476   1.778   .     S
C414   C1178   1.395   .     S
C415   C477    1.492   .     S
C415   C420    1.411   .     A
C416   C419    1.419   .     A
C416   C481    1.486   .     S
C416   C254    1.382   1_655 S
C417   C485    1.486   .     S
C417   C419    1.421   .     A
C417   C251    1.388   1_655 S
C418   C489    1.491   .     S
C418   C420    1.411   .     A
C421   N446    1.366   .     A
C421   H441    1.081   .     S
C422   H442    1.081   .     S
C422   N445    1.365   .     A
C422   C669    1.412   .     S
C423   N446    1.365   .     A
C423   H443    1.080   .     S
C424   N445    1.366   .     A
C424   H444    1.081   .     S
C424   C667    1.413   .     S
C425   O454    1.284   .     A
C425   C430    1.437   .     S
C425   O451    1.279   .     A
C426   O453    1.285   .     A
C426   O452    1.277   .     A
C426   C429    1.437   .     S
C427   C437    1.409   .     A
C427   C457    1.479   .     S
C427   C429    1.401   .     A
C428   C461    1.493   .     S
C428   C438    1.397   .     A
C428   C430    1.400   .     A
C429   C431    1.401   .     A
C430   C432    1.404   .     A
C431   C465    1.491   .     S
C431   C433    1.405   .     A
C432   C434    1.414   .     A
C432   C469    1.480   .     S
C433   C439    1.416   .     A
C433   C435    1.423   .     A
C434   C436    1.423   .     A
C434   C440    1.421   .     A
C435   C437    1.418   .     A
C435   C1174   1.405   .     S
C436   C438    1.417   .     A
C436   C1173   1.405   1_554 S
C439   Cl473   1.776   .     S
C439   C1151   1.394   .     S
C440   Cl474   1.778   .     S
C440   C1152   1.395   1_554 S
N445   Zn455   2.003   .     S
N446   Zn456   2.003   .     S
O447   Zn455   2.024   .     S
O448   Zn456   2.024   .     S
O449   Zn455   2.016   .     S
O450   Zn456   2.016   .     S
O451   Zn455   2.018   .     S
O452   Zn456   2.018   .     S
O453   Zn455   2.014   .     S
O454   Zn456   2.014   .     S
C457   O459    1.396   .     S
C457   O458    1.222   .     D
O459   H460    1.013   .     S
C461   O462    1.219   .     D
C461   O463    1.399   .     S
O463   H464    1.014   .     S
C465   O466    1.223   .     D
C465   O467    1.398   .     S
O467   H468    1.014   .     S
C469   O470    1.222   .     D
C469   O471    1.397   .     S
O471   H472    1.012   .     S
C477   O478    1.223   .     D
C477   O479    1.397   .     S
O479   H480    1.013   .     S
C481   O482    1.221   .     D
C481   O483    1.396   .     S
O483   H484    1.012   .     S
C485   O486    1.223   .     D
C485   O487    1.397   .     S
O487   H488    1.012   .     S
C489   O491    1.397   .     S
C489   O490    1.223   .     D
O491   H492    1.013   .     S
C493   O532    1.288   .     A
C493   O529    1.282   .     A
C493   C502    1.446   .     S
C494   O531    1.287   .     A
C494   O530    1.286   .     A
C494   C501    1.451   .     S
C495   Cl557   1.777   .     S
C495   C520    1.411   .     A
C495   C1259   1.394   1_554 S
C496   C519    1.419   .     A
C496   Cl558   1.778   .     S
C496   C1260   1.395   .     S
C497   C559    1.492   .     S
C497   C502    1.411   .     A
C497   C663    1.388   1_455 S
C498   C501    1.419   .     A
C498   C563    1.486   .     S
C498   C582    1.382   .     S
C499   C567    1.486   .     S
C499   C501    1.421   .     A
C499   C579    1.388   .     S
C500   C571    1.491   .     S
C500   C502    1.411   .     A
C500   C662    1.382   1_455 S
C503   N528    1.366   .     A
C503   H523    1.081   .     S
C504   H524    1.081   .     S
C504   N527    1.365   .     A
C504   C13     1.412   1_565 S
C505   N528    1.365   .     A
C505   H525    1.080   .     S
C506   N527    1.366   .     A
C506   H526    1.081   .     S
C506   C11     1.413   1_565 S
C507   O536    1.284   .     A
C507   C512    1.437   .     S
C507   O533    1.279   .     A
C508   O535    1.285   .     A
C508   O534    1.277   .     A
C508   C511    1.437   .     S
C509   C519    1.409   .     A
C509   C539    1.479   .     S
C509   C511    1.401   .     A
C510   C543    1.493   .     S
C510   C520    1.397   .     A
C510   C512    1.400   .     A
C511   C513    1.401   .     A
C512   C514    1.404   .     A
C513   C547    1.491   .     S
C513   C515    1.405   .     A
C514   C516    1.414   .     A
C514   C551    1.480   .     S
C515   C521    1.416   .     A
C515   C517    1.423   .     A
C516   C518    1.423   .     A
C516   C522    1.421   .     A
C517   C519    1.418   .     A
C517   C1256   1.405   .     S
C518   C520    1.417   .     A
C518   C1255   1.405   1_554 S
C521   Cl555   1.776   .     S
C521   C1233   1.394   .     S
C522   Cl556   1.778   .     S
C522   C1234   1.395   1_554 S
N527   Zn537   2.003   .     S
N528   Zn538   2.003   .     S
O529   Zn537   2.024   .     S
O530   Zn538   2.024   .     S
O531   Zn537   2.016   .     S
O532   Zn538   2.016   .     S
O533   Zn537   2.018   .     S
O534   Zn538   2.018   .     S
O535   Zn537   2.014   .     S
O536   Zn538   2.014   .     S
C539   O541    1.396   .     S
C539   O540    1.222   .     D
O541   H542    1.013   .     S
C543   O544    1.219   .     D
C543   O545    1.399   .     S
O545   H546    1.014   .     S
C547   O548    1.223   .     D
C547   O549    1.398   .     S
O549   H550    1.014   .     S
C551   O552    1.222   .     D
C551   O553    1.397   .     S
O553   H554    1.012   .     S
C559   O560    1.223   .     D
C559   O561    1.397   .     S
O561   H562    1.013   .     S
C563   O564    1.221   .     D
C563   O565    1.396   .     S
O565   H566    1.012   .     S
C567   O568    1.223   .     D
C567   O569    1.397   .     S
O569   H570    1.012   .     S
C571   O573    1.397   .     S
C571   O572    1.223   .     D
O573   H574    1.013   .     S
C575   O614    1.288   .     A
C575   O611    1.282   .     A
C575   C584    1.446   .     S
C576   O613    1.287   .     A
C576   O612    1.286   .     A
C576   C583    1.451   .     S
C577   Cl639   1.777   .     S
C577   C602    1.411   .     A
C577   C1341   1.394   1_554 S
C578   C601    1.419   .     A
C578   Cl640   1.778   .     S
C578   C1342   1.395   .     S
C579   C641    1.492   .     S
C579   C584    1.411   .     A
C580   C583    1.419   .     A
C580   C645    1.486   .     S
C580   C664    1.382   .     S
C581   C649    1.486   .     S
C581   C583    1.421   .     A
C581   C661    1.388   .     S
C582   C653    1.491   .     S
C582   C584    1.411   .     A
C585   N610    1.366   .     A
C585   H605    1.081   .     S
C586   H606    1.081   .     S
C586   N609    1.365   .     A
C586   C95     1.412   1_565 S
C587   N610    1.365   .     A
C587   H607    1.080   .     S
C588   N609    1.366   .     A
C588   H608    1.081   .     S
C588   C93     1.413   1_565 S
C589   O618    1.284   .     A
C589   C594    1.437   .     S
C589   O615    1.279   .     A
C590   O617    1.285   .     A
C590   O616    1.277   .     A
C590   C593    1.437   .     S
C591   C601    1.409   .     A
C591   C621    1.479   .     S
C591   C593    1.401   .     A
C592   C625    1.493   .     S
C592   C602    1.397   .     A
C592   C594    1.400   .     A
C593   C595    1.401   .     A
C594   C596    1.404   .     A
C595   C629    1.491   .     S
C595   C597    1.405   .     A
C596   C598    1.414   .     A
C596   C633    1.480   .     S
C597   C603    1.416   .     A
C597   C599    1.423   .     A
C598   C600    1.423   .     A
C598   C604    1.421   .     A
C599   C601    1.418   .     A
C599   C1338   1.405   .     S
C600   C602    1.417   .     A
C600   C1337   1.405   1_554 S
C603   Cl637   1.776   .     S
C603   C1315   1.394   .     S
C604   Cl638   1.778   .     S
C604   C1316   1.395   1_554 S
N609   Zn619   2.003   .     S
N610   Zn620   2.003   .     S
O611   Zn619   2.024   .     S
O612   Zn620   2.024   .     S
O613   Zn619   2.016   .     S
O614   Zn620   2.016   .     S
O615   Zn619   2.018   .     S
O616   Zn620   2.018   .     S
O617   Zn619   2.014   .     S
O618   Zn620   2.014   .     S
C621   O623    1.396   .     S
C621   O622    1.222   .     D
O623   H624    1.013   .     S
C625   O626    1.219   .     D
C625   O627    1.399   .     S
O627   H628    1.014   .     S
C629   O630    1.223   .     D
C629   O631    1.398   .     S
O631   H632    1.014   .     S
C633   O634    1.222   .     D
C633   O635    1.397   .     S
O635   H636    1.012   .     S
C641   O642    1.223   .     D
C641   O643    1.397   .     S
O643   H644    1.013   .     S
C645   O646    1.221   .     D
C645   O647    1.396   .     S
O647   H648    1.012   .     S
C649   O650    1.223   .     D
C649   O651    1.397   .     S
O651   H652    1.012   .     S
C653   O655    1.397   .     S
C653   O654    1.223   .     D
O655   H656    1.013   .     S
C657   O696    1.288   .     A
C657   O693    1.282   .     A
C657   C666    1.446   .     S
C658   O695    1.287   .     A
C658   O694    1.286   .     A
C658   C665    1.451   .     S
C659   Cl721   1.777   .     S
C659   C684    1.411   .     A
C659   C1423   1.394   1_554 S
C660   C683    1.419   .     A
C660   Cl722   1.778   .     S
C660   C1424   1.395   .     S
C661   C723    1.492   .     S
C661   C666    1.411   .     A
C662   C665    1.419   .     A
C662   C727    1.486   .     S
C662   C500    1.382   1_655 S
C663   C731    1.486   .     S
C663   C665    1.421   .     A
C663   C497    1.388   1_655 S
C664   C735    1.491   .     S
C664   C666    1.411   .     A
C667   N692    1.366   .     A
C667   H687    1.081   .     S
C668   H688    1.081   .     S
C668   N691    1.365   .     A
C668   C177    1.412   1_565 S
C669   N692    1.365   .     A
C669   H689    1.080   .     S
C670   N691    1.366   .     A
C670   H690    1.081   .     S
C670   C175    1.413   1_565 S
C671   O700    1.284   .     A
C671   C676    1.437   .     S
C671   O697    1.279   .     A
C672   O699    1.285   .     A
C672   O698    1.277   .     A
C672   C675    1.437   .     S
C673   C683    1.409   .     A
C673   C703    1.479   .     S
C673   C675    1.401   .     A
C674   C707    1.493   .     S
C674   C684    1.397   .     A
C674   C676    1.400   .     A
C675   C677    1.401   .     A
C676   C678    1.404   .     A
C677   C711    1.491   .     S
C677   C679    1.405   .     A
C678   C680    1.414   .     A
C678   C715    1.480   .     S
C679   C685    1.416   .     A
C679   C681    1.423   .     A
C680   C682    1.423   .     A
C680   C686    1.421   .     A
C681   C683    1.418   .     A
C681   C1420   1.405   .     S
C682   C684    1.417   .     A
C682   C1419   1.405   1_554 S
C685   Cl719   1.776   .     S
C685   C1397   1.394   .     S
C686   Cl720   1.778   .     S
C686   C1398   1.395   1_554 S
N691   Zn701   2.003   .     S
N692   Zn702   2.003   .     S
O693   Zn701   2.024   .     S
O694   Zn702   2.024   .     S
O695   Zn701   2.016   .     S
O696   Zn702   2.016   .     S
O697   Zn701   2.018   .     S
O698   Zn702   2.018   .     S
O699   Zn701   2.014   .     S
O700   Zn702   2.014   .     S
C703   O705    1.396   .     S
C703   O704    1.222   .     D
O705   H706    1.013   .     S
C707   O708    1.219   .     D
C707   O709    1.399   .     S
O709   H710    1.014   .     S
C711   O712    1.223   .     D
C711   O713    1.398   .     S
O713   H714    1.014   .     S
C715   O716    1.222   .     D
C715   O717    1.397   .     S
O717   H718    1.012   .     S
C723   O724    1.223   .     D
C723   O725    1.397   .     S
O725   H726    1.013   .     S
C727   O728    1.221   .     D
C727   O729    1.396   .     S
O729   H730    1.012   .     S
C731   O732    1.223   .     D
C731   O733    1.397   .     S
O733   H734    1.012   .     S
C735   O737    1.397   .     S
C735   O736    1.223   .     D
O737   H738    1.013   .     S
C739   O778    1.288   .     A
C739   O775    1.282   .     A
C739   C748    1.446   .     S
C740   O777    1.287   .     A
C740   O776    1.286   .     A
C740   C747    1.451   .     S
C741   Cl803   1.777   .     S
C741   C766    1.411   .     A
C742   C765    1.419   .     A
C742   Cl804   1.778   .     S
C742   C30     1.395   1_556 S
C743   C805    1.492   .     S
C743   C748    1.411   .     A
C743   C909    1.388   1_455 S
C744   C747    1.419   .     A
C744   C809    1.486   .     S
C744   C828    1.382   .     S
C745   C813    1.486   .     S
C745   C747    1.421   .     A
C745   C825    1.388   .     S
C746   C817    1.491   .     S
C746   C748    1.411   .     A
C746   C908    1.382   1_455 S
C749   N774    1.366   .     A
C749   H769    1.081   .     S
C749   C1244   1.413   1_545 S
C750   H770    1.081   .     S
C750   N773    1.365   .     A
C750   C997    1.412   .     S
C751   N774    1.365   .     A
C751   H771    1.080   .     S
C751   C1242   1.412   1_545 S
C752   N773    1.366   .     A
C752   H772    1.081   .     S
C752   C995    1.413   .     S
C753   O782    1.284   .     A
C753   C758    1.437   .     S
C753   O779    1.279   .     A
C754   O781    1.285   .     A
C754   O780    1.277   .     A
C754   C757    1.437   .     S
C755   C765    1.409   .     A
C755   C785    1.479   .     S
C755   C757    1.401   .     A
C756   C789    1.493   .     S
C756   C766    1.397   .     A
C756   C758    1.400   .     A
C757   C759    1.401   .     A
C758   C760    1.404   .     A
C759   C793    1.491   .     S
C759   C761    1.405   .     A
C760   C762    1.414   .     A
C760   C797    1.480   .     S
C761   C767    1.416   .     A
C761   C763    1.423   .     A
C762   C764    1.423   .     A
C762   C768    1.421   .     A
C763   C765    1.418   .     A
C763   C26     1.405   1_556 S
C764   C766    1.417   .     A
C767   Cl801   1.776   .     S
C767   C3      1.394   1_556 S
C768   Cl802   1.778   .     S
N773   Zn783   2.003   .     S
N774   Zn784   2.003   .     S
O775   Zn783   2.024   .     S
O776   Zn784   2.024   .     S
O777   Zn783   2.016   .     S
O778   Zn784   2.016   .     S
O779   Zn783   2.018   .     S
O780   Zn784   2.018   .     S
O781   Zn783   2.014   .     S
O782   Zn784   2.014   .     S
C785   O787    1.396   .     S
C785   O786    1.222   .     D
O787   H788    1.013   .     S
C789   O790    1.219   .     D
C789   O791    1.399   .     S
O791   H792    1.014   .     S
C793   O794    1.223   .     D
C793   O795    1.398   .     S
O795   H796    1.014   .     S
C797   O798    1.222   .     D
C797   O799    1.397   .     S
O799   H800    1.012   .     S
C805   O806    1.223   .     D
C805   O807    1.397   .     S
O807   H808    1.013   .     S
C809   O810    1.221   .     D
C809   O811    1.396   .     S
O811   H812    1.012   .     S
C813   O814    1.223   .     D
C813   O815    1.397   .     S
O815   H816    1.012   .     S
C817   O819    1.397   .     S
C817   O818    1.223   .     D
O819   H820    1.013   .     S
C821   O860    1.288   .     A
C821   O857    1.282   .     A
C821   C830    1.446   .     S
C822   O859    1.287   .     A
C822   O858    1.286   .     A
C822   C829    1.451   .     S
C823   Cl885   1.777   .     S
C823   C848    1.411   .     A
C824   C847    1.419   .     A
C824   Cl886   1.778   .     S
C824   C112    1.395   1_556 S
C825   C887    1.492   .     S
C825   C830    1.411   .     A
C826   C829    1.419   .     A
C826   C891    1.486   .     S
C826   C910    1.382   .     S
C827   C895    1.486   .     S
C827   C829    1.421   .     A
C827   C907    1.388   .     S
C828   C899    1.491   .     S
C828   C830    1.411   .     A
C831   N856    1.366   .     A
C831   H851    1.081   .     S
C831   C1326   1.413   1_545 S
C832   H852    1.081   .     S
C832   N855    1.365   .     A
C832   C1079   1.412   .     S
C833   N856    1.365   .     A
C833   H853    1.080   .     S
C833   C1324   1.412   1_545 S
C834   N855    1.366   .     A
C834   H854    1.081   .     S
C834   C1077   1.413   .     S
C835   O864    1.284   .     A
C835   C840    1.437   .     S
C835   O861    1.279   .     A
C836   O863    1.285   .     A
C836   O862    1.277   .     A
C836   C839    1.437   .     S
C837   C847    1.409   .     A
C837   C867    1.479   .     S
C837   C839    1.401   .     A
C838   C871    1.493   .     S
C838   C848    1.397   .     A
C838   C840    1.400   .     A
C839   C841    1.401   .     A
C840   C842    1.404   .     A
C841   C875    1.491   .     S
C841   C843    1.405   .     A
C842   C844    1.414   .     A
C842   C879    1.480   .     S
C843   C849    1.416   .     A
C843   C845    1.423   .     A
C844   C846    1.423   .     A
C844   C850    1.421   .     A
C845   C847    1.418   .     A
C845   C108    1.405   1_556 S
C846   C848    1.417   .     A
C849   Cl883   1.776   .     S
C849   C85     1.394   1_556 S
C850   Cl884   1.778   .     S
N855   Zn865   2.003   .     S
N856   Zn866   2.003   .     S
O857   Zn865   2.024   .     S
O858   Zn866   2.024   .     S
O859   Zn865   2.016   .     S
O860   Zn866   2.016   .     S
O861   Zn865   2.018   .     S
O862   Zn866   2.018   .     S
O863   Zn865   2.014   .     S
O864   Zn866   2.014   .     S
C867   O869    1.396   .     S
C867   O868    1.222   .     D
O869   H870    1.013   .     S
C871   O872    1.219   .     D
C871   O873    1.399   .     S
O873   H874    1.014   .     S
C875   O876    1.223   .     D
C875   O877    1.398   .     S
O877   H878    1.014   .     S
C879   O880    1.222   .     D
C879   O881    1.397   .     S
O881   H882    1.012   .     S
C887   O888    1.223   .     D
C887   O889    1.397   .     S
O889   H890    1.013   .     S
C891   O892    1.221   .     D
C891   O893    1.396   .     S
O893   H894    1.012   .     S
C895   O896    1.223   .     D
C895   O897    1.397   .     S
O897   H898    1.012   .     S
C899   O901    1.397   .     S
C899   O900    1.223   .     D
O901   H902    1.013   .     S
C903   O942    1.288   .     A
C903   O939    1.282   .     A
C903   C912    1.446   .     S
C904   O941    1.287   .     A
C904   O940    1.286   .     A
C904   C911    1.451   .     S
C905   Cl967   1.777   .     S
C905   C930    1.411   .     A
C906   C929    1.419   .     A
C906   Cl968   1.778   .     S
C906   C194    1.395   1_556 S
C907   C969    1.492   .     S
C907   C912    1.411   .     A
C908   C911    1.419   .     A
C908   C973    1.486   .     S
C908   C746    1.382   1_655 S
C909   C977    1.486   .     S
C909   C911    1.421   .     A
C909   C743    1.388   1_655 S
C910   C981    1.491   .     S
C910   C912    1.411   .     A
C913   N938    1.366   .     A
C913   H933    1.081   .     S
C913   C1408   1.413   1_545 S
C914   H934    1.081   .     S
C914   N937    1.365   .     A
C914   C1161   1.412   .     S
C915   N938    1.365   .     A
C915   H935    1.080   .     S
C915   C1406   1.412   1_545 S
C916   N937    1.366   .     A
C916   H936    1.081   .     S
C916   C1159   1.413   .     S
C917   O946    1.284   .     A
C917   C922    1.437   .     S
C917   O943    1.279   .     A
C918   O945    1.285   .     A
C918   O944    1.277   .     A
C918   C921    1.437   .     S
C919   C929    1.409   .     A
C919   C949    1.479   .     S
C919   C921    1.401   .     A
C920   C953    1.493   .     S
C920   C930    1.397   .     A
C920   C922    1.400   .     A
C921   C923    1.401   .     A
C922   C924    1.404   .     A
C923   C957    1.491   .     S
C923   C925    1.405   .     A
C924   C926    1.414   .     A
C924   C961    1.480   .     S
C925   C931    1.416   .     A
C925   C927    1.423   .     A
C926   C928    1.423   .     A
C926   C932    1.421   .     A
C927   C929    1.418   .     A
C927   C190    1.405   1_556 S
C928   C930    1.417   .     A
C931   Cl965   1.776   .     S
C931   C167    1.394   1_556 S
C932   Cl966   1.778   .     S
N937   Zn947   2.003   .     S
N938   Zn948   2.003   .     S
O939   Zn947   2.024   .     S
O940   Zn948   2.024   .     S
O941   Zn947   2.016   .     S
O942   Zn948   2.016   .     S
O943   Zn947   2.018   .     S
O944   Zn948   2.018   .     S
O945   Zn947   2.014   .     S
O946   Zn948   2.014   .     S
C949   O951    1.396   .     S
C949   O950    1.222   .     D
O951   H952    1.013   .     S
C953   O954    1.219   .     D
C953   O955    1.399   .     S
O955   H956    1.014   .     S
C957   O958    1.223   .     D
C957   O959    1.398   .     S
O959   H960    1.014   .     S
C961   O962    1.222   .     D
C961   O963    1.397   .     S
O963   H964    1.012   .     S
C969   O970    1.223   .     D
C969   O971    1.397   .     S
O971   H972    1.013   .     S
C973   O974    1.221   .     D
C973   O975    1.396   .     S
O975   H976    1.012   .     S
C977   O978    1.223   .     D
C977   O979    1.397   .     S
O979   H980    1.012   .     S
C981   O983    1.397   .     S
C981   O982    1.223   .     D
O983   H984    1.013   .     S
C985   O1024   1.288   .     A
C985   O1021   1.282   .     A
C985   C994    1.446   .     S
C986   O1023   1.287   .     A
C986   O1022   1.286   .     A
C986   C993    1.451   .     S
C987   Cl1049  1.777   .     S
C987   C1012   1.411   .     A
C988   C1011   1.419   .     A
C988   Cl1050  1.778   .     S
C988   C276    1.395   1_556 S
C989   C1051   1.492   .     S
C989   C994    1.411   .     A
C989   C1155   1.388   1_455 S
C990   C993    1.419   .     A
C990   C1055   1.486   .     S
C990   C1074   1.382   .     S
C991   C1059   1.486   .     S
C991   C993    1.421   .     A
C991   C1071   1.388   .     S
C992   C1063   1.491   .     S
C992   C994    1.411   .     A
C992   C1154   1.382   1_455 S
C995   N1020   1.366   .     A
C995   H1015   1.081   .     S
C996   H1016   1.081   .     S
C996   N1019   1.365   .     A
C996   C1243   1.412   .     S
C997   N1020   1.365   .     A
C997   H1017   1.080   .     S
C998   N1019   1.366   .     A
C998   H1018   1.081   .     S
C998   C1241   1.413   .     S
C999   O1028   1.284   .     A
C999   C1004   1.437   .     S
C999   O1025   1.279   .     A
C1000  O1027   1.285   .     A
C1000  O1026   1.277   .     A
C1000  C1003   1.437   .     S
C1001  C1011   1.409   .     A
C1001  C1031   1.479   .     S
C1001  C1003   1.401   .     A
C1002  C1035   1.493   .     S
C1002  C1012   1.397   .     A
C1002  C1004   1.400   .     A
C1003  C1005   1.401   .     A
C1004  C1006   1.404   .     A
C1005  C1039   1.491   .     S
C1005  C1007   1.405   .     A
C1006  C1008   1.414   .     A
C1006  C1043   1.480   .     S
C1007  C1013   1.416   .     A
C1007  C1009   1.423   .     A
C1008  C1010   1.423   .     A
C1008  C1014   1.421   .     A
C1009  C1011   1.418   .     A
C1009  C272    1.405   1_556 S
C1010  C1012   1.417   .     A
C1013  Cl1047  1.776   .     S
C1013  C249    1.394   1_556 S
C1014  Cl1048  1.778   .     S
N1019  Zn1029  2.003   .     S
N1020  Zn1030  2.003   .     S
O1021  Zn1029  2.024   .     S
O1022  Zn1030  2.024   .     S
O1023  Zn1029  2.016   .     S
O1024  Zn1030  2.016   .     S
O1025  Zn1029  2.018   .     S
O1026  Zn1030  2.018   .     S
O1027  Zn1029  2.014   .     S
O1028  Zn1030  2.014   .     S
C1031  O1033   1.396   .     S
C1031  O1032   1.222   .     D
O1033  H1034   1.013   .     S
C1035  O1036   1.219   .     D
C1035  O1037   1.399   .     S
O1037  H1038   1.014   .     S
C1039  O1040   1.223   .     D
C1039  O1041   1.398   .     S
O1041  H1042   1.014   .     S
C1043  O1044   1.222   .     D
C1043  O1045   1.397   .     S
O1045  H1046   1.012   .     S
C1051  O1052   1.223   .     D
C1051  O1053   1.397   .     S
O1053  H1054   1.013   .     S
C1055  O1056   1.221   .     D
C1055  O1057   1.396   .     S
O1057  H1058   1.012   .     S
C1059  O1060   1.223   .     D
C1059  O1061   1.397   .     S
O1061  H1062   1.012   .     S
C1063  O1065   1.397   .     S
C1063  O1064   1.223   .     D
O1065  H1066   1.013   .     S
C1067  O1106   1.288   .     A
C1067  O1103   1.282   .     A
C1067  C1076   1.446   .     S
C1068  O1105   1.287   .     A
C1068  O1104   1.286   .     A
C1068  C1075   1.451   .     S
C1069  Cl1131  1.777   .     S
C1069  C1094   1.411   .     A
C1070  C1093   1.419   .     A
C1070  Cl1132  1.778   .     S
C1070  C358    1.395   1_556 S
C1071  C1133   1.492   .     S
C1071  C1076   1.411   .     A
C1072  C1075   1.419   .     A
C1072  C1137   1.486   .     S
C1072  C1156   1.382   .     S
C1073  C1141   1.486   .     S
C1073  C1075   1.421   .     A
C1073  C1153   1.388   .     S
C1074  C1145   1.491   .     S
C1074  C1076   1.411   .     A
C1077  N1102   1.366   .     A
C1077  H1097   1.081   .     S
C1078  H1098   1.081   .     S
C1078  N1101   1.365   .     A
C1078  C1325   1.412   .     S
C1079  N1102   1.365   .     A
C1079  H1099   1.080   .     S
C1080  N1101   1.366   .     A
C1080  H1100   1.081   .     S
C1080  C1323   1.413   .     S
C1081  O1110   1.284   .     A
C1081  C1086   1.437   .     S
C1081  O1107   1.279   .     A
C1082  O1109   1.285   .     A
C1082  O1108   1.277   .     A
C1082  C1085   1.437   .     S
C1083  C1093   1.409   .     A
C1083  C1113   1.479   .     S
C1083  C1085   1.401   .     A
C1084  C1117   1.493   .     S
C1084  C1094   1.397   .     A
C1084  C1086   1.400   .     A
C1085  C1087   1.401   .     A
C1086  C1088   1.404   .     A
C1087  C1121   1.491   .     S
C1087  C1089   1.405   .     A
C1088  C1090   1.414   .     A
C1088  C1125   1.480   .     S
C1089  C1095   1.416   .     A
C1089  C1091   1.423   .     A
C1090  C1092   1.423   .     A
C1090  C1096   1.421   .     A
C1091  C1093   1.418   .     A
C1091  C354    1.405   1_556 S
C1092  C1094   1.417   .     A
C1095  Cl1129  1.776   .     S
C1095  C331    1.394   1_556 S
C1096  Cl1130  1.778   .     S
N1101  Zn1111  2.003   .     S
N1102  Zn1112  2.003   .     S
O1103  Zn1111  2.024   .     S
O1104  Zn1112  2.024   .     S
O1105  Zn1111  2.016   .     S
O1106  Zn1112  2.016   .     S
O1107  Zn1111  2.018   .     S
O1108  Zn1112  2.018   .     S
O1109  Zn1111  2.014   .     S
O1110  Zn1112  2.014   .     S
C1113  O1115   1.396   .     S
C1113  O1114   1.222   .     D
O1115  H1116   1.013   .     S
C1117  O1118   1.219   .     D
C1117  O1119   1.399   .     S
O1119  H1120   1.014   .     S
C1121  O1122   1.223   .     D
C1121  O1123   1.398   .     S
O1123  H1124   1.014   .     S
C1125  O1126   1.222   .     D
C1125  O1127   1.397   .     S
O1127  H1128   1.012   .     S
C1133  O1134   1.223   .     D
C1133  O1135   1.397   .     S
O1135  H1136   1.013   .     S
C1137  O1138   1.221   .     D
C1137  O1139   1.396   .     S
O1139  H1140   1.012   .     S
C1141  O1142   1.223   .     D
C1141  O1143   1.397   .     S
O1143  H1144   1.012   .     S
C1145  O1147   1.397   .     S
C1145  O1146   1.223   .     D
O1147  H1148   1.013   .     S
C1149  O1188   1.288   .     A
C1149  O1185   1.282   .     A
C1149  C1158   1.446   .     S
C1150  O1187   1.287   .     A
C1150  O1186   1.286   .     A
C1150  C1157   1.451   .     S
C1151  Cl1213  1.777   .     S
C1151  C1176   1.411   .     A
C1152  C1175   1.419   .     A
C1152  Cl1214  1.778   .     S
C1152  C440    1.395   1_556 S
C1153  C1215   1.492   .     S
C1153  C1158   1.411   .     A
C1154  C1157   1.419   .     A
C1154  C1219   1.486   .     S
C1154  C992    1.382   1_655 S
C1155  C1223   1.486   .     S
C1155  C1157   1.421   .     A
C1155  C989    1.388   1_655 S
C1156  C1227   1.491   .     S
C1156  C1158   1.411   .     A
C1159  N1184   1.366   .     A
C1159  H1179   1.081   .     S
C1160  H1180   1.081   .     S
C1160  N1183   1.365   .     A
C1160  C1407   1.412   .     S
C1161  N1184   1.365   .     A
C1161  H1181   1.080   .     S
C1162  N1183   1.366   .     A
C1162  H1182   1.081   .     S
C1162  C1405   1.413   .     S
C1163  O1192   1.284   .     A
C1163  C1168   1.437   .     S
C1163  O1189   1.279   .     A
C1164  O1191   1.285   .     A
C1164  O1190   1.277   .     A
C1164  C1167   1.437   .     S
C1165  C1175   1.409   .     A
C1165  C1195   1.479   .     S
C1165  C1167   1.401   .     A
C1166  C1199   1.493   .     S
C1166  C1176   1.397   .     A
C1166  C1168   1.400   .     A
C1167  C1169   1.401   .     A
C1168  C1170   1.404   .     A
C1169  C1203   1.491   .     S
C1169  C1171   1.405   .     A
C1170  C1172   1.414   .     A
C1170  C1207   1.480   .     S
C1171  C1177   1.416   .     A
C1171  C1173   1.423   .     A
C1172  C1174   1.423   .     A
C1172  C1178   1.421   .     A
C1173  C1175   1.418   .     A
C1173  C436    1.405   1_556 S
C1174  C1176   1.417   .     A
C1177  Cl1211  1.776   .     S
C1177  C413    1.394   1_556 S
C1178  Cl1212  1.778   .     S
N1183  Zn1193  2.003   .     S
N1184  Zn1194  2.003   .     S
O1185  Zn1193  2.024   .     S
O1186  Zn1194  2.024   .     S
O1187  Zn1193  2.016   .     S
O1188  Zn1194  2.016   .     S
O1189  Zn1193  2.018   .     S
O1190  Zn1194  2.018   .     S
O1191  Zn1193  2.014   .     S
O1192  Zn1194  2.014   .     S
C1195  O1197   1.396   .     S
C1195  O1196   1.222   .     D
O1197  H1198   1.013   .     S
C1199  O1200   1.219   .     D
C1199  O1201   1.399   .     S
O1201  H1202   1.014   .     S
C1203  O1204   1.223   .     D
C1203  O1205   1.398   .     S
O1205  H1206   1.014   .     S
C1207  O1208   1.222   .     D
C1207  O1209   1.397   .     S
O1209  H1210   1.012   .     S
C1215  O1216   1.223   .     D
C1215  O1217   1.397   .     S
O1217  H1218   1.013   .     S
C1219  O1220   1.221   .     D
C1219  O1221   1.396   .     S
O1221  H1222   1.012   .     S
C1223  O1224   1.223   .     D
C1223  O1225   1.397   .     S
O1225  H1226   1.012   .     S
C1227  O1229   1.397   .     S
C1227  O1228   1.223   .     D
O1229  H1230   1.013   .     S
C1231  O1270   1.288   .     A
C1231  O1267   1.282   .     A
C1231  C1240   1.446   .     S
C1232  O1269   1.287   .     A
C1232  O1268   1.286   .     A
C1232  C1239   1.451   .     S
C1233  Cl1295  1.777   .     S
C1233  C1258   1.411   .     A
C1234  C1257   1.419   .     A
C1234  Cl1296  1.778   .     S
C1234  C522    1.395   1_556 S
C1235  C1297   1.492   .     S
C1235  C1240   1.411   .     A
C1235  C1401   1.388   1_455 S
C1236  C1239   1.419   .     A
C1236  C1301   1.486   .     S
C1236  C1320   1.382   .     S
C1237  C1305   1.486   .     S
C1237  C1239   1.421   .     A
C1237  C1317   1.388   .     S
C1238  C1309   1.491   .     S
C1238  C1240   1.411   .     A
C1238  C1400   1.382   1_455 S
C1241  N1266   1.366   .     A
C1241  H1261   1.081   .     S
C1242  H1262   1.081   .     S
C1242  N1265   1.365   .     A
C1242  C751    1.412   1_565 S
C1243  N1266   1.365   .     A
C1243  H1263   1.080   .     S
C1244  N1265   1.366   .     A
C1244  H1264   1.081   .     S
C1244  C749    1.413   1_565 S
C1245  O1274   1.284   .     A
C1245  C1250   1.437   .     S
C1245  O1271   1.279   .     A
C1246  O1273   1.285   .     A
C1246  O1272   1.277   .     A
C1246  C1249   1.437   .     S
C1247  C1257   1.409   .     A
C1247  C1277   1.479   .     S
C1247  C1249   1.401   .     A
C1248  C1281   1.493   .     S
C1248  C1258   1.397   .     A
C1248  C1250   1.400   .     A
C1249  C1251   1.401   .     A
C1250  C1252   1.404   .     A
C1251  C1285   1.491   .     S
C1251  C1253   1.405   .     A
C1252  C1254   1.414   .     A
C1252  C1289   1.480   .     S
C1253  C1259   1.416   .     A
C1253  C1255   1.423   .     A
C1254  C1256   1.423   .     A
C1254  C1260   1.421   .     A
C1255  C1257   1.418   .     A
C1255  C518    1.405   1_556 S
C1256  C1258   1.417   .     A
C1259  Cl1293  1.776   .     S
C1259  C495    1.394   1_556 S
C1260  Cl1294  1.778   .     S
N1265  Zn1275  2.003   .     S
N1266  Zn1276  2.003   .     S
O1267  Zn1275  2.024   .     S
O1268  Zn1276  2.024   .     S
O1269  Zn1275  2.016   .     S
O1270  Zn1276  2.016   .     S
O1271  Zn1275  2.018   .     S
O1272  Zn1276  2.018   .     S
O1273  Zn1275  2.014   .     S
O1274  Zn1276  2.014   .     S
C1277  O1279   1.396   .     S
C1277  O1278   1.222   .     D
O1279  H1280   1.013   .     S
C1281  O1282   1.219   .     D
C1281  O1283   1.399   .     S
O1283  H1284   1.014   .     S
C1285  O1286   1.223   .     D
C1285  O1287   1.398   .     S
O1287  H1288   1.014   .     S
C1289  O1290   1.222   .     D
C1289  O1291   1.397   .     S
O1291  H1292   1.012   .     S
C1297  O1298   1.223   .     D
C1297  O1299   1.397   .     S
O1299  H1300   1.013   .     S
C1301  O1302   1.221   .     D
C1301  O1303   1.396   .     S
O1303  H1304   1.012   .     S
C1305  O1306   1.223   .     D
C1305  O1307   1.397   .     S
O1307  H1308   1.012   .     S
C1309  O1311   1.397   .     S
C1309  O1310   1.223   .     D
O1311  H1312   1.013   .     S
C1313  O1352   1.288   .     A
C1313  O1349   1.282   .     A
C1313  C1322   1.446   .     S
C1314  O1351   1.287   .     A
C1314  O1350   1.286   .     A
C1314  C1321   1.451   .     S
C1315  Cl1377  1.777   .     S
C1315  C1340   1.411   .     A
C1316  C1339   1.419   .     A
C1316  Cl1378  1.778   .     S
C1316  C604    1.395   1_556 S
C1317  C1379   1.492   .     S
C1317  C1322   1.411   .     A
C1318  C1321   1.419   .     A
C1318  C1383   1.486   .     S
C1318  C1402   1.382   .     S
C1319  C1387   1.486   .     S
C1319  C1321   1.421   .     A
C1319  C1399   1.388   .     S
C1320  C1391   1.491   .     S
C1320  C1322   1.411   .     A
C1323  N1348   1.366   .     A
C1323  H1343   1.081   .     S
C1324  H1344   1.081   .     S
C1324  N1347   1.365   .     A
C1324  C833    1.412   1_565 S
C1325  N1348   1.365   .     A
C1325  H1345   1.080   .     S
C1326  N1347   1.366   .     A
C1326  H1346   1.081   .     S
C1326  C831    1.413   1_565 S
C1327  O1356   1.284   .     A
C1327  C1332   1.437   .     S
C1327  O1353   1.279   .     A
C1328  O1355   1.285   .     A
C1328  O1354   1.277   .     A
C1328  C1331   1.437   .     S
C1329  C1339   1.409   .     A
C1329  C1359   1.479   .     S
C1329  C1331   1.401   .     A
C1330  C1363   1.493   .     S
C1330  C1340   1.397   .     A
C1330  C1332   1.400   .     A
C1331  C1333   1.401   .     A
C1332  C1334   1.404   .     A
C1333  C1367   1.491   .     S
C1333  C1335   1.405   .     A
C1334  C1336   1.414   .     A
C1334  C1371   1.480   .     S
C1335  C1341   1.416   .     A
C1335  C1337   1.423   .     A
C1336  C1338   1.423   .     A
C1336  C1342   1.421   .     A
C1337  C1339   1.418   .     A
C1337  C600    1.405   1_556 S
C1338  C1340   1.417   .     A
C1341  Cl1375  1.776   .     S
C1341  C577    1.394   1_556 S
C1342  Cl1376  1.778   .     S
N1347  Zn1357  2.003   .     S
N1348  Zn1358  2.003   .     S
O1349  Zn1357  2.024   .     S
O1350  Zn1358  2.024   .     S
O1351  Zn1357  2.016   .     S
O1352  Zn1358  2.016   .     S
O1353  Zn1357  2.018   .     S
O1354  Zn1358  2.018   .     S
O1355  Zn1357  2.014   .     S
O1356  Zn1358  2.014   .     S
C1359  O1361   1.396   .     S
C1359  O1360   1.222   .     D
O1361  H1362   1.013   .     S
C1363  O1364   1.219   .     D
C1363  O1365   1.399   .     S
O1365  H1366   1.014   .     S
C1367  O1368   1.223   .     D
C1367  O1369   1.398   .     S
O1369  H1370   1.014   .     S
C1371  O1372   1.222   .     D
C1371  O1373   1.397   .     S
O1373  H1374   1.012   .     S
C1379  O1380   1.223   .     D
C1379  O1381   1.397   .     S
O1381  H1382   1.013   .     S
C1383  O1384   1.221   .     D
C1383  O1385   1.396   .     S
O1385  H1386   1.012   .     S
C1387  O1388   1.223   .     D
C1387  O1389   1.397   .     S
O1389  H1390   1.012   .     S
C1391  O1393   1.397   .     S
C1391  O1392   1.223   .     D
O1393  H1394   1.013   .     S
C1395  O1434   1.288   .     A
C1395  O1431   1.282   .     A
C1395  C1404   1.446   .     S
C1396  O1433   1.287   .     A
C1396  O1432   1.286   .     A
C1396  C1403   1.451   .     S
C1397  Cl1459  1.777   .     S
C1397  C1422   1.411   .     A
C1398  C1421   1.419   .     A
C1398  Cl1460  1.778   .     S
C1398  C686    1.395   1_556 S
C1399  C1461   1.492   .     S
C1399  C1404   1.411   .     A
C1400  C1403   1.419   .     A
C1400  C1465   1.486   .     S
C1400  C1238   1.382   1_655 S
C1401  C1469   1.486   .     S
C1401  C1403   1.421   .     A
C1401  C1235   1.388   1_655 S
C1402  C1473   1.491   .     S
C1402  C1404   1.411   .     A
C1405  N1430   1.366   .     A
C1405  H1425   1.081   .     S
C1406  H1426   1.081   .     S
C1406  N1429   1.365   .     A
C1406  C915    1.412   1_565 S
C1407  N1430   1.365   .     A
C1407  H1427   1.080   .     S
C1408  N1429   1.366   .     A
C1408  H1428   1.081   .     S
C1408  C913    1.413   1_565 S
C1409  O1438   1.284   .     A
C1409  C1414   1.437   .     S
C1409  O1435   1.279   .     A
C1410  O1437   1.285   .     A
C1410  O1436   1.277   .     A
C1410  C1413   1.437   .     S
C1411  C1421   1.409   .     A
C1411  C1441   1.479   .     S
C1411  C1413   1.401   .     A
C1412  C1445   1.493   .     S
C1412  C1422   1.397   .     A
C1412  C1414   1.400   .     A
C1413  C1415   1.401   .     A
C1414  C1416   1.404   .     A
C1415  C1449   1.491   .     S
C1415  C1417   1.405   .     A
C1416  C1418   1.414   .     A
C1416  C1453   1.480   .     S
C1417  C1423   1.416   .     A
C1417  C1419   1.423   .     A
C1418  C1420   1.423   .     A
C1418  C1424   1.421   .     A
C1419  C1421   1.418   .     A
C1419  C682    1.405   1_556 S
C1420  C1422   1.417   .     A
C1423  Cl1457  1.776   .     S
C1423  C659    1.394   1_556 S
C1424  Cl1458  1.778   .     S
N1429  Zn1439  2.003   .     S
N1430  Zn1440  2.003   .     S
O1431  Zn1439  2.024   .     S
O1432  Zn1440  2.024   .     S
O1433  Zn1439  2.016   .     S
O1434  Zn1440  2.016   .     S
O1435  Zn1439  2.018   .     S
O1436  Zn1440  2.018   .     S
O1437  Zn1439  2.014   .     S
O1438  Zn1440  2.014   .     S
C1441  O1443   1.396   .     S
C1441  O1442   1.222   .     D
O1443  H1444   1.013   .     S
C1445  O1446   1.219   .     D
C1445  O1447   1.399   .     S
O1447  H1448   1.014   .     S
C1449  O1450   1.223   .     D
C1449  O1451   1.398   .     S
O1451  H1452   1.014   .     S
C1453  O1454   1.222   .     D
C1453  O1455   1.397   .     S
O1455  H1456   1.012   .     S
C1461  O1462   1.223   .     D
C1461  O1463   1.397   .     S
O1463  H1464   1.013   .     S
C1465  O1466   1.221   .     D
C1465  O1467   1.396   .     S
O1467  H1468   1.012   .     S
C1469  O1470   1.223   .     D
C1469  O1471   1.397   .     S
O1471  H1472   1.012   .     S
C1473  O1475   1.397   .     S
C1473  O1474   1.223   .     D
O1475  H1476   1.013   .     S
