data_str_m3_o1_o2_pcu_sym.107
_audit_creation_date              2020-01-03
_audit_creation_method            'Materials Studio'
_symmetry_space_group_name_H-M    'P1'
_symmetry_Int_Tables_number       1
_symmetry_cell_setting            triclinic
loop_
_symmetry_equiv_pos_as_xyz
  x,y,z
_cell_length_a                    32.0813
_cell_length_b                    29.5652
_cell_length_c                    29.9600
_cell_angle_alpha                 89.9731
_cell_angle_beta                  90.1440
_cell_angle_gamma                 91.4510
loop_
_atom_site_label
_atom_site_type_symbol
_atom_site_fract_x
_atom_site_fract_y
_atom_site_fract_z
_atom_site_U_iso_or_equiv
_atom_site_adp_type
_atom_site_occupancy
C1     C     0.08680   0.16607   0.25013   0.00000  Uiso   1.00
C2     C     0.24668   0.16736   0.24988   0.00000  Uiso   1.00
C3     C     0.16580   0.16664   0.16385   0.00000  Uiso   1.00
C4     C     0.16642   0.16664   0.33608   0.00000  Uiso   1.00
C5     C     0.18663   0.02448   0.28291   0.00000  Uiso   1.00
C6     C     0.14625   0.30884   0.21738   0.00000  Uiso   1.00
C7     C     0.14614   0.02341   0.21746   0.00000  Uiso   1.00
C8     C     0.18605   0.30992   0.28327   0.00000  Uiso   1.00
C9     C     0.02097   0.13895   0.21849   0.00000  Uiso   1.00
C10    C     0.31319   0.19655   0.27862   0.00000  Uiso   1.00
C11    C     0.31099   0.14133   0.21683   0.00000  Uiso   1.00
C12    C     0.02275   0.19220   0.28178   0.00000  Uiso   1.00
C13    C     0.14573   0.20515   0.04777   0.00000  Uiso   1.00
C14    C     0.14011   0.13020   0.45137   0.00000  Uiso   1.00
C15    C     0.17507   0.20419   0.45393   0.00000  Uiso   1.00
C16    C     0.16717   0.12683   0.04620   0.00000  Uiso   1.00
C17    C     0.14952   0.20544   0.09369   0.00000  Uiso   1.00
C18    C     0.14423   0.12969   0.40550   0.00000  Uiso   1.00
C19    C     0.17856   0.20400   0.40802   0.00000  Uiso   1.00
C20    C     0.17028   0.12689   0.09216   0.00000  Uiso   1.00
C21    C     0.16227   0.16646   0.11590   0.00000  Uiso   1.00
C22    C     0.16352   0.16657   0.38390   0.00000  Uiso   1.00
C23    C     0.15529   0.16611   0.02393   0.00000  Uiso   1.00
C24    C     0.15597   0.16722   0.47568   0.00000  Uiso   1.00
C25    C     0.29102   0.16912   0.24790   0.00000  Uiso   1.00
C26    C     0.04266   0.16489   0.25065   0.00000  Uiso   1.00
H27    H     0.13591   0.23547   0.03083   0.00000  Uiso   1.00
H28    H     0.12487   0.10171   0.46788   0.00000  Uiso   1.00
H29    H     0.18820   0.23260   0.47249   0.00000  Uiso   1.00
H30    H     0.17524   0.09662   0.02805   0.00000  Uiso   1.00
H31    H     0.14232   0.23598   0.11171   0.00000  Uiso   1.00
H32    H     0.13182   0.10093   0.38691   0.00000  Uiso   1.00
H33    H     0.19364   0.23258   0.39150   0.00000  Uiso   1.00
H34    H     0.17982   0.09637   0.10895   0.00000  Uiso   1.00
N35    N     0.16667   0.28573   0.25000   0.00000  Uiso   1.00
N36    N     0.16667   0.04760   0.25000   0.00000  Uiso   1.00
O37    O     0.10559   0.20487   0.25000   0.00000  Uiso   1.00
O38    O     0.22774   0.12846   0.25001   0.00000  Uiso   1.00
O39    O     0.22774   0.20487   0.25001   0.00000  Uiso   1.00
O40    O     0.10559   0.12846   0.25000   0.00000  Uiso   1.00
O41    O     0.16666   0.20489   0.18453   0.00000  Uiso   1.00
O42    O     0.16667   0.12845   0.31547   0.00000  Uiso   1.00
O43    O     0.16667   0.20489   0.31547   0.00000  Uiso   1.00
O44    O     0.16666   0.12845   0.18453   0.00000  Uiso   1.00
Zn45   Zn    0.16667   0.21771   0.25000   0.00000  Uiso   1.00
Zn46   Zn    0.16667   0.11563   0.25000   0.00000  Uiso   1.00
F47    F     0.20700   0.04753   0.31578   0.00000  Uiso   1.00
F48    F     0.12516   0.28575   0.18508   0.00000  Uiso   1.00
F49    F     0.12512   0.04540   0.18511   0.00000  Uiso   1.00
F50    F     0.20406   0.28791   0.31758   0.00000  Uiso   1.00
N51    N     0.04326   0.11078   0.18864   0.00000  Uiso   1.00
H52    H     0.03132   0.07844   0.18417   0.00000  Uiso   1.00
C53    C     0.05823   0.13221   0.14813   0.00000  Uiso   1.00
H54    H     0.03259   0.13468   0.12350   0.00000  Uiso   1.00
H55    H     0.08290   0.11137   0.13329   0.00000  Uiso   1.00
H56    H     0.07166   0.16650   0.15510   0.00000  Uiso   1.00
N57    N     0.29223   0.22754   0.30667   0.00000  Uiso   1.00
H58    H     0.30040   0.22541   0.33989   0.00000  Uiso   1.00
C59    C     0.29340   0.27367   0.29008   0.00000  Uiso   1.00
H60    H     0.32581   0.28543   0.28277   0.00000  Uiso   1.00
H61    H     0.28055   0.29667   0.31552   0.00000  Uiso   1.00
H62    H     0.27471   0.27618   0.25900   0.00000  Uiso   1.00
N63    N     0.28734   0.11820   0.18297   0.00000  Uiso   1.00
H64    H     0.29877   0.08791   0.17218   0.00000  Uiso   1.00
C65    C     0.27369   0.14667   0.14669   0.00000  Uiso   1.00
H66    H     0.30078   0.16236   0.12916   0.00000  Uiso   1.00
H67    H     0.25382   0.17401   0.15927   0.00000  Uiso   1.00
H68    H     0.25531   0.12600   0.12243   0.00000  Uiso   1.00
N69    N     0.04627   0.21412   0.31653   0.00000  Uiso   1.00
H70    H     0.03659   0.24565   0.32585   0.00000  Uiso   1.00
C71    C     0.05479   0.18548   0.35446   0.00000  Uiso   1.00
H72    H     0.02528   0.17574   0.37169   0.00000  Uiso   1.00
H73    H     0.07546   0.20407   0.37833   0.00000  Uiso   1.00
H74    H     0.07077   0.15445   0.34368   0.00000  Uiso   1.00
C75    C     0.42013   0.16607   0.25013   0.00000  Uiso   1.00
C76    C     0.58001   0.16736   0.24988   0.00000  Uiso   1.00
C77    C     0.49913   0.16664   0.16385   0.00000  Uiso   1.00
C78    C     0.49976   0.16664   0.33608   0.00000  Uiso   1.00
C79    C     0.51996   0.02448   0.28291   0.00000  Uiso   1.00
C80    C     0.47959   0.30884   0.21738   0.00000  Uiso   1.00
C81    C     0.47947   0.02341   0.21746   0.00000  Uiso   1.00
C82    C     0.51938   0.30992   0.28327   0.00000  Uiso   1.00
C83    C     0.35431   0.13895   0.21849   0.00000  Uiso   1.00
C84    C     0.64653   0.19655   0.27862   0.00000  Uiso   1.00
C85    C     0.64433   0.14133   0.21683   0.00000  Uiso   1.00
C86    C     0.35608   0.19220   0.28178   0.00000  Uiso   1.00
C87    C     0.47906   0.20515   0.04777   0.00000  Uiso   1.00
C88    C     0.47345   0.13020   0.45137   0.00000  Uiso   1.00
C89    C     0.50840   0.20419   0.45393   0.00000  Uiso   1.00
C90    C     0.50050   0.12683   0.04620   0.00000  Uiso   1.00
C91    C     0.48285   0.20544   0.09369   0.00000  Uiso   1.00
C92    C     0.47756   0.12969   0.40550   0.00000  Uiso   1.00
C93    C     0.51189   0.20400   0.40802   0.00000  Uiso   1.00
C94    C     0.50362   0.12689   0.09216   0.00000  Uiso   1.00
C95    C     0.49561   0.16646   0.11590   0.00000  Uiso   1.00
C96    C     0.49685   0.16657   0.38390   0.00000  Uiso   1.00
C97    C     0.48863   0.16611   0.02393   0.00000  Uiso   1.00
C98    C     0.48930   0.16722   0.47568   0.00000  Uiso   1.00
C99    C     0.62435   0.16912   0.24790   0.00000  Uiso   1.00
C100   C     0.37600   0.16489   0.25065   0.00000  Uiso   1.00
H101   H     0.46925   0.23547   0.03083   0.00000  Uiso   1.00
H102   H     0.45820   0.10171   0.46788   0.00000  Uiso   1.00
H103   H     0.52153   0.23260   0.47249   0.00000  Uiso   1.00
H104   H     0.50857   0.09662   0.02805   0.00000  Uiso   1.00
H105   H     0.47565   0.23598   0.11171   0.00000  Uiso   1.00
H106   H     0.46515   0.10093   0.38691   0.00000  Uiso   1.00
H107   H     0.52697   0.23258   0.39150   0.00000  Uiso   1.00
H108   H     0.51316   0.09637   0.10895   0.00000  Uiso   1.00
N109   N     0.50000   0.28573   0.25000   0.00000  Uiso   1.00
N110   N     0.50000   0.04760   0.25000   0.00000  Uiso   1.00
O111   O     0.43892   0.20487   0.25000   0.00000  Uiso   1.00
O112   O     0.56108   0.12846   0.25001   0.00000  Uiso   1.00
O113   O     0.56108   0.20487   0.25001   0.00000  Uiso   1.00
O114   O     0.43892   0.12846   0.25000   0.00000  Uiso   1.00
O115   O     0.50000   0.20489   0.18453   0.00000  Uiso   1.00
O116   O     0.50000   0.12845   0.31547   0.00000  Uiso   1.00
O117   O     0.50000   0.20489   0.31547   0.00000  Uiso   1.00
O118   O     0.50000   0.12845   0.18453   0.00000  Uiso   1.00
Zn119  Zn    0.50000   0.21771   0.25000   0.00000  Uiso   1.00
Zn120  Zn    0.50000   0.11563   0.25000   0.00000  Uiso   1.00
F121   F     0.54033   0.04753   0.31578   0.00000  Uiso   1.00
F122   F     0.45849   0.28575   0.18508   0.00000  Uiso   1.00
F123   F     0.45845   0.04540   0.18511   0.00000  Uiso   1.00
F124   F     0.53739   0.28791   0.31758   0.00000  Uiso   1.00
N125   N     0.37660   0.11078   0.18864   0.00000  Uiso   1.00
H126   H     0.36465   0.07844   0.18417   0.00000  Uiso   1.00
C127   C     0.39156   0.13221   0.14813   0.00000  Uiso   1.00
H128   H     0.36593   0.13468   0.12350   0.00000  Uiso   1.00
H129   H     0.41624   0.11137   0.13329   0.00000  Uiso   1.00
H130   H     0.40499   0.16650   0.15510   0.00000  Uiso   1.00
N131   N     0.62557   0.22754   0.30667   0.00000  Uiso   1.00
H132   H     0.63373   0.22541   0.33989   0.00000  Uiso   1.00
C133   C     0.62674   0.27367   0.29008   0.00000  Uiso   1.00
H134   H     0.65914   0.28543   0.28277   0.00000  Uiso   1.00
H135   H     0.61388   0.29667   0.31552   0.00000  Uiso   1.00
H136   H     0.60804   0.27618   0.25900   0.00000  Uiso   1.00
N137   N     0.62067   0.11820   0.18297   0.00000  Uiso   1.00
H138   H     0.63210   0.08791   0.17218   0.00000  Uiso   1.00
C139   C     0.60702   0.14667   0.14669   0.00000  Uiso   1.00
H140   H     0.63412   0.16236   0.12916   0.00000  Uiso   1.00
H141   H     0.58715   0.17401   0.15927   0.00000  Uiso   1.00
H142   H     0.58864   0.12600   0.12243   0.00000  Uiso   1.00
N143   N     0.37960   0.21412   0.31653   0.00000  Uiso   1.00
H144   H     0.36993   0.24565   0.32585   0.00000  Uiso   1.00
C145   C     0.38812   0.18548   0.35446   0.00000  Uiso   1.00
H146   H     0.35861   0.17574   0.37169   0.00000  Uiso   1.00
H147   H     0.40879   0.20407   0.37833   0.00000  Uiso   1.00
H148   H     0.40411   0.15445   0.34368   0.00000  Uiso   1.00
C149   C     0.75347   0.16607   0.25013   0.00000  Uiso   1.00
C150   C     0.91335   0.16736   0.24988   0.00000  Uiso   1.00
C151   C     0.83246   0.16664   0.16385   0.00000  Uiso   1.00
C152   C     0.83309   0.16664   0.33608   0.00000  Uiso   1.00
C153   C     0.85330   0.02448   0.28291   0.00000  Uiso   1.00
C154   C     0.81292   0.30884   0.21738   0.00000  Uiso   1.00
C155   C     0.81281   0.02341   0.21746   0.00000  Uiso   1.00
C156   C     0.85271   0.30992   0.28327   0.00000  Uiso   1.00
C157   C     0.68764   0.13895   0.21849   0.00000  Uiso   1.00
C158   C     0.97986   0.19655   0.27862   0.00000  Uiso   1.00
C159   C     0.97766   0.14133   0.21683   0.00000  Uiso   1.00
C160   C     0.68942   0.19220   0.28178   0.00000  Uiso   1.00
C161   C     0.81240   0.20515   0.04777   0.00000  Uiso   1.00
C162   C     0.80678   0.13020   0.45137   0.00000  Uiso   1.00
C163   C     0.84174   0.20419   0.45393   0.00000  Uiso   1.00
C164   C     0.83383   0.12683   0.04620   0.00000  Uiso   1.00
C165   C     0.81618   0.20544   0.09369   0.00000  Uiso   1.00
C166   C     0.81090   0.12969   0.40550   0.00000  Uiso   1.00
C167   C     0.84522   0.20400   0.40802   0.00000  Uiso   1.00
C168   C     0.83695   0.12689   0.09216   0.00000  Uiso   1.00
C169   C     0.82894   0.16646   0.11590   0.00000  Uiso   1.00
C170   C     0.83018   0.16657   0.38390   0.00000  Uiso   1.00
C171   C     0.82196   0.16611   0.02393   0.00000  Uiso   1.00
C172   C     0.82263   0.16722   0.47568   0.00000  Uiso   1.00
C173   C     0.95768   0.16912   0.24790   0.00000  Uiso   1.00
C174   C     0.70933   0.16489   0.25065   0.00000  Uiso   1.00
H175   H     0.80258   0.23547   0.03083   0.00000  Uiso   1.00
H176   H     0.79154   0.10171   0.46788   0.00000  Uiso   1.00
H177   H     0.85487   0.23260   0.47249   0.00000  Uiso   1.00
H178   H     0.84190   0.09662   0.02805   0.00000  Uiso   1.00
H179   H     0.80899   0.23598   0.11171   0.00000  Uiso   1.00
H180   H     0.79849   0.10093   0.38691   0.00000  Uiso   1.00
H181   H     0.86030   0.23258   0.39150   0.00000  Uiso   1.00
H182   H     0.84649   0.09637   0.10895   0.00000  Uiso   1.00
N183   N     0.83333   0.28573   0.25000   0.00000  Uiso   1.00
N184   N     0.83333   0.04760   0.25000   0.00000  Uiso   1.00
O185   O     0.77226   0.20487   0.25000   0.00000  Uiso   1.00
O186   O     0.89441   0.12846   0.25001   0.00000  Uiso   1.00
O187   O     0.89441   0.20487   0.25001   0.00000  Uiso   1.00
O188   O     0.77226   0.12846   0.25000   0.00000  Uiso   1.00
O189   O     0.83333   0.20489   0.18453   0.00000  Uiso   1.00
O190   O     0.83334   0.12845   0.31547   0.00000  Uiso   1.00
O191   O     0.83334   0.20489   0.31547   0.00000  Uiso   1.00
O192   O     0.83333   0.12845   0.18453   0.00000  Uiso   1.00
Zn193  Zn    0.83333   0.21771   0.25000   0.00000  Uiso   1.00
Zn194  Zn    0.83333   0.11563   0.25000   0.00000  Uiso   1.00
F195   F     0.87367   0.04753   0.31578   0.00000  Uiso   1.00
F196   F     0.79182   0.28575   0.18508   0.00000  Uiso   1.00
F197   F     0.79179   0.04540   0.18511   0.00000  Uiso   1.00
F198   F     0.87073   0.28791   0.31758   0.00000  Uiso   1.00
N199   N     0.70993   0.11078   0.18864   0.00000  Uiso   1.00
H200   H     0.69798   0.07844   0.18417   0.00000  Uiso   1.00
C201   C     0.72489   0.13221   0.14813   0.00000  Uiso   1.00
H202   H     0.69926   0.13468   0.12350   0.00000  Uiso   1.00
H203   H     0.74957   0.11137   0.13329   0.00000  Uiso   1.00
H204   H     0.73833   0.16650   0.15510   0.00000  Uiso   1.00
N205   N     0.95890   0.22754   0.30667   0.00000  Uiso   1.00
H206   H     0.96706   0.22541   0.33989   0.00000  Uiso   1.00
C207   C     0.96007   0.27367   0.29008   0.00000  Uiso   1.00
H208   H     0.99248   0.28543   0.28277   0.00000  Uiso   1.00
H209   H     0.94721   0.29667   0.31552   0.00000  Uiso   1.00
H210   H     0.94137   0.27618   0.25900   0.00000  Uiso   1.00
N211   N     0.95401   0.11820   0.18297   0.00000  Uiso   1.00
H212   H     0.96543   0.08791   0.17218   0.00000  Uiso   1.00
C213   C     0.94036   0.14667   0.14669   0.00000  Uiso   1.00
H214   H     0.96745   0.16236   0.12916   0.00000  Uiso   1.00
H215   H     0.92049   0.17401   0.15927   0.00000  Uiso   1.00
H216   H     0.92197   0.12600   0.12243   0.00000  Uiso   1.00
N217   N     0.71294   0.21412   0.31653   0.00000  Uiso   1.00
H218   H     0.70326   0.24565   0.32585   0.00000  Uiso   1.00
C219   C     0.72146   0.18548   0.35446   0.00000  Uiso   1.00
H220   H     0.69194   0.17574   0.37169   0.00000  Uiso   1.00
H221   H     0.74212   0.20407   0.37833   0.00000  Uiso   1.00
H222   H     0.73744   0.15445   0.34368   0.00000  Uiso   1.00
C223   C     0.08680   0.49940   0.25013   0.00000  Uiso   1.00
C224   C     0.24668   0.50069   0.24988   0.00000  Uiso   1.00
C225   C     0.16580   0.49997   0.16385   0.00000  Uiso   1.00
C226   C     0.16642   0.49998   0.33608   0.00000  Uiso   1.00
C227   C     0.18663   0.35781   0.28291   0.00000  Uiso   1.00
C228   C     0.14625   0.64218   0.21738   0.00000  Uiso   1.00
C229   C     0.14614   0.35675   0.21746   0.00000  Uiso   1.00
C230   C     0.18605   0.64325   0.28327   0.00000  Uiso   1.00
C231   C     0.02097   0.47228   0.21849   0.00000  Uiso   1.00
C232   C     0.31319   0.52988   0.27862   0.00000  Uiso   1.00
C233   C     0.31099   0.47466   0.21683   0.00000  Uiso   1.00
C234   C     0.02275   0.52553   0.28178   0.00000  Uiso   1.00
C235   C     0.14573   0.53848   0.04777   0.00000  Uiso   1.00
C236   C     0.14011   0.46354   0.45137   0.00000  Uiso   1.00
C237   C     0.17507   0.53752   0.45393   0.00000  Uiso   1.00
C238   C     0.16717   0.46017   0.04620   0.00000  Uiso   1.00
C239   C     0.14952   0.53877   0.09369   0.00000  Uiso   1.00
C240   C     0.14423   0.46303   0.40550   0.00000  Uiso   1.00
C241   C     0.17856   0.53733   0.40802   0.00000  Uiso   1.00
C242   C     0.17028   0.46022   0.09216   0.00000  Uiso   1.00
C243   C     0.16227   0.49980   0.11590   0.00000  Uiso   1.00
C244   C     0.16352   0.49990   0.38390   0.00000  Uiso   1.00
C245   C     0.15529   0.49944   0.02393   0.00000  Uiso   1.00
C246   C     0.15597   0.50056   0.47568   0.00000  Uiso   1.00
C247   C     0.29102   0.50245   0.24790   0.00000  Uiso   1.00
C248   C     0.04266   0.49822   0.25065   0.00000  Uiso   1.00
H249   H     0.13591   0.56880   0.03083   0.00000  Uiso   1.00
H250   H     0.12487   0.43504   0.46788   0.00000  Uiso   1.00
H251   H     0.18820   0.56594   0.47249   0.00000  Uiso   1.00
H252   H     0.17524   0.42996   0.02805   0.00000  Uiso   1.00
H253   H     0.14232   0.56932   0.11171   0.00000  Uiso   1.00
H254   H     0.13182   0.43426   0.38691   0.00000  Uiso   1.00
H255   H     0.19364   0.56592   0.39150   0.00000  Uiso   1.00
H256   H     0.17982   0.42970   0.10895   0.00000  Uiso   1.00
N257   N     0.16667   0.61907   0.25000   0.00000  Uiso   1.00
N258   N     0.16667   0.38093   0.25000   0.00000  Uiso   1.00
O259   O     0.10559   0.53821   0.25000   0.00000  Uiso   1.00
O260   O     0.22774   0.46179   0.25001   0.00000  Uiso   1.00
O261   O     0.22774   0.53821   0.25001   0.00000  Uiso   1.00
O262   O     0.10559   0.46179   0.25000   0.00000  Uiso   1.00
O263   O     0.16666   0.53822   0.18453   0.00000  Uiso   1.00
O264   O     0.16667   0.46178   0.31547   0.00000  Uiso   1.00
O265   O     0.16667   0.53822   0.31547   0.00000  Uiso   1.00
O266   O     0.16666   0.46178   0.18453   0.00000  Uiso   1.00
Zn267  Zn    0.16667   0.55104   0.25000   0.00000  Uiso   1.00
Zn268  Zn    0.16667   0.44896   0.25000   0.00000  Uiso   1.00
F269   F     0.20700   0.38086   0.31578   0.00000  Uiso   1.00
F270   F     0.12516   0.61908   0.18508   0.00000  Uiso   1.00
F271   F     0.12512   0.37874   0.18511   0.00000  Uiso   1.00
F272   F     0.20406   0.62125   0.31758   0.00000  Uiso   1.00
N273   N     0.04326   0.44411   0.18864   0.00000  Uiso   1.00
H274   H     0.03132   0.41177   0.18417   0.00000  Uiso   1.00
C275   C     0.05823   0.46554   0.14813   0.00000  Uiso   1.00
H276   H     0.03259   0.46801   0.12350   0.00000  Uiso   1.00
H277   H     0.08290   0.44470   0.13329   0.00000  Uiso   1.00
H278   H     0.07166   0.49983   0.15510   0.00000  Uiso   1.00
N279   N     0.29223   0.56088   0.30667   0.00000  Uiso   1.00
H280   H     0.30040   0.55875   0.33989   0.00000  Uiso   1.00
C281   C     0.29340   0.60700   0.29008   0.00000  Uiso   1.00
H282   H     0.32581   0.61876   0.28277   0.00000  Uiso   1.00
H283   H     0.28055   0.63001   0.31552   0.00000  Uiso   1.00
H284   H     0.27471   0.60951   0.25900   0.00000  Uiso   1.00
N285   N     0.28734   0.45154   0.18297   0.00000  Uiso   1.00
H286   H     0.29877   0.42124   0.17218   0.00000  Uiso   1.00
C287   C     0.27369   0.48001   0.14669   0.00000  Uiso   1.00
H288   H     0.30078   0.49569   0.12916   0.00000  Uiso   1.00
H289   H     0.25382   0.50734   0.15927   0.00000  Uiso   1.00
H290   H     0.25531   0.45933   0.12243   0.00000  Uiso   1.00
N291   N     0.04627   0.54745   0.31653   0.00000  Uiso   1.00
H292   H     0.03659   0.57898   0.32585   0.00000  Uiso   1.00
C293   C     0.05479   0.51881   0.35446   0.00000  Uiso   1.00
H294   H     0.02528   0.50908   0.37169   0.00000  Uiso   1.00
H295   H     0.07546   0.53740   0.37833   0.00000  Uiso   1.00
H296   H     0.07077   0.48779   0.34368   0.00000  Uiso   1.00
C297   C     0.42013   0.49940   0.25013   0.00000  Uiso   1.00
C298   C     0.58001   0.50069   0.24988   0.00000  Uiso   1.00
C299   C     0.49913   0.49997   0.16385   0.00000  Uiso   1.00
C300   C     0.49976   0.49998   0.33608   0.00000  Uiso   1.00
C301   C     0.51996   0.35781   0.28291   0.00000  Uiso   1.00
C302   C     0.47959   0.64218   0.21738   0.00000  Uiso   1.00
C303   C     0.47947   0.35675   0.21746   0.00000  Uiso   1.00
C304   C     0.51938   0.64325   0.28327   0.00000  Uiso   1.00
C305   C     0.35431   0.47228   0.21849   0.00000  Uiso   1.00
C306   C     0.64653   0.52988   0.27862   0.00000  Uiso   1.00
C307   C     0.64433   0.47466   0.21683   0.00000  Uiso   1.00
C308   C     0.35608   0.52553   0.28178   0.00000  Uiso   1.00
C309   C     0.47906   0.53848   0.04777   0.00000  Uiso   1.00
C310   C     0.47345   0.46354   0.45137   0.00000  Uiso   1.00
C311   C     0.50840   0.53752   0.45393   0.00000  Uiso   1.00
C312   C     0.50050   0.46017   0.04620   0.00000  Uiso   1.00
C313   C     0.48285   0.53877   0.09369   0.00000  Uiso   1.00
C314   C     0.47756   0.46303   0.40550   0.00000  Uiso   1.00
C315   C     0.51189   0.53733   0.40802   0.00000  Uiso   1.00
C316   C     0.50362   0.46022   0.09216   0.00000  Uiso   1.00
C317   C     0.49561   0.49980   0.11590   0.00000  Uiso   1.00
C318   C     0.49685   0.49990   0.38390   0.00000  Uiso   1.00
C319   C     0.48863   0.49944   0.02393   0.00000  Uiso   1.00
C320   C     0.48930   0.50056   0.47568   0.00000  Uiso   1.00
C321   C     0.62435   0.50245   0.24790   0.00000  Uiso   1.00
C322   C     0.37600   0.49822   0.25065   0.00000  Uiso   1.00
H323   H     0.46925   0.56880   0.03083   0.00000  Uiso   1.00
H324   H     0.45820   0.43504   0.46788   0.00000  Uiso   1.00
H325   H     0.52153   0.56594   0.47249   0.00000  Uiso   1.00
H326   H     0.50857   0.42996   0.02805   0.00000  Uiso   1.00
H327   H     0.47565   0.56932   0.11171   0.00000  Uiso   1.00
H328   H     0.46515   0.43426   0.38691   0.00000  Uiso   1.00
H329   H     0.52697   0.56592   0.39150   0.00000  Uiso   1.00
H330   H     0.51316   0.42970   0.10895   0.00000  Uiso   1.00
N331   N     0.50000   0.61907   0.25000   0.00000  Uiso   1.00
N332   N     0.50000   0.38093   0.25000   0.00000  Uiso   1.00
O333   O     0.43892   0.53821   0.25000   0.00000  Uiso   1.00
O334   O     0.56108   0.46179   0.25001   0.00000  Uiso   1.00
O335   O     0.56108   0.53821   0.25001   0.00000  Uiso   1.00
O336   O     0.43892   0.46179   0.25000   0.00000  Uiso   1.00
O337   O     0.50000   0.53822   0.18453   0.00000  Uiso   1.00
O338   O     0.50000   0.46178   0.31547   0.00000  Uiso   1.00
O339   O     0.50000   0.53822   0.31547   0.00000  Uiso   1.00
O340   O     0.50000   0.46178   0.18453   0.00000  Uiso   1.00
Zn341  Zn    0.50000   0.55104   0.25000   0.00000  Uiso   1.00
Zn342  Zn    0.50000   0.44896   0.25000   0.00000  Uiso   1.00
F343   F     0.54033   0.38086   0.31578   0.00000  Uiso   1.00
F344   F     0.45849   0.61908   0.18508   0.00000  Uiso   1.00
F345   F     0.45845   0.37874   0.18511   0.00000  Uiso   1.00
F346   F     0.53739   0.62125   0.31758   0.00000  Uiso   1.00
N347   N     0.37660   0.44411   0.18864   0.00000  Uiso   1.00
H348   H     0.36465   0.41177   0.18417   0.00000  Uiso   1.00
C349   C     0.39156   0.46554   0.14813   0.00000  Uiso   1.00
H350   H     0.36593   0.46801   0.12350   0.00000  Uiso   1.00
H351   H     0.41624   0.44470   0.13329   0.00000  Uiso   1.00
H352   H     0.40499   0.49983   0.15510   0.00000  Uiso   1.00
N353   N     0.62557   0.56088   0.30667   0.00000  Uiso   1.00
H354   H     0.63373   0.55875   0.33989   0.00000  Uiso   1.00
C355   C     0.62674   0.60700   0.29008   0.00000  Uiso   1.00
H356   H     0.65914   0.61876   0.28277   0.00000  Uiso   1.00
H357   H     0.61388   0.63001   0.31552   0.00000  Uiso   1.00
H358   H     0.60804   0.60951   0.25900   0.00000  Uiso   1.00
N359   N     0.62067   0.45154   0.18297   0.00000  Uiso   1.00
H360   H     0.63210   0.42124   0.17218   0.00000  Uiso   1.00
C361   C     0.60702   0.48001   0.14669   0.00000  Uiso   1.00
H362   H     0.63412   0.49569   0.12916   0.00000  Uiso   1.00
H363   H     0.58715   0.50734   0.15927   0.00000  Uiso   1.00
H364   H     0.58864   0.45933   0.12243   0.00000  Uiso   1.00
N365   N     0.37960   0.54745   0.31653   0.00000  Uiso   1.00
H366   H     0.36993   0.57898   0.32585   0.00000  Uiso   1.00
C367   C     0.38812   0.51881   0.35446   0.00000  Uiso   1.00
H368   H     0.35861   0.50908   0.37169   0.00000  Uiso   1.00
H369   H     0.40879   0.53740   0.37833   0.00000  Uiso   1.00
H370   H     0.40411   0.48779   0.34368   0.00000  Uiso   1.00
C371   C     0.75347   0.49940   0.25013   0.00000  Uiso   1.00
C372   C     0.91335   0.50069   0.24988   0.00000  Uiso   1.00
C373   C     0.83246   0.49997   0.16385   0.00000  Uiso   1.00
C374   C     0.83309   0.49998   0.33608   0.00000  Uiso   1.00
C375   C     0.85330   0.35781   0.28291   0.00000  Uiso   1.00
C376   C     0.81292   0.64218   0.21738   0.00000  Uiso   1.00
C377   C     0.81281   0.35675   0.21746   0.00000  Uiso   1.00
C378   C     0.85271   0.64325   0.28327   0.00000  Uiso   1.00
C379   C     0.68764   0.47228   0.21849   0.00000  Uiso   1.00
C380   C     0.97986   0.52988   0.27862   0.00000  Uiso   1.00
C381   C     0.97766   0.47466   0.21683   0.00000  Uiso   1.00
C382   C     0.68942   0.52553   0.28178   0.00000  Uiso   1.00
C383   C     0.81240   0.53848   0.04777   0.00000  Uiso   1.00
C384   C     0.80678   0.46354   0.45137   0.00000  Uiso   1.00
C385   C     0.84174   0.53752   0.45393   0.00000  Uiso   1.00
C386   C     0.83383   0.46017   0.04620   0.00000  Uiso   1.00
C387   C     0.81618   0.53877   0.09369   0.00000  Uiso   1.00
C388   C     0.81090   0.46303   0.40550   0.00000  Uiso   1.00
C389   C     0.84522   0.53733   0.40802   0.00000  Uiso   1.00
C390   C     0.83695   0.46022   0.09216   0.00000  Uiso   1.00
C391   C     0.82894   0.49980   0.11590   0.00000  Uiso   1.00
C392   C     0.83018   0.49990   0.38390   0.00000  Uiso   1.00
C393   C     0.82196   0.49944   0.02393   0.00000  Uiso   1.00
C394   C     0.82263   0.50056   0.47568   0.00000  Uiso   1.00
C395   C     0.95768   0.50245   0.24790   0.00000  Uiso   1.00
C396   C     0.70933   0.49822   0.25065   0.00000  Uiso   1.00
H397   H     0.80258   0.56880   0.03083   0.00000  Uiso   1.00
H398   H     0.79154   0.43504   0.46788   0.00000  Uiso   1.00
H399   H     0.85487   0.56594   0.47249   0.00000  Uiso   1.00
H400   H     0.84190   0.42996   0.02805   0.00000  Uiso   1.00
H401   H     0.80899   0.56932   0.11171   0.00000  Uiso   1.00
H402   H     0.79849   0.43426   0.38691   0.00000  Uiso   1.00
H403   H     0.86030   0.56592   0.39150   0.00000  Uiso   1.00
H404   H     0.84649   0.42970   0.10895   0.00000  Uiso   1.00
N405   N     0.83333   0.61907   0.25000   0.00000  Uiso   1.00
N406   N     0.83333   0.38093   0.25000   0.00000  Uiso   1.00
O407   O     0.77226   0.53821   0.25000   0.00000  Uiso   1.00
O408   O     0.89441   0.46179   0.25001   0.00000  Uiso   1.00
O409   O     0.89441   0.53821   0.25001   0.00000  Uiso   1.00
O410   O     0.77226   0.46179   0.25000   0.00000  Uiso   1.00
O411   O     0.83333   0.53822   0.18453   0.00000  Uiso   1.00
O412   O     0.83334   0.46178   0.31547   0.00000  Uiso   1.00
O413   O     0.83334   0.53822   0.31547   0.00000  Uiso   1.00
O414   O     0.83333   0.46178   0.18453   0.00000  Uiso   1.00
Zn415  Zn    0.83333   0.55104   0.25000   0.00000  Uiso   1.00
Zn416  Zn    0.83333   0.44896   0.25000   0.00000  Uiso   1.00
F417   F     0.87367   0.38086   0.31578   0.00000  Uiso   1.00
F418   F     0.79182   0.61908   0.18508   0.00000  Uiso   1.00
F419   F     0.79179   0.37874   0.18511   0.00000  Uiso   1.00
F420   F     0.87073   0.62125   0.31758   0.00000  Uiso   1.00
N421   N     0.70993   0.44411   0.18864   0.00000  Uiso   1.00
H422   H     0.69798   0.41177   0.18417   0.00000  Uiso   1.00
C423   C     0.72489   0.46554   0.14813   0.00000  Uiso   1.00
H424   H     0.69926   0.46801   0.12350   0.00000  Uiso   1.00
H425   H     0.74957   0.44470   0.13329   0.00000  Uiso   1.00
H426   H     0.73833   0.49983   0.15510   0.00000  Uiso   1.00
N427   N     0.95890   0.56088   0.30667   0.00000  Uiso   1.00
H428   H     0.96706   0.55875   0.33989   0.00000  Uiso   1.00
C429   C     0.96007   0.60700   0.29008   0.00000  Uiso   1.00
H430   H     0.99248   0.61876   0.28277   0.00000  Uiso   1.00
H431   H     0.94721   0.63001   0.31552   0.00000  Uiso   1.00
H432   H     0.94137   0.60951   0.25900   0.00000  Uiso   1.00
N433   N     0.95401   0.45154   0.18297   0.00000  Uiso   1.00
H434   H     0.96543   0.42124   0.17218   0.00000  Uiso   1.00
C435   C     0.94036   0.48001   0.14669   0.00000  Uiso   1.00
H436   H     0.96745   0.49569   0.12916   0.00000  Uiso   1.00
H437   H     0.92049   0.50734   0.15927   0.00000  Uiso   1.00
H438   H     0.92197   0.45933   0.12243   0.00000  Uiso   1.00
N439   N     0.71294   0.54745   0.31653   0.00000  Uiso   1.00
H440   H     0.70326   0.57898   0.32585   0.00000  Uiso   1.00
C441   C     0.72146   0.51881   0.35446   0.00000  Uiso   1.00
H442   H     0.69194   0.50908   0.37169   0.00000  Uiso   1.00
H443   H     0.74212   0.53740   0.37833   0.00000  Uiso   1.00
H444   H     0.73744   0.48779   0.34368   0.00000  Uiso   1.00
C445   C     0.08680   0.83273   0.25013   0.00000  Uiso   1.00
C446   C     0.24668   0.83402   0.24988   0.00000  Uiso   1.00
C447   C     0.16580   0.83331   0.16385   0.00000  Uiso   1.00
C448   C     0.16642   0.83331   0.33608   0.00000  Uiso   1.00
C449   C     0.18663   0.69115   0.28291   0.00000  Uiso   1.00
C450   C     0.14625   0.97551   0.21738   0.00000  Uiso   1.00
C451   C     0.14614   0.69008   0.21746   0.00000  Uiso   1.00
C452   C     0.18605   0.97659   0.28327   0.00000  Uiso   1.00
C453   C     0.02097   0.80562   0.21849   0.00000  Uiso   1.00
C454   C     0.31319   0.86321   0.27862   0.00000  Uiso   1.00
C455   C     0.31099   0.80800   0.21683   0.00000  Uiso   1.00
C456   C     0.02275   0.85887   0.28178   0.00000  Uiso   1.00
C457   C     0.14573   0.87181   0.04777   0.00000  Uiso   1.00
C458   C     0.14011   0.79687   0.45137   0.00000  Uiso   1.00
C459   C     0.17507   0.87085   0.45393   0.00000  Uiso   1.00
C460   C     0.16717   0.79350   0.04620   0.00000  Uiso   1.00
C461   C     0.14952   0.87210   0.09369   0.00000  Uiso   1.00
C462   C     0.14423   0.79636   0.40550   0.00000  Uiso   1.00
C463   C     0.17856   0.87066   0.40802   0.00000  Uiso   1.00
C464   C     0.17028   0.79356   0.09216   0.00000  Uiso   1.00
C465   C     0.16227   0.83313   0.11590   0.00000  Uiso   1.00
C466   C     0.16352   0.83323   0.38390   0.00000  Uiso   1.00
C467   C     0.15529   0.83277   0.02393   0.00000  Uiso   1.00
C468   C     0.15597   0.83389   0.47568   0.00000  Uiso   1.00
C469   C     0.29102   0.83579   0.24790   0.00000  Uiso   1.00
C470   C     0.04266   0.83156   0.25065   0.00000  Uiso   1.00
H471   H     0.13591   0.90214   0.03083   0.00000  Uiso   1.00
H472   H     0.12487   0.76837   0.46788   0.00000  Uiso   1.00
H473   H     0.18820   0.89927   0.47249   0.00000  Uiso   1.00
H474   H     0.17524   0.76329   0.02805   0.00000  Uiso   1.00
H475   H     0.14232   0.90265   0.11171   0.00000  Uiso   1.00
H476   H     0.13182   0.76759   0.38691   0.00000  Uiso   1.00
H477   H     0.19364   0.89925   0.39150   0.00000  Uiso   1.00
H478   H     0.17982   0.76304   0.10895   0.00000  Uiso   1.00
N479   N     0.16667   0.95240   0.25000   0.00000  Uiso   1.00
N480   N     0.16667   0.71427   0.25000   0.00000  Uiso   1.00
O481   O     0.10559   0.87154   0.25000   0.00000  Uiso   1.00
O482   O     0.22774   0.79513   0.25001   0.00000  Uiso   1.00
O483   O     0.22774   0.87154   0.25001   0.00000  Uiso   1.00
O484   O     0.10559   0.79513   0.25000   0.00000  Uiso   1.00
O485   O     0.16666   0.87155   0.18453   0.00000  Uiso   1.00
O486   O     0.16667   0.79511   0.31547   0.00000  Uiso   1.00
O487   O     0.16667   0.87155   0.31547   0.00000  Uiso   1.00
O488   O     0.16666   0.79511   0.18453   0.00000  Uiso   1.00
Zn489  Zn    0.16667   0.88437   0.25000   0.00000  Uiso   1.00
Zn490  Zn    0.16667   0.78229   0.25000   0.00000  Uiso   1.00
F491   F     0.20700   0.71420   0.31578   0.00000  Uiso   1.00
F492   F     0.12516   0.95242   0.18508   0.00000  Uiso   1.00
F493   F     0.12512   0.71207   0.18511   0.00000  Uiso   1.00
F494   F     0.20406   0.95458   0.31758   0.00000  Uiso   1.00
N495   N     0.04326   0.77745   0.18864   0.00000  Uiso   1.00
H496   H     0.03132   0.74510   0.18417   0.00000  Uiso   1.00
C497   C     0.05823   0.79888   0.14813   0.00000  Uiso   1.00
H498   H     0.03259   0.80134   0.12350   0.00000  Uiso   1.00
H499   H     0.08290   0.77804   0.13329   0.00000  Uiso   1.00
H500   H     0.07166   0.83316   0.15510   0.00000  Uiso   1.00
N501   N     0.29223   0.89421   0.30667   0.00000  Uiso   1.00
H502   H     0.30040   0.89208   0.33989   0.00000  Uiso   1.00
C503   C     0.29340   0.94033   0.29008   0.00000  Uiso   1.00
H504   H     0.32581   0.95210   0.28277   0.00000  Uiso   1.00
H505   H     0.28055   0.96334   0.31552   0.00000  Uiso   1.00
H506   H     0.27471   0.94284   0.25900   0.00000  Uiso   1.00
N507   N     0.28734   0.78487   0.18297   0.00000  Uiso   1.00
H508   H     0.29877   0.75457   0.17218   0.00000  Uiso   1.00
C509   C     0.27369   0.81334   0.14669   0.00000  Uiso   1.00
H510   H     0.30078   0.82902   0.12916   0.00000  Uiso   1.00
H511   H     0.25382   0.84067   0.15927   0.00000  Uiso   1.00
H512   H     0.25531   0.79266   0.12243   0.00000  Uiso   1.00
N513   N     0.04627   0.88079   0.31653   0.00000  Uiso   1.00
H514   H     0.03659   0.91232   0.32585   0.00000  Uiso   1.00
C515   C     0.05479   0.85215   0.35446   0.00000  Uiso   1.00
H516   H     0.02528   0.84241   0.37169   0.00000  Uiso   1.00
H517   H     0.07546   0.87074   0.37833   0.00000  Uiso   1.00
H518   H     0.07077   0.82112   0.34368   0.00000  Uiso   1.00
C519   C     0.42013   0.83273   0.25013   0.00000  Uiso   1.00
C520   C     0.58001   0.83402   0.24988   0.00000  Uiso   1.00
C521   C     0.49913   0.83331   0.16385   0.00000  Uiso   1.00
C522   C     0.49976   0.83331   0.33608   0.00000  Uiso   1.00
C523   C     0.51996   0.69115   0.28291   0.00000  Uiso   1.00
C524   C     0.47959   0.97551   0.21738   0.00000  Uiso   1.00
C525   C     0.47947   0.69008   0.21746   0.00000  Uiso   1.00
C526   C     0.51938   0.97659   0.28327   0.00000  Uiso   1.00
C527   C     0.35431   0.80562   0.21849   0.00000  Uiso   1.00
C528   C     0.64653   0.86321   0.27862   0.00000  Uiso   1.00
C529   C     0.64433   0.80800   0.21683   0.00000  Uiso   1.00
C530   C     0.35608   0.85887   0.28178   0.00000  Uiso   1.00
C531   C     0.47906   0.87181   0.04777   0.00000  Uiso   1.00
C532   C     0.47345   0.79687   0.45137   0.00000  Uiso   1.00
C533   C     0.50840   0.87085   0.45393   0.00000  Uiso   1.00
C534   C     0.50050   0.79350   0.04620   0.00000  Uiso   1.00
C535   C     0.48285   0.87210   0.09369   0.00000  Uiso   1.00
C536   C     0.47756   0.79636   0.40550   0.00000  Uiso   1.00
C537   C     0.51189   0.87066   0.40802   0.00000  Uiso   1.00
C538   C     0.50362   0.79356   0.09216   0.00000  Uiso   1.00
C539   C     0.49561   0.83313   0.11590   0.00000  Uiso   1.00
C540   C     0.49685   0.83323   0.38390   0.00000  Uiso   1.00
C541   C     0.48863   0.83277   0.02393   0.00000  Uiso   1.00
C542   C     0.48930   0.83389   0.47568   0.00000  Uiso   1.00
C543   C     0.62435   0.83579   0.24790   0.00000  Uiso   1.00
C544   C     0.37600   0.83156   0.25065   0.00000  Uiso   1.00
H545   H     0.46925   0.90214   0.03083   0.00000  Uiso   1.00
H546   H     0.45820   0.76837   0.46788   0.00000  Uiso   1.00
H547   H     0.52153   0.89927   0.47249   0.00000  Uiso   1.00
H548   H     0.50857   0.76329   0.02805   0.00000  Uiso   1.00
H549   H     0.47565   0.90265   0.11171   0.00000  Uiso   1.00
H550   H     0.46515   0.76759   0.38691   0.00000  Uiso   1.00
H551   H     0.52697   0.89925   0.39150   0.00000  Uiso   1.00
H552   H     0.51316   0.76304   0.10895   0.00000  Uiso   1.00
N553   N     0.50000   0.95240   0.25000   0.00000  Uiso   1.00
N554   N     0.50000   0.71427   0.25000   0.00000  Uiso   1.00
O555   O     0.43892   0.87154   0.25000   0.00000  Uiso   1.00
O556   O     0.56108   0.79513   0.25001   0.00000  Uiso   1.00
O557   O     0.56108   0.87154   0.25001   0.00000  Uiso   1.00
O558   O     0.43892   0.79513   0.25000   0.00000  Uiso   1.00
O559   O     0.50000   0.87155   0.18453   0.00000  Uiso   1.00
O560   O     0.50000   0.79511   0.31547   0.00000  Uiso   1.00
O561   O     0.50000   0.87155   0.31547   0.00000  Uiso   1.00
O562   O     0.50000   0.79511   0.18453   0.00000  Uiso   1.00
Zn563  Zn    0.50000   0.88437   0.25000   0.00000  Uiso   1.00
Zn564  Zn    0.50000   0.78229   0.25000   0.00000  Uiso   1.00
F565   F     0.54033   0.71420   0.31578   0.00000  Uiso   1.00
F566   F     0.45849   0.95242   0.18508   0.00000  Uiso   1.00
F567   F     0.45845   0.71207   0.18511   0.00000  Uiso   1.00
F568   F     0.53739   0.95458   0.31758   0.00000  Uiso   1.00
N569   N     0.37660   0.77745   0.18864   0.00000  Uiso   1.00
H570   H     0.36465   0.74510   0.18417   0.00000  Uiso   1.00
C571   C     0.39156   0.79888   0.14813   0.00000  Uiso   1.00
H572   H     0.36593   0.80134   0.12350   0.00000  Uiso   1.00
H573   H     0.41624   0.77804   0.13329   0.00000  Uiso   1.00
H574   H     0.40499   0.83316   0.15510   0.00000  Uiso   1.00
N575   N     0.62557   0.89421   0.30667   0.00000  Uiso   1.00
H576   H     0.63373   0.89208   0.33989   0.00000  Uiso   1.00
C577   C     0.62674   0.94033   0.29008   0.00000  Uiso   1.00
H578   H     0.65914   0.95210   0.28277   0.00000  Uiso   1.00
H579   H     0.61388   0.96334   0.31552   0.00000  Uiso   1.00
H580   H     0.60804   0.94284   0.25900   0.00000  Uiso   1.00
N581   N     0.62067   0.78487   0.18297   0.00000  Uiso   1.00
H582   H     0.63210   0.75457   0.17218   0.00000  Uiso   1.00
C583   C     0.60702   0.81334   0.14669   0.00000  Uiso   1.00
H584   H     0.63412   0.82902   0.12916   0.00000  Uiso   1.00
H585   H     0.58715   0.84067   0.15927   0.00000  Uiso   1.00
H586   H     0.58864   0.79266   0.12243   0.00000  Uiso   1.00
N587   N     0.37960   0.88079   0.31653   0.00000  Uiso   1.00
H588   H     0.36993   0.91232   0.32585   0.00000  Uiso   1.00
C589   C     0.38812   0.85215   0.35446   0.00000  Uiso   1.00
H590   H     0.35861   0.84241   0.37169   0.00000  Uiso   1.00
H591   H     0.40879   0.87074   0.37833   0.00000  Uiso   1.00
H592   H     0.40411   0.82112   0.34368   0.00000  Uiso   1.00
C593   C     0.75347   0.83273   0.25013   0.00000  Uiso   1.00
C594   C     0.91335   0.83402   0.24988   0.00000  Uiso   1.00
C595   C     0.83246   0.83331   0.16385   0.00000  Uiso   1.00
C596   C     0.83309   0.83331   0.33608   0.00000  Uiso   1.00
C597   C     0.85330   0.69115   0.28291   0.00000  Uiso   1.00
C598   C     0.81292   0.97551   0.21738   0.00000  Uiso   1.00
C599   C     0.81281   0.69008   0.21746   0.00000  Uiso   1.00
C600   C     0.85271   0.97659   0.28327   0.00000  Uiso   1.00
C601   C     0.68764   0.80562   0.21849   0.00000  Uiso   1.00
C602   C     0.97986   0.86321   0.27862   0.00000  Uiso   1.00
C603   C     0.97766   0.80800   0.21683   0.00000  Uiso   1.00
C604   C     0.68942   0.85887   0.28178   0.00000  Uiso   1.00
C605   C     0.81240   0.87181   0.04777   0.00000  Uiso   1.00
C606   C     0.80678   0.79687   0.45137   0.00000  Uiso   1.00
C607   C     0.84174   0.87085   0.45393   0.00000  Uiso   1.00
C608   C     0.83383   0.79350   0.04620   0.00000  Uiso   1.00
C609   C     0.81618   0.87210   0.09369   0.00000  Uiso   1.00
C610   C     0.81090   0.79636   0.40550   0.00000  Uiso   1.00
C611   C     0.84522   0.87066   0.40802   0.00000  Uiso   1.00
C612   C     0.83695   0.79356   0.09216   0.00000  Uiso   1.00
C613   C     0.82894   0.83313   0.11590   0.00000  Uiso   1.00
C614   C     0.83018   0.83323   0.38390   0.00000  Uiso   1.00
C615   C     0.82196   0.83277   0.02393   0.00000  Uiso   1.00
C616   C     0.82263   0.83389   0.47568   0.00000  Uiso   1.00
C617   C     0.95768   0.83579   0.24790   0.00000  Uiso   1.00
C618   C     0.70933   0.83156   0.25065   0.00000  Uiso   1.00
H619   H     0.80258   0.90214   0.03083   0.00000  Uiso   1.00
H620   H     0.79154   0.76837   0.46788   0.00000  Uiso   1.00
H621   H     0.85487   0.89927   0.47249   0.00000  Uiso   1.00
H622   H     0.84190   0.76329   0.02805   0.00000  Uiso   1.00
H623   H     0.80899   0.90265   0.11171   0.00000  Uiso   1.00
H624   H     0.79849   0.76759   0.38691   0.00000  Uiso   1.00
H625   H     0.86030   0.89925   0.39150   0.00000  Uiso   1.00
H626   H     0.84649   0.76304   0.10895   0.00000  Uiso   1.00
N627   N     0.83333   0.95240   0.25000   0.00000  Uiso   1.00
N628   N     0.83333   0.71427   0.25000   0.00000  Uiso   1.00
O629   O     0.77226   0.87154   0.25000   0.00000  Uiso   1.00
O630   O     0.89441   0.79513   0.25001   0.00000  Uiso   1.00
O631   O     0.89441   0.87154   0.25001   0.00000  Uiso   1.00
O632   O     0.77226   0.79513   0.25000   0.00000  Uiso   1.00
O633   O     0.83333   0.87155   0.18453   0.00000  Uiso   1.00
O634   O     0.83334   0.79511   0.31547   0.00000  Uiso   1.00
O635   O     0.83334   0.87155   0.31547   0.00000  Uiso   1.00
O636   O     0.83333   0.79511   0.18453   0.00000  Uiso   1.00
Zn637  Zn    0.83333   0.88437   0.25000   0.00000  Uiso   1.00
Zn638  Zn    0.83333   0.78229   0.25000   0.00000  Uiso   1.00
F639   F     0.87367   0.71420   0.31578   0.00000  Uiso   1.00
F640   F     0.79182   0.95242   0.18508   0.00000  Uiso   1.00
F641   F     0.79179   0.71207   0.18511   0.00000  Uiso   1.00
F642   F     0.87073   0.95458   0.31758   0.00000  Uiso   1.00
N643   N     0.70993   0.77745   0.18864   0.00000  Uiso   1.00
H644   H     0.69798   0.74510   0.18417   0.00000  Uiso   1.00
C645   C     0.72489   0.79888   0.14813   0.00000  Uiso   1.00
H646   H     0.69926   0.80134   0.12350   0.00000  Uiso   1.00
H647   H     0.74957   0.77804   0.13329   0.00000  Uiso   1.00
H648   H     0.73833   0.83316   0.15510   0.00000  Uiso   1.00
N649   N     0.95890   0.89421   0.30667   0.00000  Uiso   1.00
H650   H     0.96706   0.89208   0.33989   0.00000  Uiso   1.00
C651   C     0.96007   0.94033   0.29008   0.00000  Uiso   1.00
H652   H     0.99248   0.95210   0.28277   0.00000  Uiso   1.00
H653   H     0.94721   0.96334   0.31552   0.00000  Uiso   1.00
H654   H     0.94137   0.94284   0.25900   0.00000  Uiso   1.00
N655   N     0.95401   0.78487   0.18297   0.00000  Uiso   1.00
H656   H     0.96543   0.75457   0.17218   0.00000  Uiso   1.00
C657   C     0.94036   0.81334   0.14669   0.00000  Uiso   1.00
H658   H     0.96745   0.82902   0.12916   0.00000  Uiso   1.00
H659   H     0.92049   0.84067   0.15927   0.00000  Uiso   1.00
H660   H     0.92197   0.79266   0.12243   0.00000  Uiso   1.00
N661   N     0.71294   0.88079   0.31653   0.00000  Uiso   1.00
H662   H     0.70326   0.91232   0.32585   0.00000  Uiso   1.00
C663   C     0.72146   0.85215   0.35446   0.00000  Uiso   1.00
H664   H     0.69194   0.84241   0.37169   0.00000  Uiso   1.00
H665   H     0.74212   0.87074   0.37833   0.00000  Uiso   1.00
H666   H     0.73744   0.82112   0.34368   0.00000  Uiso   1.00
C667   C     0.08680   0.16607   0.75013   0.00000  Uiso   1.00
C668   C     0.24668   0.16736   0.74988   0.00000  Uiso   1.00
C669   C     0.16580   0.16664   0.66385   0.00000  Uiso   1.00
C670   C     0.16642   0.16664   0.83608   0.00000  Uiso   1.00
C671   C     0.18663   0.02448   0.78291   0.00000  Uiso   1.00
C672   C     0.14625   0.30884   0.71738   0.00000  Uiso   1.00
C673   C     0.14614   0.02341   0.71746   0.00000  Uiso   1.00
C674   C     0.18605   0.30992   0.78327   0.00000  Uiso   1.00
C675   C     0.02097   0.13895   0.71849   0.00000  Uiso   1.00
C676   C     0.31319   0.19655   0.77862   0.00000  Uiso   1.00
C677   C     0.31099   0.14133   0.71683   0.00000  Uiso   1.00
C678   C     0.02275   0.19220   0.78178   0.00000  Uiso   1.00
C679   C     0.14573   0.20515   0.54777   0.00000  Uiso   1.00
C680   C     0.14011   0.13020   0.95137   0.00000  Uiso   1.00
C681   C     0.17507   0.20419   0.95393   0.00000  Uiso   1.00
C682   C     0.16717   0.12683   0.54620   0.00000  Uiso   1.00
C683   C     0.14952   0.20544   0.59369   0.00000  Uiso   1.00
C684   C     0.14423   0.12969   0.90550   0.00000  Uiso   1.00
C685   C     0.17856   0.20400   0.90802   0.00000  Uiso   1.00
C686   C     0.17028   0.12689   0.59216   0.00000  Uiso   1.00
C687   C     0.16227   0.16646   0.61590   0.00000  Uiso   1.00
C688   C     0.16352   0.16657   0.88390   0.00000  Uiso   1.00
C689   C     0.15529   0.16611   0.52393   0.00000  Uiso   1.00
C690   C     0.15597   0.16722   0.97568   0.00000  Uiso   1.00
C691   C     0.29102   0.16912   0.74790   0.00000  Uiso   1.00
C692   C     0.04266   0.16489   0.75065   0.00000  Uiso   1.00
H693   H     0.13591   0.23547   0.53083   0.00000  Uiso   1.00
H694   H     0.12487   0.10171   0.96788   0.00000  Uiso   1.00
H695   H     0.18820   0.23260   0.97249   0.00000  Uiso   1.00
H696   H     0.17524   0.09662   0.52805   0.00000  Uiso   1.00
H697   H     0.14232   0.23598   0.61171   0.00000  Uiso   1.00
H698   H     0.13182   0.10093   0.88691   0.00000  Uiso   1.00
H699   H     0.19364   0.23258   0.89150   0.00000  Uiso   1.00
H700   H     0.17982   0.09637   0.60895   0.00000  Uiso   1.00
N701   N     0.16667   0.28573   0.75000   0.00000  Uiso   1.00
N702   N     0.16667   0.04760   0.75000   0.00000  Uiso   1.00
O703   O     0.10559   0.20487   0.75000   0.00000  Uiso   1.00
O704   O     0.22774   0.12846   0.75001   0.00000  Uiso   1.00
O705   O     0.22774   0.20487   0.75001   0.00000  Uiso   1.00
O706   O     0.10559   0.12846   0.75000   0.00000  Uiso   1.00
O707   O     0.16666   0.20489   0.68453   0.00000  Uiso   1.00
O708   O     0.16667   0.12845   0.81547   0.00000  Uiso   1.00
O709   O     0.16667   0.20489   0.81547   0.00000  Uiso   1.00
O710   O     0.16666   0.12845   0.68453   0.00000  Uiso   1.00
Zn711  Zn    0.16667   0.21771   0.75000   0.00000  Uiso   1.00
Zn712  Zn    0.16667   0.11563   0.75000   0.00000  Uiso   1.00
F713   F     0.20700   0.04753   0.81578   0.00000  Uiso   1.00
F714   F     0.12516   0.28575   0.68508   0.00000  Uiso   1.00
F715   F     0.12512   0.04540   0.68511   0.00000  Uiso   1.00
F716   F     0.20406   0.28791   0.81758   0.00000  Uiso   1.00
N717   N     0.04326   0.11078   0.68864   0.00000  Uiso   1.00
H718   H     0.03132   0.07844   0.68417   0.00000  Uiso   1.00
C719   C     0.05823   0.13221   0.64813   0.00000  Uiso   1.00
H720   H     0.03259   0.13468   0.62350   0.00000  Uiso   1.00
H721   H     0.08290   0.11137   0.63329   0.00000  Uiso   1.00
H722   H     0.07166   0.16650   0.65510   0.00000  Uiso   1.00
N723   N     0.29223   0.22754   0.80667   0.00000  Uiso   1.00
H724   H     0.30040   0.22541   0.83989   0.00000  Uiso   1.00
C725   C     0.29340   0.27367   0.79008   0.00000  Uiso   1.00
H726   H     0.32581   0.28543   0.78277   0.00000  Uiso   1.00
H727   H     0.28055   0.29667   0.81552   0.00000  Uiso   1.00
H728   H     0.27471   0.27618   0.75900   0.00000  Uiso   1.00
N729   N     0.28734   0.11820   0.68297   0.00000  Uiso   1.00
H730   H     0.29877   0.08791   0.67218   0.00000  Uiso   1.00
C731   C     0.27369   0.14667   0.64669   0.00000  Uiso   1.00
H732   H     0.30078   0.16236   0.62916   0.00000  Uiso   1.00
H733   H     0.25382   0.17401   0.65927   0.00000  Uiso   1.00
H734   H     0.25531   0.12600   0.62243   0.00000  Uiso   1.00
N735   N     0.04627   0.21412   0.81653   0.00000  Uiso   1.00
H736   H     0.03659   0.24565   0.82585   0.00000  Uiso   1.00
C737   C     0.05479   0.18548   0.85446   0.00000  Uiso   1.00
H738   H     0.02528   0.17574   0.87169   0.00000  Uiso   1.00
H739   H     0.07546   0.20407   0.87833   0.00000  Uiso   1.00
H740   H     0.07077   0.15445   0.84368   0.00000  Uiso   1.00
C741   C     0.42013   0.16607   0.75013   0.00000  Uiso   1.00
C742   C     0.58001   0.16736   0.74988   0.00000  Uiso   1.00
C743   C     0.49913   0.16664   0.66385   0.00000  Uiso   1.00
C744   C     0.49976   0.16664   0.83608   0.00000  Uiso   1.00
C745   C     0.51996   0.02448   0.78291   0.00000  Uiso   1.00
C746   C     0.47959   0.30884   0.71738   0.00000  Uiso   1.00
C747   C     0.47947   0.02341   0.71746   0.00000  Uiso   1.00
C748   C     0.51938   0.30992   0.78327   0.00000  Uiso   1.00
C749   C     0.35431   0.13895   0.71849   0.00000  Uiso   1.00
C750   C     0.64653   0.19655   0.77862   0.00000  Uiso   1.00
C751   C     0.64433   0.14133   0.71683   0.00000  Uiso   1.00
C752   C     0.35608   0.19220   0.78178   0.00000  Uiso   1.00
C753   C     0.47906   0.20515   0.54777   0.00000  Uiso   1.00
C754   C     0.47345   0.13020   0.95137   0.00000  Uiso   1.00
C755   C     0.50840   0.20419   0.95393   0.00000  Uiso   1.00
C756   C     0.50050   0.12683   0.54620   0.00000  Uiso   1.00
C757   C     0.48285   0.20544   0.59369   0.00000  Uiso   1.00
C758   C     0.47756   0.12969   0.90550   0.00000  Uiso   1.00
C759   C     0.51189   0.20400   0.90802   0.00000  Uiso   1.00
C760   C     0.50362   0.12689   0.59216   0.00000  Uiso   1.00
C761   C     0.49561   0.16646   0.61590   0.00000  Uiso   1.00
C762   C     0.49685   0.16657   0.88390   0.00000  Uiso   1.00
C763   C     0.48863   0.16611   0.52393   0.00000  Uiso   1.00
C764   C     0.48930   0.16722   0.97568   0.00000  Uiso   1.00
C765   C     0.62435   0.16912   0.74790   0.00000  Uiso   1.00
C766   C     0.37600   0.16489   0.75065   0.00000  Uiso   1.00
H767   H     0.46925   0.23547   0.53083   0.00000  Uiso   1.00
H768   H     0.45820   0.10171   0.96788   0.00000  Uiso   1.00
H769   H     0.52153   0.23260   0.97249   0.00000  Uiso   1.00
H770   H     0.50857   0.09662   0.52805   0.00000  Uiso   1.00
H771   H     0.47565   0.23598   0.61171   0.00000  Uiso   1.00
H772   H     0.46515   0.10093   0.88691   0.00000  Uiso   1.00
H773   H     0.52697   0.23258   0.89150   0.00000  Uiso   1.00
H774   H     0.51316   0.09637   0.60895   0.00000  Uiso   1.00
N775   N     0.50000   0.28573   0.75000   0.00000  Uiso   1.00
N776   N     0.50000   0.04760   0.75000   0.00000  Uiso   1.00
O777   O     0.43892   0.20487   0.75000   0.00000  Uiso   1.00
O778   O     0.56108   0.12846   0.75001   0.00000  Uiso   1.00
O779   O     0.56108   0.20487   0.75001   0.00000  Uiso   1.00
O780   O     0.43892   0.12846   0.75000   0.00000  Uiso   1.00
O781   O     0.50000   0.20489   0.68453   0.00000  Uiso   1.00
O782   O     0.50000   0.12845   0.81547   0.00000  Uiso   1.00
O783   O     0.50000   0.20489   0.81547   0.00000  Uiso   1.00
O784   O     0.50000   0.12845   0.68453   0.00000  Uiso   1.00
Zn785  Zn    0.50000   0.21771   0.75000   0.00000  Uiso   1.00
Zn786  Zn    0.50000   0.11563   0.75000   0.00000  Uiso   1.00
F787   F     0.54033   0.04753   0.81578   0.00000  Uiso   1.00
F788   F     0.45849   0.28575   0.68508   0.00000  Uiso   1.00
F789   F     0.45845   0.04540   0.68511   0.00000  Uiso   1.00
F790   F     0.53739   0.28791   0.81758   0.00000  Uiso   1.00
N791   N     0.37660   0.11078   0.68864   0.00000  Uiso   1.00
H792   H     0.36465   0.07844   0.68417   0.00000  Uiso   1.00
C793   C     0.39156   0.13221   0.64813   0.00000  Uiso   1.00
H794   H     0.36593   0.13468   0.62350   0.00000  Uiso   1.00
H795   H     0.41624   0.11137   0.63329   0.00000  Uiso   1.00
H796   H     0.40499   0.16650   0.65510   0.00000  Uiso   1.00
N797   N     0.62557   0.22754   0.80667   0.00000  Uiso   1.00
H798   H     0.63373   0.22541   0.83989   0.00000  Uiso   1.00
C799   C     0.62674   0.27367   0.79008   0.00000  Uiso   1.00
H800   H     0.65914   0.28543   0.78277   0.00000  Uiso   1.00
H801   H     0.61388   0.29667   0.81552   0.00000  Uiso   1.00
H802   H     0.60804   0.27618   0.75900   0.00000  Uiso   1.00
N803   N     0.62067   0.11820   0.68297   0.00000  Uiso   1.00
H804   H     0.63210   0.08791   0.67218   0.00000  Uiso   1.00
C805   C     0.60702   0.14667   0.64669   0.00000  Uiso   1.00
H806   H     0.63412   0.16236   0.62916   0.00000  Uiso   1.00
H807   H     0.58715   0.17401   0.65927   0.00000  Uiso   1.00
H808   H     0.58864   0.12600   0.62243   0.00000  Uiso   1.00
N809   N     0.37960   0.21412   0.81653   0.00000  Uiso   1.00
H810   H     0.36993   0.24565   0.82585   0.00000  Uiso   1.00
C811   C     0.38812   0.18548   0.85446   0.00000  Uiso   1.00
H812   H     0.35861   0.17574   0.87169   0.00000  Uiso   1.00
H813   H     0.40879   0.20407   0.87833   0.00000  Uiso   1.00
H814   H     0.40411   0.15445   0.84368   0.00000  Uiso   1.00
C815   C     0.75347   0.16607   0.75013   0.00000  Uiso   1.00
C816   C     0.91335   0.16736   0.74988   0.00000  Uiso   1.00
C817   C     0.83246   0.16664   0.66385   0.00000  Uiso   1.00
C818   C     0.83309   0.16664   0.83608   0.00000  Uiso   1.00
C819   C     0.85330   0.02448   0.78291   0.00000  Uiso   1.00
C820   C     0.81292   0.30884   0.71738   0.00000  Uiso   1.00
C821   C     0.81281   0.02341   0.71746   0.00000  Uiso   1.00
C822   C     0.85271   0.30992   0.78327   0.00000  Uiso   1.00
C823   C     0.68764   0.13895   0.71849   0.00000  Uiso   1.00
C824   C     0.97986   0.19655   0.77862   0.00000  Uiso   1.00
C825   C     0.97766   0.14133   0.71683   0.00000  Uiso   1.00
C826   C     0.68942   0.19220   0.78178   0.00000  Uiso   1.00
C827   C     0.81240   0.20515   0.54777   0.00000  Uiso   1.00
C828   C     0.80678   0.13020   0.95137   0.00000  Uiso   1.00
C829   C     0.84174   0.20419   0.95393   0.00000  Uiso   1.00
C830   C     0.83383   0.12683   0.54620   0.00000  Uiso   1.00
C831   C     0.81618   0.20544   0.59369   0.00000  Uiso   1.00
C832   C     0.81090   0.12969   0.90550   0.00000  Uiso   1.00
C833   C     0.84522   0.20400   0.90802   0.00000  Uiso   1.00
C834   C     0.83695   0.12689   0.59216   0.00000  Uiso   1.00
C835   C     0.82894   0.16646   0.61590   0.00000  Uiso   1.00
C836   C     0.83018   0.16657   0.88390   0.00000  Uiso   1.00
C837   C     0.82196   0.16611   0.52393   0.00000  Uiso   1.00
C838   C     0.82263   0.16722   0.97568   0.00000  Uiso   1.00
C839   C     0.95768   0.16912   0.74790   0.00000  Uiso   1.00
C840   C     0.70933   0.16489   0.75065   0.00000  Uiso   1.00
H841   H     0.80258   0.23547   0.53083   0.00000  Uiso   1.00
H842   H     0.79154   0.10171   0.96788   0.00000  Uiso   1.00
H843   H     0.85487   0.23260   0.97249   0.00000  Uiso   1.00
H844   H     0.84190   0.09662   0.52805   0.00000  Uiso   1.00
H845   H     0.80899   0.23598   0.61171   0.00000  Uiso   1.00
H846   H     0.79849   0.10093   0.88691   0.00000  Uiso   1.00
H847   H     0.86030   0.23258   0.89150   0.00000  Uiso   1.00
H848   H     0.84649   0.09637   0.60895   0.00000  Uiso   1.00
N849   N     0.83333   0.28573   0.75000   0.00000  Uiso   1.00
N850   N     0.83333   0.04760   0.75000   0.00000  Uiso   1.00
O851   O     0.77226   0.20487   0.75000   0.00000  Uiso   1.00
O852   O     0.89441   0.12846   0.75001   0.00000  Uiso   1.00
O853   O     0.89441   0.20487   0.75001   0.00000  Uiso   1.00
O854   O     0.77226   0.12846   0.75000   0.00000  Uiso   1.00
O855   O     0.83333   0.20489   0.68453   0.00000  Uiso   1.00
O856   O     0.83334   0.12845   0.81547   0.00000  Uiso   1.00
O857   O     0.83334   0.20489   0.81547   0.00000  Uiso   1.00
O858   O     0.83333   0.12845   0.68453   0.00000  Uiso   1.00
Zn859  Zn    0.83333   0.21771   0.75000   0.00000  Uiso   1.00
Zn860  Zn    0.83333   0.11563   0.75000   0.00000  Uiso   1.00
F861   F     0.87367   0.04753   0.81578   0.00000  Uiso   1.00
F862   F     0.79182   0.28575   0.68508   0.00000  Uiso   1.00
F863   F     0.79179   0.04540   0.68511   0.00000  Uiso   1.00
F864   F     0.87073   0.28791   0.81758   0.00000  Uiso   1.00
N865   N     0.70993   0.11078   0.68864   0.00000  Uiso   1.00
H866   H     0.69798   0.07844   0.68417   0.00000  Uiso   1.00
C867   C     0.72489   0.13221   0.64813   0.00000  Uiso   1.00
H868   H     0.69926   0.13468   0.62350   0.00000  Uiso   1.00
H869   H     0.74957   0.11137   0.63329   0.00000  Uiso   1.00
H870   H     0.73833   0.16650   0.65510   0.00000  Uiso   1.00
N871   N     0.95890   0.22754   0.80667   0.00000  Uiso   1.00
H872   H     0.96706   0.22541   0.83989   0.00000  Uiso   1.00
C873   C     0.96007   0.27367   0.79008   0.00000  Uiso   1.00
H874   H     0.99248   0.28543   0.78277   0.00000  Uiso   1.00
H875   H     0.94721   0.29667   0.81552   0.00000  Uiso   1.00
H876   H     0.94137   0.27618   0.75900   0.00000  Uiso   1.00
N877   N     0.95401   0.11820   0.68297   0.00000  Uiso   1.00
H878   H     0.96543   0.08791   0.67218   0.00000  Uiso   1.00
C879   C     0.94036   0.14667   0.64669   0.00000  Uiso   1.00
H880   H     0.96745   0.16236   0.62916   0.00000  Uiso   1.00
H881   H     0.92049   0.17401   0.65927   0.00000  Uiso   1.00
H882   H     0.92197   0.12600   0.62243   0.00000  Uiso   1.00
N883   N     0.71294   0.21412   0.81653   0.00000  Uiso   1.00
H884   H     0.70326   0.24565   0.82585   0.00000  Uiso   1.00
C885   C     0.72146   0.18548   0.85446   0.00000  Uiso   1.00
H886   H     0.69194   0.17574   0.87169   0.00000  Uiso   1.00
H887   H     0.74212   0.20407   0.87833   0.00000  Uiso   1.00
H888   H     0.73744   0.15445   0.84368   0.00000  Uiso   1.00
C889   C     0.08680   0.49940   0.75013   0.00000  Uiso   1.00
C890   C     0.24668   0.50069   0.74988   0.00000  Uiso   1.00
C891   C     0.16580   0.49997   0.66385   0.00000  Uiso   1.00
C892   C     0.16642   0.49998   0.83608   0.00000  Uiso   1.00
C893   C     0.18663   0.35781   0.78291   0.00000  Uiso   1.00
C894   C     0.14625   0.64218   0.71738   0.00000  Uiso   1.00
C895   C     0.14614   0.35675   0.71746   0.00000  Uiso   1.00
C896   C     0.18605   0.64325   0.78327   0.00000  Uiso   1.00
C897   C     0.02097   0.47228   0.71849   0.00000  Uiso   1.00
C898   C     0.31319   0.52988   0.77862   0.00000  Uiso   1.00
C899   C     0.31099   0.47466   0.71683   0.00000  Uiso   1.00
C900   C     0.02275   0.52553   0.78178   0.00000  Uiso   1.00
C901   C     0.14573   0.53848   0.54777   0.00000  Uiso   1.00
C902   C     0.14011   0.46354   0.95137   0.00000  Uiso   1.00
C903   C     0.17507   0.53752   0.95393   0.00000  Uiso   1.00
C904   C     0.16717   0.46017   0.54620   0.00000  Uiso   1.00
C905   C     0.14952   0.53877   0.59369   0.00000  Uiso   1.00
C906   C     0.14423   0.46303   0.90550   0.00000  Uiso   1.00
C907   C     0.17856   0.53733   0.90802   0.00000  Uiso   1.00
C908   C     0.17028   0.46022   0.59216   0.00000  Uiso   1.00
C909   C     0.16227   0.49980   0.61590   0.00000  Uiso   1.00
C910   C     0.16352   0.49990   0.88390   0.00000  Uiso   1.00
C911   C     0.15529   0.49944   0.52393   0.00000  Uiso   1.00
C912   C     0.15597   0.50056   0.97568   0.00000  Uiso   1.00
C913   C     0.29102   0.50245   0.74790   0.00000  Uiso   1.00
C914   C     0.04266   0.49822   0.75065   0.00000  Uiso   1.00
H915   H     0.13591   0.56880   0.53083   0.00000  Uiso   1.00
H916   H     0.12487   0.43504   0.96788   0.00000  Uiso   1.00
H917   H     0.18820   0.56594   0.97249   0.00000  Uiso   1.00
H918   H     0.17524   0.42996   0.52805   0.00000  Uiso   1.00
H919   H     0.14232   0.56932   0.61171   0.00000  Uiso   1.00
H920   H     0.13182   0.43426   0.88691   0.00000  Uiso   1.00
H921   H     0.19364   0.56592   0.89150   0.00000  Uiso   1.00
H922   H     0.17982   0.42970   0.60895   0.00000  Uiso   1.00
N923   N     0.16667   0.61907   0.75000   0.00000  Uiso   1.00
N924   N     0.16667   0.38093   0.75000   0.00000  Uiso   1.00
O925   O     0.10559   0.53821   0.75000   0.00000  Uiso   1.00
O926   O     0.22774   0.46179   0.75001   0.00000  Uiso   1.00
O927   O     0.22774   0.53821   0.75001   0.00000  Uiso   1.00
O928   O     0.10559   0.46179   0.75000   0.00000  Uiso   1.00
O929   O     0.16666   0.53822   0.68453   0.00000  Uiso   1.00
O930   O     0.16667   0.46178   0.81547   0.00000  Uiso   1.00
O931   O     0.16667   0.53822   0.81547   0.00000  Uiso   1.00
O932   O     0.16666   0.46178   0.68453   0.00000  Uiso   1.00
Zn933  Zn    0.16667   0.55104   0.75000   0.00000  Uiso   1.00
Zn934  Zn    0.16667   0.44896   0.75000   0.00000  Uiso   1.00
F935   F     0.20700   0.38086   0.81578   0.00000  Uiso   1.00
F936   F     0.12516   0.61908   0.68508   0.00000  Uiso   1.00
F937   F     0.12512   0.37874   0.68511   0.00000  Uiso   1.00
F938   F     0.20406   0.62125   0.81758   0.00000  Uiso   1.00
N939   N     0.04326   0.44411   0.68864   0.00000  Uiso   1.00
H940   H     0.03132   0.41177   0.68417   0.00000  Uiso   1.00
C941   C     0.05823   0.46554   0.64813   0.00000  Uiso   1.00
H942   H     0.03259   0.46801   0.62350   0.00000  Uiso   1.00
H943   H     0.08290   0.44470   0.63329   0.00000  Uiso   1.00
H944   H     0.07166   0.49983   0.65510   0.00000  Uiso   1.00
N945   N     0.29223   0.56088   0.80667   0.00000  Uiso   1.00
H946   H     0.30040   0.55875   0.83989   0.00000  Uiso   1.00
C947   C     0.29340   0.60700   0.79008   0.00000  Uiso   1.00
H948   H     0.32581   0.61876   0.78277   0.00000  Uiso   1.00
H949   H     0.28055   0.63001   0.81552   0.00000  Uiso   1.00
H950   H     0.27471   0.60951   0.75900   0.00000  Uiso   1.00
N951   N     0.28734   0.45154   0.68297   0.00000  Uiso   1.00
H952   H     0.29877   0.42124   0.67218   0.00000  Uiso   1.00
C953   C     0.27369   0.48001   0.64669   0.00000  Uiso   1.00
H954   H     0.30078   0.49569   0.62916   0.00000  Uiso   1.00
H955   H     0.25382   0.50734   0.65927   0.00000  Uiso   1.00
H956   H     0.25531   0.45933   0.62243   0.00000  Uiso   1.00
N957   N     0.04627   0.54745   0.81653   0.00000  Uiso   1.00
H958   H     0.03659   0.57898   0.82585   0.00000  Uiso   1.00
C959   C     0.05479   0.51881   0.85446   0.00000  Uiso   1.00
H960   H     0.02528   0.50908   0.87169   0.00000  Uiso   1.00
H961   H     0.07546   0.53740   0.87833   0.00000  Uiso   1.00
H962   H     0.07077   0.48779   0.84368   0.00000  Uiso   1.00
C963   C     0.42013   0.49940   0.75013   0.00000  Uiso   1.00
C964   C     0.58001   0.50069   0.74988   0.00000  Uiso   1.00
C965   C     0.49913   0.49997   0.66385   0.00000  Uiso   1.00
C966   C     0.49976   0.49998   0.83608   0.00000  Uiso   1.00
C967   C     0.51996   0.35781   0.78291   0.00000  Uiso   1.00
C968   C     0.47959   0.64218   0.71738   0.00000  Uiso   1.00
C969   C     0.47947   0.35675   0.71746   0.00000  Uiso   1.00
C970   C     0.51938   0.64325   0.78327   0.00000  Uiso   1.00
C971   C     0.35431   0.47228   0.71849   0.00000  Uiso   1.00
C972   C     0.64653   0.52988   0.77862   0.00000  Uiso   1.00
C973   C     0.64433   0.47466   0.71683   0.00000  Uiso   1.00
C974   C     0.35608   0.52553   0.78178   0.00000  Uiso   1.00
C975   C     0.47906   0.53848   0.54777   0.00000  Uiso   1.00
C976   C     0.47345   0.46354   0.95137   0.00000  Uiso   1.00
C977   C     0.50840   0.53752   0.95393   0.00000  Uiso   1.00
C978   C     0.50050   0.46017   0.54620   0.00000  Uiso   1.00
C979   C     0.48285   0.53877   0.59369   0.00000  Uiso   1.00
C980   C     0.47756   0.46303   0.90550   0.00000  Uiso   1.00
C981   C     0.51189   0.53733   0.90802   0.00000  Uiso   1.00
C982   C     0.50362   0.46022   0.59216   0.00000  Uiso   1.00
C983   C     0.49561   0.49980   0.61590   0.00000  Uiso   1.00
C984   C     0.49685   0.49990   0.88390   0.00000  Uiso   1.00
C985   C     0.48863   0.49944   0.52393   0.00000  Uiso   1.00
C986   C     0.48930   0.50056   0.97568   0.00000  Uiso   1.00
C987   C     0.62435   0.50245   0.74790   0.00000  Uiso   1.00
C988   C     0.37600   0.49822   0.75065   0.00000  Uiso   1.00
H989   H     0.46925   0.56880   0.53083   0.00000  Uiso   1.00
H990   H     0.45820   0.43504   0.96788   0.00000  Uiso   1.00
H991   H     0.52153   0.56594   0.97249   0.00000  Uiso   1.00
H992   H     0.50857   0.42996   0.52805   0.00000  Uiso   1.00
H993   H     0.47565   0.56932   0.61171   0.00000  Uiso   1.00
H994   H     0.46515   0.43426   0.88691   0.00000  Uiso   1.00
H995   H     0.52697   0.56592   0.89150   0.00000  Uiso   1.00
H996   H     0.51316   0.42970   0.60895   0.00000  Uiso   1.00
N997   N     0.50000   0.61907   0.75000   0.00000  Uiso   1.00
N998   N     0.50000   0.38093   0.75000   0.00000  Uiso   1.00
O999   O     0.43892   0.53821   0.75000   0.00000  Uiso   1.00
O1000  O     0.56108   0.46179   0.75001   0.00000  Uiso   1.00
O1001  O     0.56108   0.53821   0.75001   0.00000  Uiso   1.00
O1002  O     0.43892   0.46179   0.75000   0.00000  Uiso   1.00
O1003  O     0.50000   0.53822   0.68453   0.00000  Uiso   1.00
O1004  O     0.50000   0.46178   0.81547   0.00000  Uiso   1.00
O1005  O     0.50000   0.53822   0.81547   0.00000  Uiso   1.00
O1006  O     0.50000   0.46178   0.68453   0.00000  Uiso   1.00
Zn1007 Zn    0.50000   0.55104   0.75000   0.00000  Uiso   1.00
Zn1008 Zn    0.50000   0.44896   0.75000   0.00000  Uiso   1.00
F1009  F     0.54033   0.38086   0.81578   0.00000  Uiso   1.00
F1010  F     0.45849   0.61908   0.68508   0.00000  Uiso   1.00
F1011  F     0.45845   0.37874   0.68511   0.00000  Uiso   1.00
F1012  F     0.53739   0.62125   0.81758   0.00000  Uiso   1.00
N1013  N     0.37660   0.44411   0.68864   0.00000  Uiso   1.00
H1014  H     0.36465   0.41177   0.68417   0.00000  Uiso   1.00
C1015  C     0.39156   0.46554   0.64813   0.00000  Uiso   1.00
H1016  H     0.36593   0.46801   0.62350   0.00000  Uiso   1.00
H1017  H     0.41624   0.44470   0.63329   0.00000  Uiso   1.00
H1018  H     0.40499   0.49983   0.65510   0.00000  Uiso   1.00
N1019  N     0.62557   0.56088   0.80667   0.00000  Uiso   1.00
H1020  H     0.63373   0.55875   0.83989   0.00000  Uiso   1.00
C1021  C     0.62674   0.60700   0.79008   0.00000  Uiso   1.00
H1022  H     0.65914   0.61876   0.78277   0.00000  Uiso   1.00
H1023  H     0.61388   0.63001   0.81552   0.00000  Uiso   1.00
H1024  H     0.60804   0.60951   0.75900   0.00000  Uiso   1.00
N1025  N     0.62067   0.45154   0.68297   0.00000  Uiso   1.00
H1026  H     0.63210   0.42124   0.67218   0.00000  Uiso   1.00
C1027  C     0.60702   0.48001   0.64669   0.00000  Uiso   1.00
H1028  H     0.63412   0.49569   0.62916   0.00000  Uiso   1.00
H1029  H     0.58715   0.50734   0.65927   0.00000  Uiso   1.00
H1030  H     0.58864   0.45933   0.62243   0.00000  Uiso   1.00
N1031  N     0.37960   0.54745   0.81653   0.00000  Uiso   1.00
H1032  H     0.36993   0.57898   0.82585   0.00000  Uiso   1.00
C1033  C     0.38812   0.51881   0.85446   0.00000  Uiso   1.00
H1034  H     0.35861   0.50908   0.87169   0.00000  Uiso   1.00
H1035  H     0.40879   0.53740   0.87833   0.00000  Uiso   1.00
H1036  H     0.40411   0.48779   0.84368   0.00000  Uiso   1.00
C1037  C     0.75347   0.49940   0.75013   0.00000  Uiso   1.00
C1038  C     0.91335   0.50069   0.74988   0.00000  Uiso   1.00
C1039  C     0.83246   0.49997   0.66385   0.00000  Uiso   1.00
C1040  C     0.83309   0.49998   0.83608   0.00000  Uiso   1.00
C1041  C     0.85330   0.35781   0.78291   0.00000  Uiso   1.00
C1042  C     0.81292   0.64218   0.71738   0.00000  Uiso   1.00
C1043  C     0.81281   0.35675   0.71746   0.00000  Uiso   1.00
C1044  C     0.85271   0.64325   0.78327   0.00000  Uiso   1.00
C1045  C     0.68764   0.47228   0.71849   0.00000  Uiso   1.00
C1046  C     0.97986   0.52988   0.77862   0.00000  Uiso   1.00
C1047  C     0.97766   0.47466   0.71683   0.00000  Uiso   1.00
C1048  C     0.68942   0.52553   0.78178   0.00000  Uiso   1.00
C1049  C     0.81240   0.53848   0.54777   0.00000  Uiso   1.00
C1050  C     0.80678   0.46354   0.95137   0.00000  Uiso   1.00
C1051  C     0.84174   0.53752   0.95393   0.00000  Uiso   1.00
C1052  C     0.83383   0.46017   0.54620   0.00000  Uiso   1.00
C1053  C     0.81618   0.53877   0.59369   0.00000  Uiso   1.00
C1054  C     0.81090   0.46303   0.90550   0.00000  Uiso   1.00
C1055  C     0.84522   0.53733   0.90802   0.00000  Uiso   1.00
C1056  C     0.83695   0.46022   0.59216   0.00000  Uiso   1.00
C1057  C     0.82894   0.49980   0.61590   0.00000  Uiso   1.00
C1058  C     0.83018   0.49990   0.88390   0.00000  Uiso   1.00
C1059  C     0.82196   0.49944   0.52393   0.00000  Uiso   1.00
C1060  C     0.82263   0.50056   0.97568   0.00000  Uiso   1.00
C1061  C     0.95768   0.50245   0.74790   0.00000  Uiso   1.00
C1062  C     0.70933   0.49822   0.75065   0.00000  Uiso   1.00
H1063  H     0.80258   0.56880   0.53083   0.00000  Uiso   1.00
H1064  H     0.79154   0.43504   0.96788   0.00000  Uiso   1.00
H1065  H     0.85487   0.56594   0.97249   0.00000  Uiso   1.00
H1066  H     0.84190   0.42996   0.52805   0.00000  Uiso   1.00
H1067  H     0.80899   0.56932   0.61171   0.00000  Uiso   1.00
H1068  H     0.79849   0.43426   0.88691   0.00000  Uiso   1.00
H1069  H     0.86030   0.56592   0.89150   0.00000  Uiso   1.00
H1070  H     0.84649   0.42970   0.60895   0.00000  Uiso   1.00
N1071  N     0.83333   0.61907   0.75000   0.00000  Uiso   1.00
N1072  N     0.83333   0.38093   0.75000   0.00000  Uiso   1.00
O1073  O     0.77226   0.53821   0.75000   0.00000  Uiso   1.00
O1074  O     0.89441   0.46179   0.75001   0.00000  Uiso   1.00
O1075  O     0.89441   0.53821   0.75001   0.00000  Uiso   1.00
O1076  O     0.77226   0.46179   0.75000   0.00000  Uiso   1.00
O1077  O     0.83333   0.53822   0.68453   0.00000  Uiso   1.00
O1078  O     0.83334   0.46178   0.81547   0.00000  Uiso   1.00
O1079  O     0.83334   0.53822   0.81547   0.00000  Uiso   1.00
O1080  O     0.83333   0.46178   0.68453   0.00000  Uiso   1.00
Zn1081 Zn    0.83333   0.55104   0.75000   0.00000  Uiso   1.00
Zn1082 Zn    0.83333   0.44896   0.75000   0.00000  Uiso   1.00
F1083  F     0.87367   0.38086   0.81578   0.00000  Uiso   1.00
F1084  F     0.79182   0.61908   0.68508   0.00000  Uiso   1.00
F1085  F     0.79179   0.37874   0.68511   0.00000  Uiso   1.00
F1086  F     0.87073   0.62125   0.81758   0.00000  Uiso   1.00
N1087  N     0.70993   0.44411   0.68864   0.00000  Uiso   1.00
H1088  H     0.69798   0.41177   0.68417   0.00000  Uiso   1.00
C1089  C     0.72489   0.46554   0.64813   0.00000  Uiso   1.00
H1090  H     0.69926   0.46801   0.62350   0.00000  Uiso   1.00
H1091  H     0.74957   0.44470   0.63329   0.00000  Uiso   1.00
H1092  H     0.73833   0.49983   0.65510   0.00000  Uiso   1.00
N1093  N     0.95890   0.56088   0.80667   0.00000  Uiso   1.00
H1094  H     0.96706   0.55875   0.83989   0.00000  Uiso   1.00
C1095  C     0.96007   0.60700   0.79008   0.00000  Uiso   1.00
H1096  H     0.99248   0.61876   0.78277   0.00000  Uiso   1.00
H1097  H     0.94721   0.63001   0.81552   0.00000  Uiso   1.00
H1098  H     0.94137   0.60951   0.75900   0.00000  Uiso   1.00
N1099  N     0.95401   0.45154   0.68297   0.00000  Uiso   1.00
H1100  H     0.96543   0.42124   0.67218   0.00000  Uiso   1.00
C1101  C     0.94036   0.48001   0.64669   0.00000  Uiso   1.00
H1102  H     0.96745   0.49569   0.62916   0.00000  Uiso   1.00
H1103  H     0.92049   0.50734   0.65927   0.00000  Uiso   1.00
H1104  H     0.92197   0.45933   0.62243   0.00000  Uiso   1.00
N1105  N     0.71294   0.54745   0.81653   0.00000  Uiso   1.00
H1106  H     0.70326   0.57898   0.82585   0.00000  Uiso   1.00
C1107  C     0.72146   0.51881   0.85446   0.00000  Uiso   1.00
H1108  H     0.69194   0.50908   0.87169   0.00000  Uiso   1.00
H1109  H     0.74212   0.53740   0.87833   0.00000  Uiso   1.00
H1110  H     0.73744   0.48779   0.84368   0.00000  Uiso   1.00
C1111  C     0.08680   0.83273   0.75013   0.00000  Uiso   1.00
C1112  C     0.24668   0.83402   0.74988   0.00000  Uiso   1.00
C1113  C     0.16580   0.83331   0.66385   0.00000  Uiso   1.00
C1114  C     0.16642   0.83331   0.83608   0.00000  Uiso   1.00
C1115  C     0.18663   0.69115   0.78291   0.00000  Uiso   1.00
C1116  C     0.14625   0.97551   0.71738   0.00000  Uiso   1.00
C1117  C     0.14614   0.69008   0.71746   0.00000  Uiso   1.00
C1118  C     0.18605   0.97659   0.78327   0.00000  Uiso   1.00
C1119  C     0.02097   0.80562   0.71849   0.00000  Uiso   1.00
C1120  C     0.31319   0.86321   0.77862   0.00000  Uiso   1.00
C1121  C     0.31099   0.80800   0.71683   0.00000  Uiso   1.00
C1122  C     0.02275   0.85887   0.78178   0.00000  Uiso   1.00
C1123  C     0.14573   0.87181   0.54777   0.00000  Uiso   1.00
C1124  C     0.14011   0.79687   0.95137   0.00000  Uiso   1.00
C1125  C     0.17507   0.87085   0.95393   0.00000  Uiso   1.00
C1126  C     0.16717   0.79350   0.54620   0.00000  Uiso   1.00
C1127  C     0.14952   0.87210   0.59369   0.00000  Uiso   1.00
C1128  C     0.14423   0.79636   0.90550   0.00000  Uiso   1.00
C1129  C     0.17856   0.87066   0.90802   0.00000  Uiso   1.00
C1130  C     0.17028   0.79356   0.59216   0.00000  Uiso   1.00
C1131  C     0.16227   0.83313   0.61590   0.00000  Uiso   1.00
C1132  C     0.16352   0.83323   0.88390   0.00000  Uiso   1.00
C1133  C     0.15529   0.83277   0.52393   0.00000  Uiso   1.00
C1134  C     0.15597   0.83389   0.97568   0.00000  Uiso   1.00
C1135  C     0.29102   0.83579   0.74790   0.00000  Uiso   1.00
C1136  C     0.04266   0.83156   0.75065   0.00000  Uiso   1.00
H1137  H     0.13591   0.90214   0.53083   0.00000  Uiso   1.00
H1138  H     0.12487   0.76837   0.96788   0.00000  Uiso   1.00
H1139  H     0.18820   0.89927   0.97249   0.00000  Uiso   1.00
H1140  H     0.17524   0.76329   0.52805   0.00000  Uiso   1.00
H1141  H     0.14232   0.90265   0.61171   0.00000  Uiso   1.00
H1142  H     0.13182   0.76759   0.88691   0.00000  Uiso   1.00
H1143  H     0.19364   0.89925   0.89150   0.00000  Uiso   1.00
H1144  H     0.17982   0.76304   0.60895   0.00000  Uiso   1.00
N1145  N     0.16667   0.95240   0.75000   0.00000  Uiso   1.00
N1146  N     0.16667   0.71427   0.75000   0.00000  Uiso   1.00
O1147  O     0.10559   0.87154   0.75000   0.00000  Uiso   1.00
O1148  O     0.22774   0.79513   0.75001   0.00000  Uiso   1.00
O1149  O     0.22774   0.87154   0.75001   0.00000  Uiso   1.00
O1150  O     0.10559   0.79513   0.75000   0.00000  Uiso   1.00
O1151  O     0.16666   0.87155   0.68453   0.00000  Uiso   1.00
O1152  O     0.16667   0.79511   0.81547   0.00000  Uiso   1.00
O1153  O     0.16667   0.87155   0.81547   0.00000  Uiso   1.00
O1154  O     0.16666   0.79511   0.68453   0.00000  Uiso   1.00
Zn1155 Zn    0.16667   0.88437   0.75000   0.00000  Uiso   1.00
Zn1156 Zn    0.16667   0.78229   0.75000   0.00000  Uiso   1.00
F1157  F     0.20700   0.71420   0.81578   0.00000  Uiso   1.00
F1158  F     0.12516   0.95242   0.68508   0.00000  Uiso   1.00
F1159  F     0.12512   0.71207   0.68511   0.00000  Uiso   1.00
F1160  F     0.20406   0.95458   0.81758   0.00000  Uiso   1.00
N1161  N     0.04326   0.77745   0.68864   0.00000  Uiso   1.00
H1162  H     0.03132   0.74510   0.68417   0.00000  Uiso   1.00
C1163  C     0.05823   0.79888   0.64813   0.00000  Uiso   1.00
H1164  H     0.03259   0.80134   0.62350   0.00000  Uiso   1.00
H1165  H     0.08290   0.77804   0.63329   0.00000  Uiso   1.00
H1166  H     0.07166   0.83316   0.65510   0.00000  Uiso   1.00
N1167  N     0.29223   0.89421   0.80667   0.00000  Uiso   1.00
H1168  H     0.30040   0.89208   0.83989   0.00000  Uiso   1.00
C1169  C     0.29340   0.94033   0.79008   0.00000  Uiso   1.00
H1170  H     0.32581   0.95210   0.78277   0.00000  Uiso   1.00
H1171  H     0.28055   0.96334   0.81552   0.00000  Uiso   1.00
H1172  H     0.27471   0.94284   0.75900   0.00000  Uiso   1.00
N1173  N     0.28734   0.78487   0.68297   0.00000  Uiso   1.00
H1174  H     0.29877   0.75457   0.67218   0.00000  Uiso   1.00
C1175  C     0.27369   0.81334   0.64669   0.00000  Uiso   1.00
H1176  H     0.30078   0.82902   0.62916   0.00000  Uiso   1.00
H1177  H     0.25382   0.84067   0.65927   0.00000  Uiso   1.00
H1178  H     0.25531   0.79266   0.62243   0.00000  Uiso   1.00
N1179  N     0.04627   0.88079   0.81653   0.00000  Uiso   1.00
H1180  H     0.03659   0.91232   0.82585   0.00000  Uiso   1.00
C1181  C     0.05479   0.85215   0.85446   0.00000  Uiso   1.00
H1182  H     0.02528   0.84241   0.87169   0.00000  Uiso   1.00
H1183  H     0.07546   0.87074   0.87833   0.00000  Uiso   1.00
H1184  H     0.07077   0.82112   0.84368   0.00000  Uiso   1.00
C1185  C     0.42013   0.83273   0.75013   0.00000  Uiso   1.00
C1186  C     0.58001   0.83402   0.74988   0.00000  Uiso   1.00
C1187  C     0.49913   0.83331   0.66385   0.00000  Uiso   1.00
C1188  C     0.49976   0.83331   0.83608   0.00000  Uiso   1.00
C1189  C     0.51996   0.69115   0.78291   0.00000  Uiso   1.00
C1190  C     0.47959   0.97551   0.71738   0.00000  Uiso   1.00
C1191  C     0.47947   0.69008   0.71746   0.00000  Uiso   1.00
C1192  C     0.51938   0.97659   0.78327   0.00000  Uiso   1.00
C1193  C     0.35431   0.80562   0.71849   0.00000  Uiso   1.00
C1194  C     0.64653   0.86321   0.77862   0.00000  Uiso   1.00
C1195  C     0.64433   0.80800   0.71683   0.00000  Uiso   1.00
C1196  C     0.35608   0.85887   0.78178   0.00000  Uiso   1.00
C1197  C     0.47906   0.87181   0.54777   0.00000  Uiso   1.00
C1198  C     0.47345   0.79687   0.95137   0.00000  Uiso   1.00
C1199  C     0.50840   0.87085   0.95393   0.00000  Uiso   1.00
C1200  C     0.50050   0.79350   0.54620   0.00000  Uiso   1.00
C1201  C     0.48285   0.87210   0.59369   0.00000  Uiso   1.00
C1202  C     0.47756   0.79636   0.90550   0.00000  Uiso   1.00
C1203  C     0.51189   0.87066   0.90802   0.00000  Uiso   1.00
C1204  C     0.50362   0.79356   0.59216   0.00000  Uiso   1.00
C1205  C     0.49561   0.83313   0.61590   0.00000  Uiso   1.00
C1206  C     0.49685   0.83323   0.88390   0.00000  Uiso   1.00
C1207  C     0.48863   0.83277   0.52393   0.00000  Uiso   1.00
C1208  C     0.48930   0.83389   0.97568   0.00000  Uiso   1.00
C1209  C     0.62435   0.83579   0.74790   0.00000  Uiso   1.00
C1210  C     0.37600   0.83156   0.75065   0.00000  Uiso   1.00
H1211  H     0.46925   0.90214   0.53083   0.00000  Uiso   1.00
H1212  H     0.45820   0.76837   0.96788   0.00000  Uiso   1.00
H1213  H     0.52153   0.89927   0.97249   0.00000  Uiso   1.00
H1214  H     0.50857   0.76329   0.52805   0.00000  Uiso   1.00
H1215  H     0.47565   0.90265   0.61171   0.00000  Uiso   1.00
H1216  H     0.46515   0.76759   0.88691   0.00000  Uiso   1.00
H1217  H     0.52697   0.89925   0.89150   0.00000  Uiso   1.00
H1218  H     0.51316   0.76304   0.60895   0.00000  Uiso   1.00
N1219  N     0.50000   0.95240   0.75000   0.00000  Uiso   1.00
N1220  N     0.50000   0.71427   0.75000   0.00000  Uiso   1.00
O1221  O     0.43892   0.87154   0.75000   0.00000  Uiso   1.00
O1222  O     0.56108   0.79513   0.75001   0.00000  Uiso   1.00
O1223  O     0.56108   0.87154   0.75001   0.00000  Uiso   1.00
O1224  O     0.43892   0.79513   0.75000   0.00000  Uiso   1.00
O1225  O     0.50000   0.87155   0.68453   0.00000  Uiso   1.00
O1226  O     0.50000   0.79511   0.81547   0.00000  Uiso   1.00
O1227  O     0.50000   0.87155   0.81547   0.00000  Uiso   1.00
O1228  O     0.50000   0.79511   0.68453   0.00000  Uiso   1.00
Zn1229 Zn    0.50000   0.88437   0.75000   0.00000  Uiso   1.00
Zn1230 Zn    0.50000   0.78229   0.75000   0.00000  Uiso   1.00
F1231  F     0.54033   0.71420   0.81578   0.00000  Uiso   1.00
F1232  F     0.45849   0.95242   0.68508   0.00000  Uiso   1.00
F1233  F     0.45845   0.71207   0.68511   0.00000  Uiso   1.00
F1234  F     0.53739   0.95458   0.81758   0.00000  Uiso   1.00
N1235  N     0.37660   0.77745   0.68864   0.00000  Uiso   1.00
H1236  H     0.36465   0.74510   0.68417   0.00000  Uiso   1.00
C1237  C     0.39156   0.79888   0.64813   0.00000  Uiso   1.00
H1238  H     0.36593   0.80134   0.62350   0.00000  Uiso   1.00
H1239  H     0.41624   0.77804   0.63329   0.00000  Uiso   1.00
H1240  H     0.40499   0.83316   0.65510   0.00000  Uiso   1.00
N1241  N     0.62557   0.89421   0.80667   0.00000  Uiso   1.00
H1242  H     0.63373   0.89208   0.83989   0.00000  Uiso   1.00
C1243  C     0.62674   0.94033   0.79008   0.00000  Uiso   1.00
H1244  H     0.65914   0.95210   0.78277   0.00000  Uiso   1.00
H1245  H     0.61388   0.96334   0.81552   0.00000  Uiso   1.00
H1246  H     0.60804   0.94284   0.75900   0.00000  Uiso   1.00
N1247  N     0.62067   0.78487   0.68297   0.00000  Uiso   1.00
H1248  H     0.63210   0.75457   0.67218   0.00000  Uiso   1.00
C1249  C     0.60702   0.81334   0.64669   0.00000  Uiso   1.00
H1250  H     0.63412   0.82902   0.62916   0.00000  Uiso   1.00
H1251  H     0.58715   0.84067   0.65927   0.00000  Uiso   1.00
H1252  H     0.58864   0.79266   0.62243   0.00000  Uiso   1.00
N1253  N     0.37960   0.88079   0.81653   0.00000  Uiso   1.00
H1254  H     0.36993   0.91232   0.82585   0.00000  Uiso   1.00
C1255  C     0.38812   0.85215   0.85446   0.00000  Uiso   1.00
H1256  H     0.35861   0.84241   0.87169   0.00000  Uiso   1.00
H1257  H     0.40879   0.87074   0.87833   0.00000  Uiso   1.00
H1258  H     0.40411   0.82112   0.84368   0.00000  Uiso   1.00
C1259  C     0.75347   0.83273   0.75013   0.00000  Uiso   1.00
C1260  C     0.91335   0.83402   0.74988   0.00000  Uiso   1.00
C1261  C     0.83246   0.83331   0.66385   0.00000  Uiso   1.00
C1262  C     0.83309   0.83331   0.83608   0.00000  Uiso   1.00
C1263  C     0.85330   0.69115   0.78291   0.00000  Uiso   1.00
C1264  C     0.81292   0.97551   0.71738   0.00000  Uiso   1.00
C1265  C     0.81281   0.69008   0.71746   0.00000  Uiso   1.00
C1266  C     0.85271   0.97659   0.78327   0.00000  Uiso   1.00
C1267  C     0.68764   0.80562   0.71849   0.00000  Uiso   1.00
C1268  C     0.97986   0.86321   0.77862   0.00000  Uiso   1.00
C1269  C     0.97766   0.80800   0.71683   0.00000  Uiso   1.00
C1270  C     0.68942   0.85887   0.78178   0.00000  Uiso   1.00
C1271  C     0.81240   0.87181   0.54777   0.00000  Uiso   1.00
C1272  C     0.80678   0.79687   0.95137   0.00000  Uiso   1.00
C1273  C     0.84174   0.87085   0.95393   0.00000  Uiso   1.00
C1274  C     0.83383   0.79350   0.54620   0.00000  Uiso   1.00
C1275  C     0.81618   0.87210   0.59369   0.00000  Uiso   1.00
C1276  C     0.81090   0.79636   0.90550   0.00000  Uiso   1.00
C1277  C     0.84522   0.87066   0.90802   0.00000  Uiso   1.00
C1278  C     0.83695   0.79356   0.59216   0.00000  Uiso   1.00
C1279  C     0.82894   0.83313   0.61590   0.00000  Uiso   1.00
C1280  C     0.83018   0.83323   0.88390   0.00000  Uiso   1.00
C1281  C     0.82196   0.83277   0.52393   0.00000  Uiso   1.00
C1282  C     0.82263   0.83389   0.97568   0.00000  Uiso   1.00
C1283  C     0.95768   0.83579   0.74790   0.00000  Uiso   1.00
C1284  C     0.70933   0.83156   0.75065   0.00000  Uiso   1.00
H1285  H     0.80258   0.90214   0.53083   0.00000  Uiso   1.00
H1286  H     0.79154   0.76837   0.96788   0.00000  Uiso   1.00
H1287  H     0.85487   0.89927   0.97249   0.00000  Uiso   1.00
H1288  H     0.84190   0.76329   0.52805   0.00000  Uiso   1.00
H1289  H     0.80899   0.90265   0.61171   0.00000  Uiso   1.00
H1290  H     0.79849   0.76759   0.88691   0.00000  Uiso   1.00
H1291  H     0.86030   0.89925   0.89150   0.00000  Uiso   1.00
H1292  H     0.84649   0.76304   0.60895   0.00000  Uiso   1.00
N1293  N     0.83333   0.95240   0.75000   0.00000  Uiso   1.00
N1294  N     0.83333   0.71427   0.75000   0.00000  Uiso   1.00
O1295  O     0.77226   0.87154   0.75000   0.00000  Uiso   1.00
O1296  O     0.89441   0.79513   0.75001   0.00000  Uiso   1.00
O1297  O     0.89441   0.87154   0.75001   0.00000  Uiso   1.00
O1298  O     0.77226   0.79513   0.75000   0.00000  Uiso   1.00
O1299  O     0.83333   0.87155   0.68453   0.00000  Uiso   1.00
O1300  O     0.83334   0.79511   0.81547   0.00000  Uiso   1.00
O1301  O     0.83334   0.87155   0.81547   0.00000  Uiso   1.00
O1302  O     0.83333   0.79511   0.68453   0.00000  Uiso   1.00
Zn1303 Zn    0.83333   0.88437   0.75000   0.00000  Uiso   1.00
Zn1304 Zn    0.83333   0.78229   0.75000   0.00000  Uiso   1.00
F1305  F     0.87367   0.71420   0.81578   0.00000  Uiso   1.00
F1306  F     0.79182   0.95242   0.68508   0.00000  Uiso   1.00
F1307  F     0.79179   0.71207   0.68511   0.00000  Uiso   1.00
F1308  F     0.87073   0.95458   0.81758   0.00000  Uiso   1.00
N1309  N     0.70993   0.77745   0.68864   0.00000  Uiso   1.00
H1310  H     0.69798   0.74510   0.68417   0.00000  Uiso   1.00
C1311  C     0.72489   0.79888   0.64813   0.00000  Uiso   1.00
H1312  H     0.69926   0.80134   0.62350   0.00000  Uiso   1.00
H1313  H     0.74957   0.77804   0.63329   0.00000  Uiso   1.00
H1314  H     0.73833   0.83316   0.65510   0.00000  Uiso   1.00
N1315  N     0.95890   0.89421   0.80667   0.00000  Uiso   1.00
H1316  H     0.96706   0.89208   0.83989   0.00000  Uiso   1.00
C1317  C     0.96007   0.94033   0.79008   0.00000  Uiso   1.00
H1318  H     0.99248   0.95210   0.78277   0.00000  Uiso   1.00
H1319  H     0.94721   0.96334   0.81552   0.00000  Uiso   1.00
H1320  H     0.94137   0.94284   0.75900   0.00000  Uiso   1.00
N1321  N     0.95401   0.78487   0.68297   0.00000  Uiso   1.00
H1322  H     0.96543   0.75457   0.67218   0.00000  Uiso   1.00
C1323  C     0.94036   0.81334   0.64669   0.00000  Uiso   1.00
H1324  H     0.96745   0.82902   0.62916   0.00000  Uiso   1.00
H1325  H     0.92049   0.84067   0.65927   0.00000  Uiso   1.00
H1326  H     0.92197   0.79266   0.62243   0.00000  Uiso   1.00
N1327  N     0.71294   0.88079   0.81653   0.00000  Uiso   1.00
H1328  H     0.70326   0.91232   0.82585   0.00000  Uiso   1.00
C1329  C     0.72146   0.85215   0.85446   0.00000  Uiso   1.00
H1330  H     0.69194   0.84241   0.87169   0.00000  Uiso   1.00
H1331  H     0.74212   0.87074   0.87833   0.00000  Uiso   1.00
H1332  H     0.73744   0.82112   0.84368   0.00000  Uiso   1.00
loop_
_geom_bond_atom_site_label_1
_geom_bond_atom_site_label_2
_geom_bond_distance
_geom_bond_site_symmetry_2
_ccdc_geom_bond_type
C1     O37     1.282   .     A
C1     O40     1.278   .     A
C1     C26     1.416   .     S
C2     O38     1.287   .     A
C2     C25     1.423   .     S
C2     O39     1.278   .     A
C3     O44     1.289   .     A
C3     C21     1.441   .     S
C3     O41     1.289   .     A
C4     O43     1.288   .     A
C4     C22     1.436   .     S
C4     O42     1.288   .     A
C5     F47     1.355   .     S
C5     N36     1.367   .     A
C5     C452    1.416   1_545 S
C6     N35     1.367   .     A
C6     F48     1.355   .     S
C6     C229    1.416   .     S
C7     N36     1.367   .     A
C7     F49     1.355   .     S
C7     C450    1.416   1_545 S
C8     F50     1.353   .     S
C8     N35     1.366   .     A
C8     C227    1.416   .     S
C9     N51     1.428   .     S
C9     C26     1.404   .     A
C9     C159    1.394   1_455 S
C10    C25     1.407   .     A
C10    N57     1.426   .     S
C10    C86     1.388   .     S
C11    N63     1.429   .     S
C11    C25     1.408   .     A
C11    C83     1.394   .     S
C12    N69     1.430   .     S
C12    C26     1.400   .     A
C12    C158    1.388   1_455 S
C13    C17     1.381   .     A
C13    C23     1.399   .     A
C13    H27     1.083   .     S
C14    C24     1.399   .     A
C14    C18     1.381   .     A
C14    H28     1.083   .     S
C15    C24     1.401   .     A
C15    C19     1.380   .     A
C15    H29     1.083   .     S
C16    C23     1.400   .     A
C16    C20     1.380   .     A
C16    H30     1.083   .     S
C17    H31     1.083   .     S
C17    C21     1.400   .     A
C18    H32     1.084   .     S
C18    C22     1.399   .     A
C19    C22     1.397   .     A
C19    H33     1.083   .     S
C20    H34     1.083   .     S
C20    C21     1.399   .     A
C23    C690    1.446   1_554 S
C24    C689    1.446   .     S
N35    Zn45    2.011   .     S
N36    Zn46    2.011   .     S
O37    Zn45    1.986   .     S
O38    Zn46    1.986   .     S
O39    Zn45    2.005   .     S
O40    Zn46    2.005   .     S
O41    Zn45    1.998   .     S
O42    Zn46    1.998   .     S
O43    Zn45    1.998   .     S
O44    Zn46    1.998   .     S
N51    H52     1.030   .     S
N51    C53     1.446   .     S
C53    H55     1.109   .     S
C53    H54     1.107   .     S
C53    H56     1.111   .     S
N57    H58     1.031   .     S
N57    C59     1.451   .     S
C59    H61     1.109   .     S
C59    H60     1.110   .     S
C59    H62     1.110   .     S
N63    C65     1.448   .     S
N63    H64     1.029   .     S
C65    H68     1.109   .     S
C65    H66     1.108   .     S
C65    H67     1.109   .     S
N69    C71     1.446   .     S
N69    H70     1.029   .     S
C71    H74     1.111   .     S
C71    H72     1.111   .     S
C71    H73     1.110   .     S
C75    O111    1.282   .     A
C75    O114    1.278   .     A
C75    C100    1.416   .     S
C76    O112    1.287   .     A
C76    C99     1.423   .     S
C76    O113    1.278   .     A
C77    O118    1.289   .     A
C77    C95     1.441   .     S
C77    O115    1.289   .     A
C78    O117    1.288   .     A
C78    C96     1.436   .     S
C78    O116    1.288   .     A
C79    F121    1.355   .     S
C79    N110    1.367   .     A
C79    C526    1.416   1_545 S
C80    N109    1.367   .     A
C80    F122    1.355   .     S
C80    C303    1.416   .     S
C81    N110    1.367   .     A
C81    F123    1.355   .     S
C81    C524    1.416   1_545 S
C82    F124    1.353   .     S
C82    N109    1.366   .     A
C82    C301    1.416   .     S
C83    N125    1.428   .     S
C83    C100    1.404   .     A
C84    C99     1.407   .     A
C84    N131    1.426   .     S
C84    C160    1.388   .     S
C85    N137    1.429   .     S
C85    C99     1.408   .     A
C85    C157    1.394   .     S
C86    N143    1.430   .     S
C86    C100    1.400   .     A
C87    C91     1.381   .     A
C87    C97     1.399   .     A
C87    H101    1.083   .     S
C88    C98     1.399   .     A
C88    C92     1.381   .     A
C88    H102    1.083   .     S
C89    C98     1.401   .     A
C89    C93     1.380   .     A
C89    H103    1.083   .     S
C90    C97     1.400   .     A
C90    C94     1.380   .     A
C90    H104    1.083   .     S
C91    H105    1.083   .     S
C91    C95     1.400   .     A
C92    H106    1.084   .     S
C92    C96     1.399   .     A
C93    C96     1.397   .     A
C93    H107    1.083   .     S
C94    H108    1.083   .     S
C94    C95     1.399   .     A
C97    C764    1.446   1_554 S
C98    C763    1.446   .     S
N109   Zn119   2.011   .     S
N110   Zn120   2.011   .     S
O111   Zn119   1.986   .     S
O112   Zn120   1.986   .     S
O113   Zn119   2.005   .     S
O114   Zn120   2.005   .     S
O115   Zn119   1.998   .     S
O116   Zn120   1.998   .     S
O117   Zn119   1.998   .     S
O118   Zn120   1.998   .     S
N125   H126    1.030   .     S
N125   C127    1.446   .     S
C127   H129    1.109   .     S
C127   H128    1.107   .     S
C127   H130    1.111   .     S
N131   H132    1.031   .     S
N131   C133    1.451   .     S
C133   H135    1.109   .     S
C133   H134    1.110   .     S
C133   H136    1.110   .     S
N137   C139    1.448   .     S
N137   H138    1.029   .     S
C139   H142    1.109   .     S
C139   H140    1.108   .     S
C139   H141    1.109   .     S
N143   C145    1.446   .     S
N143   H144    1.029   .     S
C145   H148    1.111   .     S
C145   H146    1.111   .     S
C145   H147    1.110   .     S
C149   O185    1.282   .     A
C149   O188    1.278   .     A
C149   C174    1.416   .     S
C150   O186    1.287   .     A
C150   C173    1.423   .     S
C150   O187    1.278   .     A
C151   O192    1.289   .     A
C151   C169    1.441   .     S
C151   O189    1.289   .     A
C152   O191    1.288   .     A
C152   C170    1.436   .     S
C152   O190    1.288   .     A
C153   F195    1.355   .     S
C153   N184    1.367   .     A
C153   C600    1.416   1_545 S
C154   N183    1.367   .     A
C154   F196    1.355   .     S
C154   C377    1.416   .     S
C155   N184    1.367   .     A
C155   F197    1.355   .     S
C155   C598    1.416   1_545 S
C156   F198    1.353   .     S
C156   N183    1.366   .     A
C156   C375    1.416   .     S
C157   N199    1.428   .     S
C157   C174    1.404   .     A
C158   C173    1.407   .     A
C158   N205    1.426   .     S
C158   C12     1.388   1_655 S
C159   N211    1.429   .     S
C159   C173    1.408   .     A
C159   C9      1.394   1_655 S
C160   N217    1.430   .     S
C160   C174    1.400   .     A
C161   C165    1.381   .     A
C161   C171    1.399   .     A
C161   H175    1.083   .     S
C162   C172    1.399   .     A
C162   C166    1.381   .     A
C162   H176    1.083   .     S
C163   C172    1.401   .     A
C163   C167    1.380   .     A
C163   H177    1.083   .     S
C164   C171    1.400   .     A
C164   C168    1.380   .     A
C164   H178    1.083   .     S
C165   H179    1.083   .     S
C165   C169    1.400   .     A
C166   H180    1.084   .     S
C166   C170    1.399   .     A
C167   C170    1.397   .     A
C167   H181    1.083   .     S
C168   H182    1.083   .     S
C168   C169    1.399   .     A
C171   C838    1.446   1_554 S
C172   C837    1.446   .     S
N183   Zn193   2.011   .     S
N184   Zn194   2.011   .     S
O185   Zn193   1.986   .     S
O186   Zn194   1.986   .     S
O187   Zn193   2.005   .     S
O188   Zn194   2.005   .     S
O189   Zn193   1.998   .     S
O190   Zn194   1.998   .     S
O191   Zn193   1.998   .     S
O192   Zn194   1.998   .     S
N199   H200    1.030   .     S
N199   C201    1.446   .     S
C201   H203    1.109   .     S
C201   H202    1.107   .     S
C201   H204    1.111   .     S
N205   H206    1.031   .     S
N205   C207    1.451   .     S
C207   H209    1.109   .     S
C207   H208    1.110   .     S
C207   H210    1.110   .     S
N211   C213    1.448   .     S
N211   H212    1.029   .     S
C213   H216    1.109   .     S
C213   H214    1.108   .     S
C213   H215    1.109   .     S
N217   C219    1.446   .     S
N217   H218    1.029   .     S
C219   H222    1.111   .     S
C219   H220    1.111   .     S
C219   H221    1.110   .     S
C223   O259    1.282   .     A
C223   O262    1.278   .     A
C223   C248    1.416   .     S
C224   O260    1.287   .     A
C224   C247    1.423   .     S
C224   O261    1.278   .     A
C225   O266    1.289   .     A
C225   C243    1.441   .     S
C225   O263    1.289   .     A
C226   O265    1.288   .     A
C226   C244    1.436   .     S
C226   O264    1.288   .     A
C227   F269    1.355   .     S
C227   N258    1.367   .     A
C228   N257    1.367   .     A
C228   F270    1.355   .     S
C228   C451    1.416   .     S
C229   N258    1.367   .     A
C229   F271    1.355   .     S
C230   F272    1.353   .     S
C230   N257    1.366   .     A
C230   C449    1.416   .     S
C231   N273    1.428   .     S
C231   C248    1.404   .     A
C231   C381    1.394   1_455 S
C232   C247    1.407   .     A
C232   N279    1.426   .     S
C232   C308    1.388   .     S
C233   N285    1.429   .     S
C233   C247    1.408   .     A
C233   C305    1.394   .     S
C234   N291    1.430   .     S
C234   C248    1.400   .     A
C234   C380    1.388   1_455 S
C235   C239    1.381   .     A
C235   C245    1.399   .     A
C235   H249    1.083   .     S
C236   C246    1.399   .     A
C236   C240    1.381   .     A
C236   H250    1.083   .     S
C237   C246    1.401   .     A
C237   C241    1.380   .     A
C237   H251    1.083   .     S
C238   C245    1.400   .     A
C238   C242    1.380   .     A
C238   H252    1.083   .     S
C239   H253    1.083   .     S
C239   C243    1.400   .     A
C240   H254    1.084   .     S
C240   C244    1.399   .     A
C241   C244    1.397   .     A
C241   H255    1.083   .     S
C242   H256    1.083   .     S
C242   C243    1.399   .     A
C245   C912    1.446   1_554 S
C246   C911    1.446   .     S
N257   Zn267   2.011   .     S
N258   Zn268   2.011   .     S
O259   Zn267   1.986   .     S
O260   Zn268   1.986   .     S
O261   Zn267   2.005   .     S
O262   Zn268   2.005   .     S
O263   Zn267   1.998   .     S
O264   Zn268   1.998   .     S
O265   Zn267   1.998   .     S
O266   Zn268   1.998   .     S
N273   H274    1.030   .     S
N273   C275    1.446   .     S
C275   H277    1.109   .     S
C275   H276    1.107   .     S
C275   H278    1.111   .     S
N279   H280    1.031   .     S
N279   C281    1.451   .     S
C281   H283    1.109   .     S
C281   H282    1.110   .     S
C281   H284    1.110   .     S
N285   C287    1.448   .     S
N285   H286    1.029   .     S
C287   H290    1.109   .     S
C287   H288    1.108   .     S
C287   H289    1.109   .     S
N291   C293    1.446   .     S
N291   H292    1.029   .     S
C293   H296    1.111   .     S
C293   H294    1.111   .     S
C293   H295    1.110   .     S
C297   O333    1.282   .     A
C297   O336    1.278   .     A
C297   C322    1.416   .     S
C298   O334    1.287   .     A
C298   C321    1.423   .     S
C298   O335    1.278   .     A
C299   O340    1.289   .     A
C299   C317    1.441   .     S
C299   O337    1.289   .     A
C300   O339    1.288   .     A
C300   C318    1.436   .     S
C300   O338    1.288   .     A
C301   F343    1.355   .     S
C301   N332    1.367   .     A
C302   N331    1.367   .     A
C302   F344    1.355   .     S
C302   C525    1.416   .     S
C303   N332    1.367   .     A
C303   F345    1.355   .     S
C304   F346    1.353   .     S
C304   N331    1.366   .     A
C304   C523    1.416   .     S
C305   N347    1.428   .     S
C305   C322    1.404   .     A
C306   C321    1.407   .     A
C306   N353    1.426   .     S
C306   C382    1.388   .     S
C307   N359    1.429   .     S
C307   C321    1.408   .     A
C307   C379    1.394   .     S
C308   N365    1.430   .     S
C308   C322    1.400   .     A
C309   C313    1.381   .     A
C309   C319    1.399   .     A
C309   H323    1.083   .     S
C310   C320    1.399   .     A
C310   C314    1.381   .     A
C310   H324    1.083   .     S
C311   C320    1.401   .     A
C311   C315    1.380   .     A
C311   H325    1.083   .     S
C312   C319    1.400   .     A
C312   C316    1.380   .     A
C312   H326    1.083   .     S
C313   H327    1.083   .     S
C313   C317    1.400   .     A
C314   H328    1.084   .     S
C314   C318    1.399   .     A
C315   C318    1.397   .     A
C315   H329    1.083   .     S
C316   H330    1.083   .     S
C316   C317    1.399   .     A
C319   C986    1.446   1_554 S
C320   C985    1.446   .     S
N331   Zn341   2.011   .     S
N332   Zn342   2.011   .     S
O333   Zn341   1.986   .     S
O334   Zn342   1.986   .     S
O335   Zn341   2.005   .     S
O336   Zn342   2.005   .     S
O337   Zn341   1.998   .     S
O338   Zn342   1.998   .     S
O339   Zn341   1.998   .     S
O340   Zn342   1.998   .     S
N347   H348    1.030   .     S
N347   C349    1.446   .     S
C349   H351    1.109   .     S
C349   H350    1.107   .     S
C349   H352    1.111   .     S
N353   H354    1.031   .     S
N353   C355    1.451   .     S
C355   H357    1.109   .     S
C355   H356    1.110   .     S
C355   H358    1.110   .     S
N359   C361    1.448   .     S
N359   H360    1.029   .     S
C361   H364    1.109   .     S
C361   H362    1.108   .     S
C361   H363    1.109   .     S
N365   C367    1.446   .     S
N365   H366    1.029   .     S
C367   H370    1.111   .     S
C367   H368    1.111   .     S
C367   H369    1.110   .     S
C371   O407    1.282   .     A
C371   O410    1.278   .     A
C371   C396    1.416   .     S
C372   O408    1.287   .     A
C372   C395    1.423   .     S
C372   O409    1.278   .     A
C373   O414    1.289   .     A
C373   C391    1.441   .     S
C373   O411    1.289   .     A
C374   O413    1.288   .     A
C374   C392    1.436   .     S
C374   O412    1.288   .     A
C375   F417    1.355   .     S
C375   N406    1.367   .     A
C376   N405    1.367   .     A
C376   F418    1.355   .     S
C376   C599    1.416   .     S
C377   N406    1.367   .     A
C377   F419    1.355   .     S
C378   F420    1.353   .     S
C378   N405    1.366   .     A
C378   C597    1.416   .     S
C379   N421    1.428   .     S
C379   C396    1.404   .     A
C380   C395    1.407   .     A
C380   N427    1.426   .     S
C380   C234    1.388   1_655 S
C381   N433    1.429   .     S
C381   C395    1.408   .     A
C381   C231    1.394   1_655 S
C382   N439    1.430   .     S
C382   C396    1.400   .     A
C383   C387    1.381   .     A
C383   C393    1.399   .     A
C383   H397    1.083   .     S
C384   C394    1.399   .     A
C384   C388    1.381   .     A
C384   H398    1.083   .     S
C385   C394    1.401   .     A
C385   C389    1.380   .     A
C385   H399    1.083   .     S
C386   C393    1.400   .     A
C386   C390    1.380   .     A
C386   H400    1.083   .     S
C387   H401    1.083   .     S
C387   C391    1.400   .     A
C388   H402    1.084   .     S
C388   C392    1.399   .     A
C389   C392    1.397   .     A
C389   H403    1.083   .     S
C390   H404    1.083   .     S
C390   C391    1.399   .     A
C393   C1060   1.446   1_554 S
C394   C1059   1.446   .     S
N405   Zn415   2.011   .     S
N406   Zn416   2.011   .     S
O407   Zn415   1.986   .     S
O408   Zn416   1.986   .     S
O409   Zn415   2.005   .     S
O410   Zn416   2.005   .     S
O411   Zn415   1.998   .     S
O412   Zn416   1.998   .     S
O413   Zn415   1.998   .     S
O414   Zn416   1.998   .     S
N421   H422    1.030   .     S
N421   C423    1.446   .     S
C423   H425    1.109   .     S
C423   H424    1.107   .     S
C423   H426    1.111   .     S
N427   H428    1.031   .     S
N427   C429    1.451   .     S
C429   H431    1.109   .     S
C429   H430    1.110   .     S
C429   H432    1.110   .     S
N433   C435    1.448   .     S
N433   H434    1.029   .     S
C435   H438    1.109   .     S
C435   H436    1.108   .     S
C435   H437    1.109   .     S
N439   C441    1.446   .     S
N439   H440    1.029   .     S
C441   H444    1.111   .     S
C441   H442    1.111   .     S
C441   H443    1.110   .     S
C445   O481    1.282   .     A
C445   O484    1.278   .     A
C445   C470    1.416   .     S
C446   O482    1.287   .     A
C446   C469    1.423   .     S
C446   O483    1.278   .     A
C447   O488    1.289   .     A
C447   C465    1.441   .     S
C447   O485    1.289   .     A
C448   O487    1.288   .     A
C448   C466    1.436   .     S
C448   O486    1.288   .     A
C449   F491    1.355   .     S
C449   N480    1.367   .     A
C450   N479    1.367   .     A
C450   F492    1.355   .     S
C450   C7      1.416   1_565 S
C451   N480    1.367   .     A
C451   F493    1.355   .     S
C452   F494    1.353   .     S
C452   N479    1.366   .     A
C452   C5      1.416   1_565 S
C453   N495    1.428   .     S
C453   C470    1.404   .     A
C453   C603    1.394   1_455 S
C454   C469    1.407   .     A
C454   N501    1.426   .     S
C454   C530    1.388   .     S
C455   N507    1.429   .     S
C455   C469    1.408   .     A
C455   C527    1.394   .     S
C456   N513    1.430   .     S
C456   C470    1.400   .     A
C456   C602    1.388   1_455 S
C457   C461    1.381   .     A
C457   C467    1.399   .     A
C457   H471    1.083   .     S
C458   C468    1.399   .     A
C458   C462    1.381   .     A
C458   H472    1.083   .     S
C459   C468    1.401   .     A
C459   C463    1.380   .     A
C459   H473    1.083   .     S
C460   C467    1.400   .     A
C460   C464    1.380   .     A
C460   H474    1.083   .     S
C461   H475    1.083   .     S
C461   C465    1.400   .     A
C462   H476    1.084   .     S
C462   C466    1.399   .     A
C463   C466    1.397   .     A
C463   H477    1.083   .     S
C464   H478    1.083   .     S
C464   C465    1.399   .     A
C467   C1134   1.446   1_554 S
C468   C1133   1.446   .     S
N479   Zn489   2.011   .     S
N480   Zn490   2.011   .     S
O481   Zn489   1.986   .     S
O482   Zn490   1.986   .     S
O483   Zn489   2.005   .     S
O484   Zn490   2.005   .     S
O485   Zn489   1.998   .     S
O486   Zn490   1.998   .     S
O487   Zn489   1.998   .     S
O488   Zn490   1.998   .     S
N495   H496    1.030   .     S
N495   C497    1.446   .     S
C497   H499    1.109   .     S
C497   H498    1.107   .     S
C497   H500    1.111   .     S
N501   H502    1.031   .     S
N501   C503    1.451   .     S
C503   H505    1.109   .     S
C503   H504    1.110   .     S
C503   H506    1.110   .     S
N507   C509    1.448   .     S
N507   H508    1.029   .     S
C509   H512    1.109   .     S
C509   H510    1.108   .     S
C509   H511    1.109   .     S
N513   C515    1.446   .     S
N513   H514    1.029   .     S
C515   H518    1.111   .     S
C515   H516    1.111   .     S
C515   H517    1.110   .     S
C519   O555    1.282   .     A
C519   O558    1.278   .     A
C519   C544    1.416   .     S
C520   O556    1.287   .     A
C520   C543    1.423   .     S
C520   O557    1.278   .     A
C521   O562    1.289   .     A
C521   C539    1.441   .     S
C521   O559    1.289   .     A
C522   O561    1.288   .     A
C522   C540    1.436   .     S
C522   O560    1.288   .     A
C523   F565    1.355   .     S
C523   N554    1.367   .     A
C524   N553    1.367   .     A
C524   F566    1.355   .     S
C524   C81     1.416   1_565 S
C525   N554    1.367   .     A
C525   F567    1.355   .     S
C526   F568    1.353   .     S
C526   N553    1.366   .     A
C526   C79     1.416   1_565 S
C527   N569    1.428   .     S
C527   C544    1.404   .     A
C528   C543    1.407   .     A
C528   N575    1.426   .     S
C528   C604    1.388   .     S
C529   N581    1.429   .     S
C529   C543    1.408   .     A
C529   C601    1.394   .     S
C530   N587    1.430   .     S
C530   C544    1.400   .     A
C531   C535    1.381   .     A
C531   C541    1.399   .     A
C531   H545    1.083   .     S
C532   C542    1.399   .     A
C532   C536    1.381   .     A
C532   H546    1.083   .     S
C533   C542    1.401   .     A
C533   C537    1.380   .     A
C533   H547    1.083   .     S
C534   C541    1.400   .     A
C534   C538    1.380   .     A
C534   H548    1.083   .     S
C535   H549    1.083   .     S
C535   C539    1.400   .     A
C536   H550    1.084   .     S
C536   C540    1.399   .     A
C537   C540    1.397   .     A
C537   H551    1.083   .     S
C538   H552    1.083   .     S
C538   C539    1.399   .     A
C541   C1208   1.446   1_554 S
C542   C1207   1.446   .     S
N553   Zn563   2.011   .     S
N554   Zn564   2.011   .     S
O555   Zn563   1.986   .     S
O556   Zn564   1.986   .     S
O557   Zn563   2.005   .     S
O558   Zn564   2.005   .     S
O559   Zn563   1.998   .     S
O560   Zn564   1.998   .     S
O561   Zn563   1.998   .     S
O562   Zn564   1.998   .     S
N569   H570    1.030   .     S
N569   C571    1.446   .     S
C571   H573    1.109   .     S
C571   H572    1.107   .     S
C571   H574    1.111   .     S
N575   H576    1.031   .     S
N575   C577    1.451   .     S
C577   H579    1.109   .     S
C577   H578    1.110   .     S
C577   H580    1.110   .     S
N581   C583    1.448   .     S
N581   H582    1.029   .     S
C583   H586    1.109   .     S
C583   H584    1.108   .     S
C583   H585    1.109   .     S
N587   C589    1.446   .     S
N587   H588    1.029   .     S
C589   H592    1.111   .     S
C589   H590    1.111   .     S
C589   H591    1.110   .     S
C593   O629    1.282   .     A
C593   O632    1.278   .     A
C593   C618    1.416   .     S
C594   O630    1.287   .     A
C594   C617    1.423   .     S
C594   O631    1.278   .     A
C595   O636    1.289   .     A
C595   C613    1.441   .     S
C595   O633    1.289   .     A
C596   O635    1.288   .     A
C596   C614    1.436   .     S
C596   O634    1.288   .     A
C597   F639    1.355   .     S
C597   N628    1.367   .     A
C598   N627    1.367   .     A
C598   F640    1.355   .     S
C598   C155    1.416   1_565 S
C599   N628    1.367   .     A
C599   F641    1.355   .     S
C600   F642    1.353   .     S
C600   N627    1.366   .     A
C600   C153    1.416   1_565 S
C601   N643    1.428   .     S
C601   C618    1.404   .     A
C602   C617    1.407   .     A
C602   N649    1.426   .     S
C602   C456    1.388   1_655 S
C603   N655    1.429   .     S
C603   C617    1.408   .     A
C603   C453    1.394   1_655 S
C604   N661    1.430   .     S
C604   C618    1.400   .     A
C605   C609    1.381   .     A
C605   C615    1.399   .     A
C605   H619    1.083   .     S
C606   C616    1.399   .     A
C606   C610    1.381   .     A
C606   H620    1.083   .     S
C607   C616    1.401   .     A
C607   C611    1.380   .     A
C607   H621    1.083   .     S
C608   C615    1.400   .     A
C608   C612    1.380   .     A
C608   H622    1.083   .     S
C609   H623    1.083   .     S
C609   C613    1.400   .     A
C610   H624    1.084   .     S
C610   C614    1.399   .     A
C611   C614    1.397   .     A
C611   H625    1.083   .     S
C612   H626    1.083   .     S
C612   C613    1.399   .     A
C615   C1282   1.446   1_554 S
C616   C1281   1.446   .     S
N627   Zn637   2.011   .     S
N628   Zn638   2.011   .     S
O629   Zn637   1.986   .     S
O630   Zn638   1.986   .     S
O631   Zn637   2.005   .     S
O632   Zn638   2.005   .     S
O633   Zn637   1.998   .     S
O634   Zn638   1.998   .     S
O635   Zn637   1.998   .     S
O636   Zn638   1.998   .     S
N643   H644    1.030   .     S
N643   C645    1.446   .     S
C645   H647    1.109   .     S
C645   H646    1.107   .     S
C645   H648    1.111   .     S
N649   H650    1.031   .     S
N649   C651    1.451   .     S
C651   H653    1.109   .     S
C651   H652    1.110   .     S
C651   H654    1.110   .     S
N655   C657    1.448   .     S
N655   H656    1.029   .     S
C657   H660    1.109   .     S
C657   H658    1.108   .     S
C657   H659    1.109   .     S
N661   C663    1.446   .     S
N661   H662    1.029   .     S
C663   H666    1.111   .     S
C663   H664    1.111   .     S
C663   H665    1.110   .     S
C667   O703    1.282   .     A
C667   O706    1.278   .     A
C667   C692    1.416   .     S
C668   O704    1.287   .     A
C668   C691    1.423   .     S
C668   O705    1.278   .     A
C669   O710    1.289   .     A
C669   C687    1.441   .     S
C669   O707    1.289   .     A
C670   O709    1.288   .     A
C670   C688    1.436   .     S
C670   O708    1.288   .     A
C671   F713    1.355   .     S
C671   N702    1.367   .     A
C671   C1118   1.416   1_545 S
C672   N701    1.367   .     A
C672   F714    1.355   .     S
C672   C895    1.416   .     S
C673   N702    1.367   .     A
C673   F715    1.355   .     S
C673   C1116   1.416   1_545 S
C674   F716    1.353   .     S
C674   N701    1.366   .     A
C674   C893    1.416   .     S
C675   N717    1.428   .     S
C675   C692    1.404   .     A
C675   C825    1.394   1_455 S
C676   C691    1.407   .     A
C676   N723    1.426   .     S
C676   C752    1.388   .     S
C677   N729    1.429   .     S
C677   C691    1.408   .     A
C677   C749    1.394   .     S
C678   N735    1.430   .     S
C678   C692    1.400   .     A
C678   C824    1.388   1_455 S
C679   C683    1.381   .     A
C679   C689    1.399   .     A
C679   H693    1.083   .     S
C680   C690    1.399   .     A
C680   C684    1.381   .     A
C680   H694    1.083   .     S
C681   C690    1.401   .     A
C681   C685    1.380   .     A
C681   H695    1.083   .     S
C682   C689    1.400   .     A
C682   C686    1.380   .     A
C682   H696    1.083   .     S
C683   H697    1.083   .     S
C683   C687    1.400   .     A
C684   H698    1.084   .     S
C684   C688    1.399   .     A
C685   C688    1.397   .     A
C685   H699    1.083   .     S
C686   H700    1.083   .     S
C686   C687    1.399   .     A
C690   C23     1.446   1_556 S
N701   Zn711   2.011   .     S
N702   Zn712   2.011   .     S
O703   Zn711   1.986   .     S
O704   Zn712   1.986   .     S
O705   Zn711   2.005   .     S
O706   Zn712   2.005   .     S
O707   Zn711   1.998   .     S
O708   Zn712   1.998   .     S
O709   Zn711   1.998   .     S
O710   Zn712   1.998   .     S
N717   H718    1.030   .     S
N717   C719    1.446   .     S
C719   H721    1.109   .     S
C719   H720    1.107   .     S
C719   H722    1.111   .     S
N723   H724    1.031   .     S
N723   C725    1.451   .     S
C725   H727    1.109   .     S
C725   H726    1.110   .     S
C725   H728    1.110   .     S
N729   C731    1.448   .     S
N729   H730    1.029   .     S
C731   H734    1.109   .     S
C731   H732    1.108   .     S
C731   H733    1.109   .     S
N735   C737    1.446   .     S
N735   H736    1.029   .     S
C737   H740    1.111   .     S
C737   H738    1.111   .     S
C737   H739    1.110   .     S
C741   O777    1.282   .     A
C741   O780    1.278   .     A
C741   C766    1.416   .     S
C742   O778    1.287   .     A
C742   C765    1.423   .     S
C742   O779    1.278   .     A
C743   O784    1.289   .     A
C743   C761    1.441   .     S
C743   O781    1.289   .     A
C744   O783    1.288   .     A
C744   C762    1.436   .     S
C744   O782    1.288   .     A
C745   F787    1.355   .     S
C745   N776    1.367   .     A
C745   C1192   1.416   1_545 S
C746   N775    1.367   .     A
C746   F788    1.355   .     S
C746   C969    1.416   .     S
C747   N776    1.367   .     A
C747   F789    1.355   .     S
C747   C1190   1.416   1_545 S
C748   F790    1.353   .     S
C748   N775    1.366   .     A
C748   C967    1.416   .     S
C749   N791    1.428   .     S
C749   C766    1.404   .     A
C750   C765    1.407   .     A
C750   N797    1.426   .     S
C750   C826    1.388   .     S
C751   N803    1.429   .     S
C751   C765    1.408   .     A
C751   C823    1.394   .     S
C752   N809    1.430   .     S
C752   C766    1.400   .     A
C753   C757    1.381   .     A
C753   C763    1.399   .     A
C753   H767    1.083   .     S
C754   C764    1.399   .     A
C754   C758    1.381   .     A
C754   H768    1.083   .     S
C755   C764    1.401   .     A
C755   C759    1.380   .     A
C755   H769    1.083   .     S
C756   C763    1.400   .     A
C756   C760    1.380   .     A
C756   H770    1.083   .     S
C757   H771    1.083   .     S
C757   C761    1.400   .     A
C758   H772    1.084   .     S
C758   C762    1.399   .     A
C759   C762    1.397   .     A
C759   H773    1.083   .     S
C760   H774    1.083   .     S
C760   C761    1.399   .     A
C764   C97     1.446   1_556 S
N775   Zn785   2.011   .     S
N776   Zn786   2.011   .     S
O777   Zn785   1.986   .     S
O778   Zn786   1.986   .     S
O779   Zn785   2.005   .     S
O780   Zn786   2.005   .     S
O781   Zn785   1.998   .     S
O782   Zn786   1.998   .     S
O783   Zn785   1.998   .     S
O784   Zn786   1.998   .     S
N791   H792    1.030   .     S
N791   C793    1.446   .     S
C793   H795    1.109   .     S
C793   H794    1.107   .     S
C793   H796    1.111   .     S
N797   H798    1.031   .     S
N797   C799    1.451   .     S
C799   H801    1.109   .     S
C799   H800    1.110   .     S
C799   H802    1.110   .     S
N803   C805    1.448   .     S
N803   H804    1.029   .     S
C805   H808    1.109   .     S
C805   H806    1.108   .     S
C805   H807    1.109   .     S
N809   C811    1.446   .     S
N809   H810    1.029   .     S
C811   H814    1.111   .     S
C811   H812    1.111   .     S
C811   H813    1.110   .     S
C815   O851    1.282   .     A
C815   O854    1.278   .     A
C815   C840    1.416   .     S
C816   O852    1.287   .     A
C816   C839    1.423   .     S
C816   O853    1.278   .     A
C817   O858    1.289   .     A
C817   C835    1.441   .     S
C817   O855    1.289   .     A
C818   O857    1.288   .     A
C818   C836    1.436   .     S
C818   O856    1.288   .     A
C819   F861    1.355   .     S
C819   N850    1.367   .     A
C819   C1266   1.416   1_545 S
C820   N849    1.367   .     A
C820   F862    1.355   .     S
C820   C1043   1.416   .     S
C821   N850    1.367   .     A
C821   F863    1.355   .     S
C821   C1264   1.416   1_545 S
C822   F864    1.353   .     S
C822   N849    1.366   .     A
C822   C1041   1.416   .     S
C823   N865    1.428   .     S
C823   C840    1.404   .     A
C824   C839    1.407   .     A
C824   N871    1.426   .     S
C824   C678    1.388   1_655 S
C825   N877    1.429   .     S
C825   C839    1.408   .     A
C825   C675    1.394   1_655 S
C826   N883    1.430   .     S
C826   C840    1.400   .     A
C827   C831    1.381   .     A
C827   C837    1.399   .     A
C827   H841    1.083   .     S
C828   C838    1.399   .     A
C828   C832    1.381   .     A
C828   H842    1.083   .     S
C829   C838    1.401   .     A
C829   C833    1.380   .     A
C829   H843    1.083   .     S
C830   C837    1.400   .     A
C830   C834    1.380   .     A
C830   H844    1.083   .     S
C831   H845    1.083   .     S
C831   C835    1.400   .     A
C832   H846    1.084   .     S
C832   C836    1.399   .     A
C833   C836    1.397   .     A
C833   H847    1.083   .     S
C834   H848    1.083   .     S
C834   C835    1.399   .     A
C838   C171    1.446   1_556 S
N849   Zn859   2.011   .     S
N850   Zn860   2.011   .     S
O851   Zn859   1.986   .     S
O852   Zn860   1.986   .     S
O853   Zn859   2.005   .     S
O854   Zn860   2.005   .     S
O855   Zn859   1.998   .     S
O856   Zn860   1.998   .     S
O857   Zn859   1.998   .     S
O858   Zn860   1.998   .     S
N865   H866    1.030   .     S
N865   C867    1.446   .     S
C867   H869    1.109   .     S
C867   H868    1.107   .     S
C867   H870    1.111   .     S
N871   H872    1.031   .     S
N871   C873    1.451   .     S
C873   H875    1.109   .     S
C873   H874    1.110   .     S
C873   H876    1.110   .     S
N877   C879    1.448   .     S
N877   H878    1.029   .     S
C879   H882    1.109   .     S
C879   H880    1.108   .     S
C879   H881    1.109   .     S
N883   C885    1.446   .     S
N883   H884    1.029   .     S
C885   H888    1.111   .     S
C885   H886    1.111   .     S
C885   H887    1.110   .     S
C889   O925    1.282   .     A
C889   O928    1.278   .     A
C889   C914    1.416   .     S
C890   O926    1.287   .     A
C890   C913    1.423   .     S
C890   O927    1.278   .     A
C891   O932    1.289   .     A
C891   C909    1.441   .     S
C891   O929    1.289   .     A
C892   O931    1.288   .     A
C892   C910    1.436   .     S
C892   O930    1.288   .     A
C893   F935    1.355   .     S
C893   N924    1.367   .     A
C894   N923    1.367   .     A
C894   F936    1.355   .     S
C894   C1117   1.416   .     S
C895   N924    1.367   .     A
C895   F937    1.355   .     S
C896   F938    1.353   .     S
C896   N923    1.366   .     A
C896   C1115   1.416   .     S
C897   N939    1.428   .     S
C897   C914    1.404   .     A
C897   C1047   1.394   1_455 S
C898   C913    1.407   .     A
C898   N945    1.426   .     S
C898   C974    1.388   .     S
C899   N951    1.429   .     S
C899   C913    1.408   .     A
C899   C971    1.394   .     S
C900   N957    1.430   .     S
C900   C914    1.400   .     A
C900   C1046   1.388   1_455 S
C901   C905    1.381   .     A
C901   C911    1.399   .     A
C901   H915    1.083   .     S
C902   C912    1.399   .     A
C902   C906    1.381   .     A
C902   H916    1.083   .     S
C903   C912    1.401   .     A
C903   C907    1.380   .     A
C903   H917    1.083   .     S
C904   C911    1.400   .     A
C904   C908    1.380   .     A
C904   H918    1.083   .     S
C905   H919    1.083   .     S
C905   C909    1.400   .     A
C906   H920    1.084   .     S
C906   C910    1.399   .     A
C907   C910    1.397   .     A
C907   H921    1.083   .     S
C908   H922    1.083   .     S
C908   C909    1.399   .     A
C912   C245    1.446   1_556 S
N923   Zn933   2.011   .     S
N924   Zn934   2.011   .     S
O925   Zn933   1.986   .     S
O926   Zn934   1.986   .     S
O927   Zn933   2.005   .     S
O928   Zn934   2.005   .     S
O929   Zn933   1.998   .     S
O930   Zn934   1.998   .     S
O931   Zn933   1.998   .     S
O932   Zn934   1.998   .     S
N939   H940    1.030   .     S
N939   C941    1.446   .     S
C941   H943    1.109   .     S
C941   H942    1.107   .     S
C941   H944    1.111   .     S
N945   H946    1.031   .     S
N945   C947    1.451   .     S
C947   H949    1.109   .     S
C947   H948    1.110   .     S
C947   H950    1.110   .     S
N951   C953    1.448   .     S
N951   H952    1.029   .     S
C953   H956    1.109   .     S
C953   H954    1.108   .     S
C953   H955    1.109   .     S
N957   C959    1.446   .     S
N957   H958    1.029   .     S
C959   H962    1.111   .     S
C959   H960    1.111   .     S
C959   H961    1.110   .     S
C963   O999    1.282   .     A
C963   O1002   1.278   .     A
C963   C988    1.416   .     S
C964   O1000   1.287   .     A
C964   C987    1.423   .     S
C964   O1001   1.278   .     A
C965   O1006   1.289   .     A
C965   C983    1.441   .     S
C965   O1003   1.289   .     A
C966   O1005   1.288   .     A
C966   C984    1.436   .     S
C966   O1004   1.288   .     A
C967   F1009   1.355   .     S
C967   N998    1.367   .     A
C968   N997    1.367   .     A
C968   F1010   1.355   .     S
C968   C1191   1.416   .     S
C969   N998    1.367   .     A
C969   F1011   1.355   .     S
C970   F1012   1.353   .     S
C970   N997    1.366   .     A
C970   C1189   1.416   .     S
C971   N1013   1.428   .     S
C971   C988    1.404   .     A
C972   C987    1.407   .     A
C972   N1019   1.426   .     S
C972   C1048   1.388   .     S
C973   N1025   1.429   .     S
C973   C987    1.408   .     A
C973   C1045   1.394   .     S
C974   N1031   1.430   .     S
C974   C988    1.400   .     A
C975   C979    1.381   .     A
C975   C985    1.399   .     A
C975   H989    1.083   .     S
C976   C986    1.399   .     A
C976   C980    1.381   .     A
C976   H990    1.083   .     S
C977   C986    1.401   .     A
C977   C981    1.380   .     A
C977   H991    1.083   .     S
C978   C985    1.400   .     A
C978   C982    1.380   .     A
C978   H992    1.083   .     S
C979   H993    1.083   .     S
C979   C983    1.400   .     A
C980   H994    1.084   .     S
C980   C984    1.399   .     A
C981   C984    1.397   .     A
C981   H995    1.083   .     S
C982   H996    1.083   .     S
C982   C983    1.399   .     A
C986   C319    1.446   1_556 S
N997   Zn1007  2.011   .     S
N998   Zn1008  2.011   .     S
O999   Zn1007  1.986   .     S
O1000  Zn1008  1.986   .     S
O1001  Zn1007  2.005   .     S
O1002  Zn1008  2.005   .     S
O1003  Zn1007  1.998   .     S
O1004  Zn1008  1.998   .     S
O1005  Zn1007  1.998   .     S
O1006  Zn1008  1.998   .     S
N1013  H1014   1.030   .     S
N1013  C1015   1.446   .     S
C1015  H1017   1.109   .     S
C1015  H1016   1.107   .     S
C1015  H1018   1.111   .     S
N1019  H1020   1.031   .     S
N1019  C1021   1.451   .     S
C1021  H1023   1.109   .     S
C1021  H1022   1.110   .     S
C1021  H1024   1.110   .     S
N1025  C1027   1.448   .     S
N1025  H1026   1.029   .     S
C1027  H1030   1.109   .     S
C1027  H1028   1.108   .     S
C1027  H1029   1.109   .     S
N1031  C1033   1.446   .     S
N1031  H1032   1.029   .     S
C1033  H1036   1.111   .     S
C1033  H1034   1.111   .     S
C1033  H1035   1.110   .     S
C1037  O1073   1.282   .     A
C1037  O1076   1.278   .     A
C1037  C1062   1.416   .     S
C1038  O1074   1.287   .     A
C1038  C1061   1.423   .     S
C1038  O1075   1.278   .     A
C1039  O1080   1.289   .     A
C1039  C1057   1.441   .     S
C1039  O1077   1.289   .     A
C1040  O1079   1.288   .     A
C1040  C1058   1.436   .     S
C1040  O1078   1.288   .     A
C1041  F1083   1.355   .     S
C1041  N1072   1.367   .     A
C1042  N1071   1.367   .     A
C1042  F1084   1.355   .     S
C1042  C1265   1.416   .     S
C1043  N1072   1.367   .     A
C1043  F1085   1.355   .     S
C1044  F1086   1.353   .     S
C1044  N1071   1.366   .     A
C1044  C1263   1.416   .     S
C1045  N1087   1.428   .     S
C1045  C1062   1.404   .     A
C1046  C1061   1.407   .     A
C1046  N1093   1.426   .     S
C1046  C900    1.388   1_655 S
C1047  N1099   1.429   .     S
C1047  C1061   1.408   .     A
C1047  C897    1.394   1_655 S
C1048  N1105   1.430   .     S
C1048  C1062   1.400   .     A
C1049  C1053   1.381   .     A
C1049  C1059   1.399   .     A
C1049  H1063   1.083   .     S
C1050  C1060   1.399   .     A
C1050  C1054   1.381   .     A
C1050  H1064   1.083   .     S
C1051  C1060   1.401   .     A
C1051  C1055   1.380   .     A
C1051  H1065   1.083   .     S
C1052  C1059   1.400   .     A
C1052  C1056   1.380   .     A
C1052  H1066   1.083   .     S
C1053  H1067   1.083   .     S
C1053  C1057   1.400   .     A
C1054  H1068   1.084   .     S
C1054  C1058   1.399   .     A
C1055  C1058   1.397   .     A
C1055  H1069   1.083   .     S
C1056  H1070   1.083   .     S
C1056  C1057   1.399   .     A
C1060  C393    1.446   1_556 S
N1071  Zn1081  2.011   .     S
N1072  Zn1082  2.011   .     S
O1073  Zn1081  1.986   .     S
O1074  Zn1082  1.986   .     S
O1075  Zn1081  2.005   .     S
O1076  Zn1082  2.005   .     S
O1077  Zn1081  1.998   .     S
O1078  Zn1082  1.998   .     S
O1079  Zn1081  1.998   .     S
O1080  Zn1082  1.998   .     S
N1087  H1088   1.030   .     S
N1087  C1089   1.446   .     S
C1089  H1091   1.109   .     S
C1089  H1090   1.107   .     S
C1089  H1092   1.111   .     S
N1093  H1094   1.031   .     S
N1093  C1095   1.451   .     S
C1095  H1097   1.109   .     S
C1095  H1096   1.110   .     S
C1095  H1098   1.110   .     S
N1099  C1101   1.448   .     S
N1099  H1100   1.029   .     S
C1101  H1104   1.109   .     S
C1101  H1102   1.108   .     S
C1101  H1103   1.109   .     S
N1105  C1107   1.446   .     S
N1105  H1106   1.029   .     S
C1107  H1110   1.111   .     S
C1107  H1108   1.111   .     S
C1107  H1109   1.110   .     S
C1111  O1147   1.282   .     A
C1111  O1150   1.278   .     A
C1111  C1136   1.416   .     S
C1112  O1148   1.287   .     A
C1112  C1135   1.423   .     S
C1112  O1149   1.278   .     A
C1113  O1154   1.289   .     A
C1113  C1131   1.441   .     S
C1113  O1151   1.289   .     A
C1114  O1153   1.288   .     A
C1114  C1132   1.436   .     S
C1114  O1152   1.288   .     A
C1115  F1157   1.355   .     S
C1115  N1146   1.367   .     A
C1116  N1145   1.367   .     A
C1116  F1158   1.355   .     S
C1116  C673    1.416   1_565 S
C1117  N1146   1.367   .     A
C1117  F1159   1.355   .     S
C1118  F1160   1.353   .     S
C1118  N1145   1.366   .     A
C1118  C671    1.416   1_565 S
C1119  N1161   1.428   .     S
C1119  C1136   1.404   .     A
C1119  C1269   1.394   1_455 S
C1120  C1135   1.407   .     A
C1120  N1167   1.426   .     S
C1120  C1196   1.388   .     S
C1121  N1173   1.429   .     S
C1121  C1135   1.408   .     A
C1121  C1193   1.394   .     S
C1122  N1179   1.430   .     S
C1122  C1136   1.400   .     A
C1122  C1268   1.388   1_455 S
C1123  C1127   1.381   .     A
C1123  C1133   1.399   .     A
C1123  H1137   1.083   .     S
C1124  C1134   1.399   .     A
C1124  C1128   1.381   .     A
C1124  H1138   1.083   .     S
C1125  C1134   1.401   .     A
C1125  C1129   1.380   .     A
C1125  H1139   1.083   .     S
C1126  C1133   1.400   .     A
C1126  C1130   1.380   .     A
C1126  H1140   1.083   .     S
C1127  H1141   1.083   .     S
C1127  C1131   1.400   .     A
C1128  H1142   1.084   .     S
C1128  C1132   1.399   .     A
C1129  C1132   1.397   .     A
C1129  H1143   1.083   .     S
C1130  H1144   1.083   .     S
C1130  C1131   1.399   .     A
C1134  C467    1.446   1_556 S
N1145  Zn1155  2.011   .     S
N1146  Zn1156  2.011   .     S
O1147  Zn1155  1.986   .     S
O1148  Zn1156  1.986   .     S
O1149  Zn1155  2.005   .     S
O1150  Zn1156  2.005   .     S
O1151  Zn1155  1.998   .     S
O1152  Zn1156  1.998   .     S
O1153  Zn1155  1.998   .     S
O1154  Zn1156  1.998   .     S
N1161  H1162   1.030   .     S
N1161  C1163   1.446   .     S
C1163  H1165   1.109   .     S
C1163  H1164   1.107   .     S
C1163  H1166   1.111   .     S
N1167  H1168   1.031   .     S
N1167  C1169   1.451   .     S
C1169  H1171   1.109   .     S
C1169  H1170   1.110   .     S
C1169  H1172   1.110   .     S
N1173  C1175   1.448   .     S
N1173  H1174   1.029   .     S
C1175  H1178   1.109   .     S
C1175  H1176   1.108   .     S
C1175  H1177   1.109   .     S
N1179  C1181   1.446   .     S
N1179  H1180   1.029   .     S
C1181  H1184   1.111   .     S
C1181  H1182   1.111   .     S
C1181  H1183   1.110   .     S
C1185  O1221   1.282   .     A
C1185  O1224   1.278   .     A
C1185  C1210   1.416   .     S
C1186  O1222   1.287   .     A
C1186  C1209   1.423   .     S
C1186  O1223   1.278   .     A
C1187  O1228   1.289   .     A
C1187  C1205   1.441   .     S
C1187  O1225   1.289   .     A
C1188  O1227   1.288   .     A
C1188  C1206   1.436   .     S
C1188  O1226   1.288   .     A
C1189  F1231   1.355   .     S
C1189  N1220   1.367   .     A
C1190  N1219   1.367   .     A
C1190  F1232   1.355   .     S
C1190  C747    1.416   1_565 S
C1191  N1220   1.367   .     A
C1191  F1233   1.355   .     S
C1192  F1234   1.353   .     S
C1192  N1219   1.366   .     A
C1192  C745    1.416   1_565 S
C1193  N1235   1.428   .     S
C1193  C1210   1.404   .     A
C1194  C1209   1.407   .     A
C1194  N1241   1.426   .     S
C1194  C1270   1.388   .     S
C1195  N1247   1.429   .     S
C1195  C1209   1.408   .     A
C1195  C1267   1.394   .     S
C1196  N1253   1.430   .     S
C1196  C1210   1.400   .     A
C1197  C1201   1.381   .     A
C1197  C1207   1.399   .     A
C1197  H1211   1.083   .     S
C1198  C1208   1.399   .     A
C1198  C1202   1.381   .     A
C1198  H1212   1.083   .     S
C1199  C1208   1.401   .     A
C1199  C1203   1.380   .     A
C1199  H1213   1.083   .     S
C1200  C1207   1.400   .     A
C1200  C1204   1.380   .     A
C1200  H1214   1.083   .     S
C1201  H1215   1.083   .     S
C1201  C1205   1.400   .     A
C1202  H1216   1.084   .     S
C1202  C1206   1.399   .     A
C1203  C1206   1.397   .     A
C1203  H1217   1.083   .     S
C1204  H1218   1.083   .     S
C1204  C1205   1.399   .     A
C1208  C541    1.446   1_556 S
N1219  Zn1229  2.011   .     S
N1220  Zn1230  2.011   .     S
O1221  Zn1229  1.986   .     S
O1222  Zn1230  1.986   .     S
O1223  Zn1229  2.005   .     S
O1224  Zn1230  2.005   .     S
O1225  Zn1229  1.998   .     S
O1226  Zn1230  1.998   .     S
O1227  Zn1229  1.998   .     S
O1228  Zn1230  1.998   .     S
N1235  H1236   1.030   .     S
N1235  C1237   1.446   .     S
C1237  H1239   1.109   .     S
C1237  H1238   1.107   .     S
C1237  H1240   1.111   .     S
N1241  H1242   1.031   .     S
N1241  C1243   1.451   .     S
C1243  H1245   1.109   .     S
C1243  H1244   1.110   .     S
C1243  H1246   1.110   .     S
N1247  C1249   1.448   .     S
N1247  H1248   1.029   .     S
C1249  H1252   1.109   .     S
C1249  H1250   1.108   .     S
C1249  H1251   1.109   .     S
N1253  C1255   1.446   .     S
N1253  H1254   1.029   .     S
C1255  H1258   1.111   .     S
C1255  H1256   1.111   .     S
C1255  H1257   1.110   .     S
C1259  O1295   1.282   .     A
C1259  O1298   1.278   .     A
C1259  C1284   1.416   .     S
C1260  O1296   1.287   .     A
C1260  C1283   1.423   .     S
C1260  O1297   1.278   .     A
C1261  O1302   1.289   .     A
C1261  C1279   1.441   .     S
C1261  O1299   1.289   .     A
C1262  O1301   1.288   .     A
C1262  C1280   1.436   .     S
C1262  O1300   1.288   .     A
C1263  F1305   1.355   .     S
C1263  N1294   1.367   .     A
C1264  N1293   1.367   .     A
C1264  F1306   1.355   .     S
C1264  C821    1.416   1_565 S
C1265  N1294   1.367   .     A
C1265  F1307   1.355   .     S
C1266  F1308   1.353   .     S
C1266  N1293   1.366   .     A
C1266  C819    1.416   1_565 S
C1267  N1309   1.428   .     S
C1267  C1284   1.404   .     A
C1268  C1283   1.407   .     A
C1268  N1315   1.426   .     S
C1268  C1122   1.388   1_655 S
C1269  N1321   1.429   .     S
C1269  C1283   1.408   .     A
C1269  C1119   1.394   1_655 S
C1270  N1327   1.430   .     S
C1270  C1284   1.400   .     A
C1271  C1275   1.381   .     A
C1271  C1281   1.399   .     A
C1271  H1285   1.083   .     S
C1272  C1282   1.399   .     A
C1272  C1276   1.381   .     A
C1272  H1286   1.083   .     S
C1273  C1282   1.401   .     A
C1273  C1277   1.380   .     A
C1273  H1287   1.083   .     S
C1274  C1281   1.400   .     A
C1274  C1278   1.380   .     A
C1274  H1288   1.083   .     S
C1275  H1289   1.083   .     S
C1275  C1279   1.400   .     A
C1276  H1290   1.084   .     S
C1276  C1280   1.399   .     A
C1277  C1280   1.397   .     A
C1277  H1291   1.083   .     S
C1278  H1292   1.083   .     S
C1278  C1279   1.399   .     A
C1282  C615    1.446   1_556 S
N1293  Zn1303  2.011   .     S
N1294  Zn1304  2.011   .     S
O1295  Zn1303  1.986   .     S
O1296  Zn1304  1.986   .     S
O1297  Zn1303  2.005   .     S
O1298  Zn1304  2.005   .     S
O1299  Zn1303  1.998   .     S
O1300  Zn1304  1.998   .     S
O1301  Zn1303  1.998   .     S
O1302  Zn1304  1.998   .     S
N1309  H1310   1.030   .     S
N1309  C1311   1.446   .     S
C1311  H1313   1.109   .     S
C1311  H1312   1.107   .     S
C1311  H1314   1.111   .     S
N1315  H1316   1.031   .     S
N1315  C1317   1.451   .     S
C1317  H1319   1.109   .     S
C1317  H1318   1.110   .     S
C1317  H1320   1.110   .     S
N1321  C1323   1.448   .     S
N1321  H1322   1.029   .     S
C1323  H1326   1.109   .     S
C1323  H1324   1.108   .     S
C1323  H1325   1.109   .     S
N1327  C1329   1.446   .     S
N1327  H1328   1.029   .     S
C1329  H1332   1.111   .     S
C1329  H1330   1.111   .     S
C1329  H1331   1.110   .     S
