data_str_m2_o10_o16_pcu_sym.41
_audit_creation_date              2020-01-03
_audit_creation_method            'Materials Studio'
_symmetry_space_group_name_H-M    'P1'
_symmetry_Int_Tables_number       1
_symmetry_cell_setting            triclinic
loop_
_symmetry_equiv_pos_as_xyz
  x,y,z
_cell_length_a                    22.4971
_cell_length_b                    26.0813
_cell_length_c                    26.8177
_cell_angle_alpha                 94.7671
_cell_angle_beta                  78.3999
_cell_angle_gamma                 103.2619
loop_
_atom_site_label
_atom_site_type_symbol
_atom_site_fract_x
_atom_site_fract_y
_atom_site_fract_z
_atom_site_U_iso_or_equiv
_atom_site_adp_type
_atom_site_occupancy
O1     O     0.12797   0.23807   0.24633   0.00000  Uiso   1.00
O2     O     0.22858   0.24755   0.25586   0.00000  Uiso   1.00
C3     C     0.18172   0.26665   0.25159   0.00000  Uiso   1.00
O4     O     0.09181   0.15960   0.31840   0.00000  Uiso   1.00
O5     O     0.19242   0.16908   0.32793   0.00000  Uiso   1.00
C6     C     0.13349   0.15563   0.34569   0.00000  Uiso   1.00
Cu7    Cu    0.10710   0.16105   0.24436   0.00000  Uiso   1.00
Cu8    Cu    0.22623   0.17228   0.25564   0.00000  Uiso   1.00
O9     O     0.10476   0.08578   0.24414   0.00000  Uiso   1.00
O10    O     0.20536   0.09526   0.25367   0.00000  Uiso   1.00
O11    O     0.14092   0.16425   0.17207   0.00000  Uiso   1.00
O12    O     0.24152   0.17373   0.18160   0.00000  Uiso   1.00
C13    C     0.15155   0.06663   0.24842   0.00000  Uiso   1.00
C14    C     0.20009   0.17235   0.15338   0.00000  Uiso   1.00
C15    C     0.29397   0.20493   0.02157   0.00000  Uiso   1.00
H16    H     0.31673   0.18555   0.42224   0.00000  Uiso   1.00
H17    H     0.00723   0.22339   0.00306   0.00000  Uiso   1.00
C18    C     0.21893   0.17843   0.09815   0.00000  Uiso   1.00
C19    C     0.05402   0.11585   0.41941   0.00000  Uiso   1.00
C20    C     0.03506   0.10824   0.47145   0.00000  Uiso   1.00
C21    C     0.07753   0.12375   0.00408   0.00000  Uiso   1.00
C22    C     0.14165   0.14146   0.48428   0.00000  Uiso   1.00
C23    C     0.16111   0.14182   0.43068   0.00000  Uiso   1.00
C24    C     0.18753   0.15937   0.01530   0.00000  Uiso   1.00
C25    C     0.24971   0.18084   0.49207   0.00000  Uiso   1.00
C26    C     0.26816   0.17422   0.43974   0.00000  Uiso   1.00
C27    C     0.22535   0.14644   0.41107   0.00000  Uiso   1.00
C28    C     0.17409   0.15649   0.06828   0.00000  Uiso   1.00
C29    C     0.27853   0.20592   0.07473   0.00000  Uiso   1.00
C30    C     0.11602   0.13729   0.39896   0.00000  Uiso   1.00
H31    H     0.12917   0.13570   0.08705   0.00000  Uiso   1.00
H32    H     0.02017   0.10537   0.39512   0.00000  Uiso   1.00
H33    H     0.05875   0.12123   0.04427   0.00000  Uiso   1.00
H34    H     0.31983   0.09271   0.48691   0.00000  Uiso   1.00
C35    C     0.19001   0.32263   0.25222   0.00000  Uiso   1.00
H36    H     0.23522   0.01308   0.25635   0.00000  Uiso   1.00
C37    C     0.14302   0.01055   0.24778   0.00000  Uiso   1.00
H38    H     0.09770   0.31998   0.24363   0.00000  Uiso   1.00
N39    N     0.31574   0.18074   0.26416   0.00000  Uiso   1.00
H40    H     0.00162   0.20264   0.29301   0.00000  Uiso   1.00
N41    N     0.01759   0.15259   0.23584   0.00000  Uiso   1.00
N42    N     0.32257   0.23660   0.10371   0.00000  Uiso   1.00
O43    O     0.04861   0.24212   0.08635   0.00000  Uiso   1.00
O44    O     0.30415   0.26703   0.14187   0.00000  Uiso   1.00
N45    N     0.33080   0.12683   0.19300   0.00000  Uiso   1.00
O46    O     0.31231   0.07583   0.19276   0.00000  Uiso   1.00
O47    O     0.01933   0.14877   0.14939   0.00000  Uiso   1.00
N48    N     0.24652   0.11544   0.36764   0.00000  Uiso   1.00
H49    H     0.29233   0.12819   0.35066   0.00000  Uiso   1.00
C50    C     0.22834   0.05909   0.37394   0.00000  Uiso   1.00
H51    H     0.25041   0.03844   0.33991   0.00000  Uiso   1.00
H52    H     0.17708   0.04557   0.37836   0.00000  Uiso   1.00
H53    H     0.24382   0.04851   0.40782   0.00000  Uiso   1.00
O54    O     0.46131   0.23807   0.24633   0.00000  Uiso   1.00
O55    O     0.56191   0.24755   0.25586   0.00000  Uiso   1.00
C56    C     0.51506   0.26665   0.25159   0.00000  Uiso   1.00
O57    O     0.42515   0.15960   0.31840   0.00000  Uiso   1.00
O58    O     0.52575   0.16908   0.32793   0.00000  Uiso   1.00
C59    C     0.46682   0.15563   0.34569   0.00000  Uiso   1.00
Cu60   Cu    0.44043   0.16105   0.24436   0.00000  Uiso   1.00
Cu61   Cu    0.55957   0.17228   0.25564   0.00000  Uiso   1.00
O62    O     0.43809   0.08578   0.24414   0.00000  Uiso   1.00
O63    O     0.53869   0.09526   0.25367   0.00000  Uiso   1.00
O64    O     0.47425   0.16425   0.17207   0.00000  Uiso   1.00
O65    O     0.57485   0.17373   0.18160   0.00000  Uiso   1.00
C66    C     0.48488   0.06663   0.24842   0.00000  Uiso   1.00
C67    C     0.53343   0.17235   0.15338   0.00000  Uiso   1.00
C68    C     0.62730   0.20493   0.02157   0.00000  Uiso   1.00
H69    H     0.65007   0.18555   0.42224   0.00000  Uiso   1.00
H70    H     0.34056   0.22339   0.00306   0.00000  Uiso   1.00
C71    C     0.55226   0.17843   0.09815   0.00000  Uiso   1.00
C72    C     0.38735   0.11585   0.41941   0.00000  Uiso   1.00
C73    C     0.36839   0.10824   0.47145   0.00000  Uiso   1.00
C74    C     0.41087   0.12375   0.00408   0.00000  Uiso   1.00
C75    C     0.47499   0.14146   0.48428   0.00000  Uiso   1.00
C76    C     0.49445   0.14182   0.43068   0.00000  Uiso   1.00
C77    C     0.52087   0.15937   0.01530   0.00000  Uiso   1.00
C78    C     0.58305   0.18084   0.49207   0.00000  Uiso   1.00
C79    C     0.60149   0.17422   0.43974   0.00000  Uiso   1.00
C80    C     0.55868   0.14644   0.41107   0.00000  Uiso   1.00
C81    C     0.50742   0.15649   0.06828   0.00000  Uiso   1.00
C82    C     0.61186   0.20592   0.07473   0.00000  Uiso   1.00
C83    C     0.44935   0.13729   0.39896   0.00000  Uiso   1.00
H84    H     0.46250   0.13570   0.08705   0.00000  Uiso   1.00
H85    H     0.35351   0.10537   0.39512   0.00000  Uiso   1.00
H86    H     0.39209   0.12123   0.04427   0.00000  Uiso   1.00
H87    H     0.65316   0.09271   0.48691   0.00000  Uiso   1.00
C88    C     0.52334   0.32263   0.25222   0.00000  Uiso   1.00
H89    H     0.56855   0.01308   0.25635   0.00000  Uiso   1.00
C90    C     0.47635   0.01055   0.24778   0.00000  Uiso   1.00
H91    H     0.43104   0.31998   0.24363   0.00000  Uiso   1.00
N92    N     0.64908   0.18074   0.26416   0.00000  Uiso   1.00
H93    H     0.33495   0.20264   0.29301   0.00000  Uiso   1.00
N94    N     0.35092   0.15259   0.23584   0.00000  Uiso   1.00
N95    N     0.65590   0.23660   0.10371   0.00000  Uiso   1.00
O96    O     0.38195   0.24212   0.08635   0.00000  Uiso   1.00
O97    O     0.63748   0.26703   0.14187   0.00000  Uiso   1.00
N98    N     0.66414   0.12683   0.19300   0.00000  Uiso   1.00
O99    O     0.64565   0.07583   0.19276   0.00000  Uiso   1.00
O100   O     0.35266   0.14877   0.14939   0.00000  Uiso   1.00
N101   N     0.57986   0.11544   0.36764   0.00000  Uiso   1.00
H102   H     0.62566   0.12819   0.35066   0.00000  Uiso   1.00
C103   C     0.56167   0.05909   0.37394   0.00000  Uiso   1.00
H104   H     0.58374   0.03844   0.33991   0.00000  Uiso   1.00
H105   H     0.51042   0.04557   0.37836   0.00000  Uiso   1.00
H106   H     0.57715   0.04851   0.40782   0.00000  Uiso   1.00
O107   O     0.79464   0.23807   0.24633   0.00000  Uiso   1.00
O108   O     0.89524   0.24755   0.25586   0.00000  Uiso   1.00
C109   C     0.84839   0.26665   0.25159   0.00000  Uiso   1.00
O110   O     0.75848   0.15960   0.31840   0.00000  Uiso   1.00
O111   O     0.85908   0.16908   0.32793   0.00000  Uiso   1.00
C112   C     0.80015   0.15563   0.34569   0.00000  Uiso   1.00
Cu113  Cu    0.77377   0.16105   0.24436   0.00000  Uiso   1.00
Cu114  Cu    0.89290   0.17228   0.25564   0.00000  Uiso   1.00
O115   O     0.77142   0.08578   0.24414   0.00000  Uiso   1.00
O116   O     0.87203   0.09526   0.25367   0.00000  Uiso   1.00
O117   O     0.80758   0.16425   0.17207   0.00000  Uiso   1.00
O118   O     0.90819   0.17373   0.18160   0.00000  Uiso   1.00
C119   C     0.81821   0.06663   0.24842   0.00000  Uiso   1.00
C120   C     0.86676   0.17235   0.15338   0.00000  Uiso   1.00
C121   C     0.96063   0.20493   0.02157   0.00000  Uiso   1.00
H122   H     0.98340   0.18555   0.42224   0.00000  Uiso   1.00
H123   H     0.67389   0.22339   0.00306   0.00000  Uiso   1.00
C124   C     0.88560   0.17843   0.09815   0.00000  Uiso   1.00
C125   C     0.72068   0.11585   0.41941   0.00000  Uiso   1.00
C126   C     0.70173   0.10824   0.47145   0.00000  Uiso   1.00
C127   C     0.74420   0.12375   0.00408   0.00000  Uiso   1.00
C128   C     0.80832   0.14146   0.48428   0.00000  Uiso   1.00
C129   C     0.82778   0.14182   0.43068   0.00000  Uiso   1.00
C130   C     0.85420   0.15937   0.01530   0.00000  Uiso   1.00
C131   C     0.91638   0.18084   0.49207   0.00000  Uiso   1.00
C132   C     0.93482   0.17422   0.43974   0.00000  Uiso   1.00
C133   C     0.89202   0.14644   0.41107   0.00000  Uiso   1.00
C134   C     0.84076   0.15649   0.06828   0.00000  Uiso   1.00
C135   C     0.94520   0.20592   0.07473   0.00000  Uiso   1.00
C136   C     0.78268   0.13729   0.39896   0.00000  Uiso   1.00
H137   H     0.79583   0.13570   0.08705   0.00000  Uiso   1.00
H138   H     0.68684   0.10537   0.39512   0.00000  Uiso   1.00
H139   H     0.72542   0.12123   0.04427   0.00000  Uiso   1.00
H140   H     0.98650   0.09271   0.48691   0.00000  Uiso   1.00
C141   C     0.85667   0.32263   0.25222   0.00000  Uiso   1.00
H142   H     0.90189   0.01308   0.25635   0.00000  Uiso   1.00
C143   C     0.80969   0.01055   0.24778   0.00000  Uiso   1.00
H144   H     0.76437   0.31998   0.24363   0.00000  Uiso   1.00
N145   N     0.98241   0.18074   0.26416   0.00000  Uiso   1.00
H146   H     0.66828   0.20264   0.29301   0.00000  Uiso   1.00
N147   N     0.68426   0.15259   0.23584   0.00000  Uiso   1.00
N148   N     0.98923   0.23660   0.10371   0.00000  Uiso   1.00
O149   O     0.71528   0.24212   0.08635   0.00000  Uiso   1.00
O150   O     0.97081   0.26703   0.14187   0.00000  Uiso   1.00
N151   N     0.99747   0.12683   0.19300   0.00000  Uiso   1.00
O152   O     0.97898   0.07583   0.19276   0.00000  Uiso   1.00
O153   O     0.68600   0.14877   0.14939   0.00000  Uiso   1.00
N154   N     0.91319   0.11544   0.36764   0.00000  Uiso   1.00
H155   H     0.95900   0.12819   0.35066   0.00000  Uiso   1.00
C156   C     0.89500   0.05909   0.37394   0.00000  Uiso   1.00
H157   H     0.91707   0.03844   0.33991   0.00000  Uiso   1.00
H158   H     0.84375   0.04557   0.37836   0.00000  Uiso   1.00
H159   H     0.91048   0.04851   0.40782   0.00000  Uiso   1.00
O160   O     0.12797   0.57141   0.24633   0.00000  Uiso   1.00
O161   O     0.22858   0.58089   0.25586   0.00000  Uiso   1.00
C162   C     0.18172   0.59999   0.25159   0.00000  Uiso   1.00
O163   O     0.09181   0.49293   0.31840   0.00000  Uiso   1.00
O164   O     0.19242   0.50241   0.32793   0.00000  Uiso   1.00
C165   C     0.13349   0.48896   0.34569   0.00000  Uiso   1.00
Cu166  Cu    0.10710   0.49439   0.24436   0.00000  Uiso   1.00
Cu167  Cu    0.22623   0.50561   0.25564   0.00000  Uiso   1.00
O168   O     0.10476   0.41911   0.24414   0.00000  Uiso   1.00
O169   O     0.20536   0.42859   0.25367   0.00000  Uiso   1.00
O170   O     0.14092   0.49759   0.17207   0.00000  Uiso   1.00
O171   O     0.24152   0.50707   0.18160   0.00000  Uiso   1.00
C172   C     0.15155   0.39996   0.24842   0.00000  Uiso   1.00
C173   C     0.20009   0.50569   0.15338   0.00000  Uiso   1.00
C174   C     0.29397   0.53826   0.02157   0.00000  Uiso   1.00
H175   H     0.31673   0.51889   0.42224   0.00000  Uiso   1.00
H176   H     0.00723   0.55672   0.00306   0.00000  Uiso   1.00
C177   C     0.21893   0.51177   0.09815   0.00000  Uiso   1.00
C178   C     0.05402   0.44918   0.41941   0.00000  Uiso   1.00
C179   C     0.03506   0.44157   0.47145   0.00000  Uiso   1.00
C180   C     0.07753   0.45708   0.00408   0.00000  Uiso   1.00
C181   C     0.14165   0.47479   0.48428   0.00000  Uiso   1.00
C182   C     0.16111   0.47515   0.43068   0.00000  Uiso   1.00
C183   C     0.18753   0.49271   0.01530   0.00000  Uiso   1.00
C184   C     0.24971   0.51417   0.49207   0.00000  Uiso   1.00
C185   C     0.26816   0.50755   0.43974   0.00000  Uiso   1.00
C186   C     0.22535   0.47977   0.41107   0.00000  Uiso   1.00
C187   C     0.17409   0.48983   0.06828   0.00000  Uiso   1.00
C188   C     0.27853   0.53925   0.07473   0.00000  Uiso   1.00
C189   C     0.11602   0.47062   0.39896   0.00000  Uiso   1.00
H190   H     0.12917   0.46904   0.08705   0.00000  Uiso   1.00
H191   H     0.02017   0.43871   0.39512   0.00000  Uiso   1.00
H192   H     0.05875   0.45456   0.04427   0.00000  Uiso   1.00
H193   H     0.31983   0.42605   0.48691   0.00000  Uiso   1.00
C194   C     0.19001   0.65596   0.25222   0.00000  Uiso   1.00
H195   H     0.23522   0.34641   0.25635   0.00000  Uiso   1.00
C196   C     0.14302   0.34389   0.24778   0.00000  Uiso   1.00
H197   H     0.09770   0.65332   0.24363   0.00000  Uiso   1.00
N198   N     0.31574   0.51407   0.26416   0.00000  Uiso   1.00
H199   H     0.00162   0.53597   0.29301   0.00000  Uiso   1.00
N200   N     0.01759   0.48593   0.23584   0.00000  Uiso   1.00
N201   N     0.32257   0.56994   0.10371   0.00000  Uiso   1.00
O202   O     0.04861   0.57545   0.08635   0.00000  Uiso   1.00
O203   O     0.30415   0.60036   0.14187   0.00000  Uiso   1.00
N204   N     0.33080   0.46016   0.19300   0.00000  Uiso   1.00
O205   O     0.31231   0.40916   0.19276   0.00000  Uiso   1.00
O206   O     0.01933   0.48211   0.14939   0.00000  Uiso   1.00
N207   N     0.24652   0.44877   0.36764   0.00000  Uiso   1.00
H208   H     0.29233   0.46152   0.35066   0.00000  Uiso   1.00
C209   C     0.22834   0.39242   0.37394   0.00000  Uiso   1.00
H210   H     0.25041   0.37177   0.33991   0.00000  Uiso   1.00
H211   H     0.17708   0.37891   0.37836   0.00000  Uiso   1.00
H212   H     0.24382   0.38185   0.40782   0.00000  Uiso   1.00
O213   O     0.46131   0.57141   0.24633   0.00000  Uiso   1.00
O214   O     0.56191   0.58089   0.25586   0.00000  Uiso   1.00
C215   C     0.51506   0.59999   0.25159   0.00000  Uiso   1.00
O216   O     0.42515   0.49293   0.31840   0.00000  Uiso   1.00
O217   O     0.52575   0.50241   0.32793   0.00000  Uiso   1.00
C218   C     0.46682   0.48896   0.34569   0.00000  Uiso   1.00
Cu219  Cu    0.44043   0.49439   0.24436   0.00000  Uiso   1.00
Cu220  Cu    0.55957   0.50561   0.25564   0.00000  Uiso   1.00
O221   O     0.43809   0.41911   0.24414   0.00000  Uiso   1.00
O222   O     0.53869   0.42859   0.25367   0.00000  Uiso   1.00
O223   O     0.47425   0.49759   0.17207   0.00000  Uiso   1.00
O224   O     0.57485   0.50707   0.18160   0.00000  Uiso   1.00
C225   C     0.48488   0.39996   0.24842   0.00000  Uiso   1.00
C226   C     0.53343   0.50569   0.15338   0.00000  Uiso   1.00
C227   C     0.62730   0.53826   0.02157   0.00000  Uiso   1.00
H228   H     0.65007   0.51889   0.42224   0.00000  Uiso   1.00
H229   H     0.34056   0.55672   0.00306   0.00000  Uiso   1.00
C230   C     0.55226   0.51177   0.09815   0.00000  Uiso   1.00
C231   C     0.38735   0.44918   0.41941   0.00000  Uiso   1.00
C232   C     0.36839   0.44157   0.47145   0.00000  Uiso   1.00
C233   C     0.41087   0.45708   0.00408   0.00000  Uiso   1.00
C234   C     0.47499   0.47479   0.48428   0.00000  Uiso   1.00
C235   C     0.49445   0.47515   0.43068   0.00000  Uiso   1.00
C236   C     0.52087   0.49271   0.01530   0.00000  Uiso   1.00
C237   C     0.58305   0.51417   0.49207   0.00000  Uiso   1.00
C238   C     0.60149   0.50755   0.43974   0.00000  Uiso   1.00
C239   C     0.55868   0.47977   0.41107   0.00000  Uiso   1.00
C240   C     0.50742   0.48983   0.06828   0.00000  Uiso   1.00
C241   C     0.61186   0.53925   0.07473   0.00000  Uiso   1.00
C242   C     0.44935   0.47062   0.39896   0.00000  Uiso   1.00
H243   H     0.46250   0.46904   0.08705   0.00000  Uiso   1.00
H244   H     0.35351   0.43871   0.39512   0.00000  Uiso   1.00
H245   H     0.39209   0.45456   0.04427   0.00000  Uiso   1.00
H246   H     0.65316   0.42605   0.48691   0.00000  Uiso   1.00
C247   C     0.52334   0.65596   0.25222   0.00000  Uiso   1.00
H248   H     0.56855   0.34641   0.25635   0.00000  Uiso   1.00
C249   C     0.47635   0.34389   0.24778   0.00000  Uiso   1.00
H250   H     0.43104   0.65332   0.24363   0.00000  Uiso   1.00
N251   N     0.64908   0.51407   0.26416   0.00000  Uiso   1.00
H252   H     0.33495   0.53597   0.29301   0.00000  Uiso   1.00
N253   N     0.35092   0.48593   0.23584   0.00000  Uiso   1.00
N254   N     0.65590   0.56994   0.10371   0.00000  Uiso   1.00
O255   O     0.38195   0.57545   0.08635   0.00000  Uiso   1.00
O256   O     0.63748   0.60036   0.14187   0.00000  Uiso   1.00
N257   N     0.66414   0.46016   0.19300   0.00000  Uiso   1.00
O258   O     0.64565   0.40916   0.19276   0.00000  Uiso   1.00
O259   O     0.35266   0.48211   0.14939   0.00000  Uiso   1.00
N260   N     0.57986   0.44877   0.36764   0.00000  Uiso   1.00
H261   H     0.62566   0.46152   0.35066   0.00000  Uiso   1.00
C262   C     0.56167   0.39242   0.37394   0.00000  Uiso   1.00
H263   H     0.58374   0.37177   0.33991   0.00000  Uiso   1.00
H264   H     0.51042   0.37891   0.37836   0.00000  Uiso   1.00
H265   H     0.57715   0.38185   0.40782   0.00000  Uiso   1.00
O266   O     0.79464   0.57141   0.24633   0.00000  Uiso   1.00
O267   O     0.89524   0.58089   0.25586   0.00000  Uiso   1.00
C268   C     0.84839   0.59999   0.25159   0.00000  Uiso   1.00
O269   O     0.75848   0.49293   0.31840   0.00000  Uiso   1.00
O270   O     0.85908   0.50241   0.32793   0.00000  Uiso   1.00
C271   C     0.80015   0.48896   0.34569   0.00000  Uiso   1.00
Cu272  Cu    0.77377   0.49439   0.24436   0.00000  Uiso   1.00
Cu273  Cu    0.89290   0.50561   0.25564   0.00000  Uiso   1.00
O274   O     0.77142   0.41911   0.24414   0.00000  Uiso   1.00
O275   O     0.87203   0.42859   0.25367   0.00000  Uiso   1.00
O276   O     0.80758   0.49759   0.17207   0.00000  Uiso   1.00
O277   O     0.90819   0.50707   0.18160   0.00000  Uiso   1.00
C278   C     0.81821   0.39996   0.24842   0.00000  Uiso   1.00
C279   C     0.86676   0.50569   0.15338   0.00000  Uiso   1.00
C280   C     0.96063   0.53826   0.02157   0.00000  Uiso   1.00
H281   H     0.98340   0.51889   0.42224   0.00000  Uiso   1.00
H282   H     0.67389   0.55672   0.00306   0.00000  Uiso   1.00
C283   C     0.88560   0.51177   0.09815   0.00000  Uiso   1.00
C284   C     0.72068   0.44918   0.41941   0.00000  Uiso   1.00
C285   C     0.70173   0.44157   0.47145   0.00000  Uiso   1.00
C286   C     0.74420   0.45708   0.00408   0.00000  Uiso   1.00
C287   C     0.80832   0.47479   0.48428   0.00000  Uiso   1.00
C288   C     0.82778   0.47515   0.43068   0.00000  Uiso   1.00
C289   C     0.85420   0.49271   0.01530   0.00000  Uiso   1.00
C290   C     0.91638   0.51417   0.49207   0.00000  Uiso   1.00
C291   C     0.93482   0.50755   0.43974   0.00000  Uiso   1.00
C292   C     0.89202   0.47977   0.41107   0.00000  Uiso   1.00
C293   C     0.84076   0.48983   0.06828   0.00000  Uiso   1.00
C294   C     0.94520   0.53925   0.07473   0.00000  Uiso   1.00
C295   C     0.78268   0.47062   0.39896   0.00000  Uiso   1.00
H296   H     0.79583   0.46904   0.08705   0.00000  Uiso   1.00
H297   H     0.68684   0.43871   0.39512   0.00000  Uiso   1.00
H298   H     0.72542   0.45456   0.04427   0.00000  Uiso   1.00
H299   H     0.98650   0.42605   0.48691   0.00000  Uiso   1.00
C300   C     0.85667   0.65596   0.25222   0.00000  Uiso   1.00
H301   H     0.90189   0.34641   0.25635   0.00000  Uiso   1.00
C302   C     0.80969   0.34389   0.24778   0.00000  Uiso   1.00
H303   H     0.76437   0.65332   0.24363   0.00000  Uiso   1.00
N304   N     0.98241   0.51407   0.26416   0.00000  Uiso   1.00
H305   H     0.66828   0.53597   0.29301   0.00000  Uiso   1.00
N306   N     0.68426   0.48593   0.23584   0.00000  Uiso   1.00
N307   N     0.98923   0.56994   0.10371   0.00000  Uiso   1.00
O308   O     0.71528   0.57545   0.08635   0.00000  Uiso   1.00
O309   O     0.97081   0.60036   0.14187   0.00000  Uiso   1.00
N310   N     0.99747   0.46016   0.19300   0.00000  Uiso   1.00
O311   O     0.97898   0.40916   0.19276   0.00000  Uiso   1.00
O312   O     0.68600   0.48211   0.14939   0.00000  Uiso   1.00
N313   N     0.91319   0.44877   0.36764   0.00000  Uiso   1.00
H314   H     0.95900   0.46152   0.35066   0.00000  Uiso   1.00
C315   C     0.89500   0.39242   0.37394   0.00000  Uiso   1.00
H316   H     0.91707   0.37177   0.33991   0.00000  Uiso   1.00
H317   H     0.84375   0.37891   0.37836   0.00000  Uiso   1.00
H318   H     0.91048   0.38185   0.40782   0.00000  Uiso   1.00
O319   O     0.12797   0.90474   0.24633   0.00000  Uiso   1.00
O320   O     0.22858   0.91422   0.25586   0.00000  Uiso   1.00
C321   C     0.18172   0.93332   0.25159   0.00000  Uiso   1.00
O322   O     0.09181   0.82627   0.31840   0.00000  Uiso   1.00
O323   O     0.19242   0.83575   0.32793   0.00000  Uiso   1.00
C324   C     0.13349   0.82230   0.34569   0.00000  Uiso   1.00
Cu325  Cu    0.10710   0.82772   0.24436   0.00000  Uiso   1.00
Cu326  Cu    0.22623   0.83895   0.25564   0.00000  Uiso   1.00
O327   O     0.10476   0.75245   0.24414   0.00000  Uiso   1.00
O328   O     0.20536   0.76193   0.25367   0.00000  Uiso   1.00
O329   O     0.14092   0.83092   0.17207   0.00000  Uiso   1.00
O330   O     0.24152   0.84040   0.18160   0.00000  Uiso   1.00
C331   C     0.15155   0.73330   0.24842   0.00000  Uiso   1.00
C332   C     0.20009   0.83902   0.15338   0.00000  Uiso   1.00
C333   C     0.29397   0.87159   0.02157   0.00000  Uiso   1.00
H334   H     0.31673   0.85222   0.42224   0.00000  Uiso   1.00
H335   H     0.00723   0.89005   0.00306   0.00000  Uiso   1.00
C336   C     0.21893   0.84510   0.09815   0.00000  Uiso   1.00
C337   C     0.05402   0.78251   0.41941   0.00000  Uiso   1.00
C338   C     0.03506   0.77490   0.47145   0.00000  Uiso   1.00
C339   C     0.07753   0.79042   0.00408   0.00000  Uiso   1.00
C340   C     0.14165   0.80813   0.48428   0.00000  Uiso   1.00
C341   C     0.16111   0.80849   0.43068   0.00000  Uiso   1.00
C342   C     0.18753   0.82604   0.01530   0.00000  Uiso   1.00
C343   C     0.24971   0.84750   0.49207   0.00000  Uiso   1.00
C344   C     0.26816   0.84088   0.43974   0.00000  Uiso   1.00
C345   C     0.22535   0.81311   0.41107   0.00000  Uiso   1.00
C346   C     0.17409   0.82316   0.06828   0.00000  Uiso   1.00
C347   C     0.27853   0.87258   0.07473   0.00000  Uiso   1.00
C348   C     0.11602   0.80396   0.39896   0.00000  Uiso   1.00
H349   H     0.12917   0.80237   0.08705   0.00000  Uiso   1.00
H350   H     0.02017   0.77204   0.39512   0.00000  Uiso   1.00
H351   H     0.05875   0.78789   0.04427   0.00000  Uiso   1.00
H352   H     0.31983   0.75938   0.48691   0.00000  Uiso   1.00
C353   C     0.19001   0.98930   0.25222   0.00000  Uiso   1.00
H354   H     0.23522   0.67975   0.25635   0.00000  Uiso   1.00
C355   C     0.14302   0.67722   0.24778   0.00000  Uiso   1.00
H356   H     0.09770   0.98665   0.24363   0.00000  Uiso   1.00
N357   N     0.31574   0.84741   0.26416   0.00000  Uiso   1.00
H358   H     0.00162   0.86930   0.29301   0.00000  Uiso   1.00
N359   N     0.01759   0.81926   0.23584   0.00000  Uiso   1.00
N360   N     0.32257   0.90327   0.10371   0.00000  Uiso   1.00
O361   O     0.04861   0.90879   0.08635   0.00000  Uiso   1.00
O362   O     0.30415   0.93369   0.14187   0.00000  Uiso   1.00
N363   N     0.33080   0.79350   0.19300   0.00000  Uiso   1.00
O364   O     0.31231   0.74249   0.19276   0.00000  Uiso   1.00
O365   O     0.01933   0.81544   0.14939   0.00000  Uiso   1.00
N366   N     0.24652   0.78211   0.36764   0.00000  Uiso   1.00
H367   H     0.29233   0.79485   0.35066   0.00000  Uiso   1.00
C368   C     0.22834   0.72576   0.37394   0.00000  Uiso   1.00
H369   H     0.25041   0.70511   0.33991   0.00000  Uiso   1.00
H370   H     0.17708   0.71224   0.37836   0.00000  Uiso   1.00
H371   H     0.24382   0.71518   0.40782   0.00000  Uiso   1.00
O372   O     0.46131   0.90474   0.24633   0.00000  Uiso   1.00
O373   O     0.56191   0.91422   0.25586   0.00000  Uiso   1.00
C374   C     0.51506   0.93332   0.25159   0.00000  Uiso   1.00
O375   O     0.42515   0.82627   0.31840   0.00000  Uiso   1.00
O376   O     0.52575   0.83575   0.32793   0.00000  Uiso   1.00
C377   C     0.46682   0.82230   0.34569   0.00000  Uiso   1.00
Cu378  Cu    0.44043   0.82772   0.24436   0.00000  Uiso   1.00
Cu379  Cu    0.55957   0.83895   0.25564   0.00000  Uiso   1.00
O380   O     0.43809   0.75245   0.24414   0.00000  Uiso   1.00
O381   O     0.53869   0.76193   0.25367   0.00000  Uiso   1.00
O382   O     0.47425   0.83092   0.17207   0.00000  Uiso   1.00
O383   O     0.57485   0.84040   0.18160   0.00000  Uiso   1.00
C384   C     0.48488   0.73330   0.24842   0.00000  Uiso   1.00
C385   C     0.53343   0.83902   0.15338   0.00000  Uiso   1.00
C386   C     0.62730   0.87159   0.02157   0.00000  Uiso   1.00
H387   H     0.65007   0.85222   0.42224   0.00000  Uiso   1.00
H388   H     0.34056   0.89005   0.00306   0.00000  Uiso   1.00
C389   C     0.55226   0.84510   0.09815   0.00000  Uiso   1.00
C390   C     0.38735   0.78251   0.41941   0.00000  Uiso   1.00
C391   C     0.36839   0.77490   0.47145   0.00000  Uiso   1.00
C392   C     0.41087   0.79042   0.00408   0.00000  Uiso   1.00
C393   C     0.47499   0.80813   0.48428   0.00000  Uiso   1.00
C394   C     0.49445   0.80849   0.43068   0.00000  Uiso   1.00
C395   C     0.52087   0.82604   0.01530   0.00000  Uiso   1.00
C396   C     0.58305   0.84750   0.49207   0.00000  Uiso   1.00
C397   C     0.60149   0.84088   0.43974   0.00000  Uiso   1.00
C398   C     0.55868   0.81311   0.41107   0.00000  Uiso   1.00
C399   C     0.50742   0.82316   0.06828   0.00000  Uiso   1.00
C400   C     0.61186   0.87258   0.07473   0.00000  Uiso   1.00
C401   C     0.44935   0.80396   0.39896   0.00000  Uiso   1.00
H402   H     0.46250   0.80237   0.08705   0.00000  Uiso   1.00
H403   H     0.35351   0.77204   0.39512   0.00000  Uiso   1.00
H404   H     0.39209   0.78789   0.04427   0.00000  Uiso   1.00
H405   H     0.65316   0.75938   0.48691   0.00000  Uiso   1.00
C406   C     0.52334   0.98930   0.25222   0.00000  Uiso   1.00
H407   H     0.56855   0.67975   0.25635   0.00000  Uiso   1.00
C408   C     0.47635   0.67722   0.24778   0.00000  Uiso   1.00
H409   H     0.43104   0.98665   0.24363   0.00000  Uiso   1.00
N410   N     0.64908   0.84741   0.26416   0.00000  Uiso   1.00
H411   H     0.33495   0.86930   0.29301   0.00000  Uiso   1.00
N412   N     0.35092   0.81926   0.23584   0.00000  Uiso   1.00
N413   N     0.65590   0.90327   0.10371   0.00000  Uiso   1.00
O414   O     0.38195   0.90879   0.08635   0.00000  Uiso   1.00
O415   O     0.63748   0.93369   0.14187   0.00000  Uiso   1.00
N416   N     0.66414   0.79350   0.19300   0.00000  Uiso   1.00
O417   O     0.64565   0.74249   0.19276   0.00000  Uiso   1.00
O418   O     0.35266   0.81544   0.14939   0.00000  Uiso   1.00
N419   N     0.57986   0.78211   0.36764   0.00000  Uiso   1.00
H420   H     0.62566   0.79485   0.35066   0.00000  Uiso   1.00
C421   C     0.56167   0.72576   0.37394   0.00000  Uiso   1.00
H422   H     0.58374   0.70511   0.33991   0.00000  Uiso   1.00
H423   H     0.51042   0.71224   0.37836   0.00000  Uiso   1.00
H424   H     0.57715   0.71518   0.40782   0.00000  Uiso   1.00
O425   O     0.79464   0.90474   0.24633   0.00000  Uiso   1.00
O426   O     0.89524   0.91422   0.25586   0.00000  Uiso   1.00
C427   C     0.84839   0.93332   0.25159   0.00000  Uiso   1.00
O428   O     0.75848   0.82627   0.31840   0.00000  Uiso   1.00
O429   O     0.85908   0.83575   0.32793   0.00000  Uiso   1.00
C430   C     0.80015   0.82230   0.34569   0.00000  Uiso   1.00
Cu431  Cu    0.77377   0.82772   0.24436   0.00000  Uiso   1.00
Cu432  Cu    0.89290   0.83895   0.25564   0.00000  Uiso   1.00
O433   O     0.77142   0.75245   0.24414   0.00000  Uiso   1.00
O434   O     0.87203   0.76193   0.25367   0.00000  Uiso   1.00
O435   O     0.80758   0.83092   0.17207   0.00000  Uiso   1.00
O436   O     0.90819   0.84040   0.18160   0.00000  Uiso   1.00
C437   C     0.81821   0.73330   0.24842   0.00000  Uiso   1.00
C438   C     0.86676   0.83902   0.15338   0.00000  Uiso   1.00
C439   C     0.96063   0.87159   0.02157   0.00000  Uiso   1.00
H440   H     0.98340   0.85222   0.42224   0.00000  Uiso   1.00
H441   H     0.67389   0.89005   0.00306   0.00000  Uiso   1.00
C442   C     0.88560   0.84510   0.09815   0.00000  Uiso   1.00
C443   C     0.72068   0.78251   0.41941   0.00000  Uiso   1.00
C444   C     0.70173   0.77490   0.47145   0.00000  Uiso   1.00
C445   C     0.74420   0.79042   0.00408   0.00000  Uiso   1.00
C446   C     0.80832   0.80813   0.48428   0.00000  Uiso   1.00
C447   C     0.82778   0.80849   0.43068   0.00000  Uiso   1.00
C448   C     0.85420   0.82604   0.01530   0.00000  Uiso   1.00
C449   C     0.91638   0.84750   0.49207   0.00000  Uiso   1.00
C450   C     0.93482   0.84088   0.43974   0.00000  Uiso   1.00
C451   C     0.89202   0.81311   0.41107   0.00000  Uiso   1.00
C452   C     0.84076   0.82316   0.06828   0.00000  Uiso   1.00
C453   C     0.94520   0.87258   0.07473   0.00000  Uiso   1.00
C454   C     0.78268   0.80396   0.39896   0.00000  Uiso   1.00
H455   H     0.79583   0.80237   0.08705   0.00000  Uiso   1.00
H456   H     0.68684   0.77204   0.39512   0.00000  Uiso   1.00
H457   H     0.72542   0.78789   0.04427   0.00000  Uiso   1.00
H458   H     0.98650   0.75938   0.48691   0.00000  Uiso   1.00
C459   C     0.85667   0.98930   0.25222   0.00000  Uiso   1.00
H460   H     0.90189   0.67975   0.25635   0.00000  Uiso   1.00
C461   C     0.80969   0.67722   0.24778   0.00000  Uiso   1.00
H462   H     0.76437   0.98665   0.24363   0.00000  Uiso   1.00
N463   N     0.98241   0.84741   0.26416   0.00000  Uiso   1.00
H464   H     0.66828   0.86930   0.29301   0.00000  Uiso   1.00
N465   N     0.68426   0.81926   0.23584   0.00000  Uiso   1.00
N466   N     0.98923   0.90327   0.10371   0.00000  Uiso   1.00
O467   O     0.71528   0.90879   0.08635   0.00000  Uiso   1.00
O468   O     0.97081   0.93369   0.14187   0.00000  Uiso   1.00
N469   N     0.99747   0.79350   0.19300   0.00000  Uiso   1.00
O470   O     0.97898   0.74249   0.19276   0.00000  Uiso   1.00
O471   O     0.68600   0.81544   0.14939   0.00000  Uiso   1.00
N472   N     0.91319   0.78211   0.36764   0.00000  Uiso   1.00
H473   H     0.95900   0.79485   0.35066   0.00000  Uiso   1.00
C474   C     0.89500   0.72576   0.37394   0.00000  Uiso   1.00
H475   H     0.91707   0.70511   0.33991   0.00000  Uiso   1.00
H476   H     0.84375   0.71224   0.37836   0.00000  Uiso   1.00
H477   H     0.91048   0.71518   0.40782   0.00000  Uiso   1.00
O478   O     0.12797   0.23807   0.74633   0.00000  Uiso   1.00
O479   O     0.22858   0.24755   0.75586   0.00000  Uiso   1.00
C480   C     0.18172   0.26665   0.75159   0.00000  Uiso   1.00
O481   O     0.09181   0.15960   0.81840   0.00000  Uiso   1.00
O482   O     0.19242   0.16908   0.82793   0.00000  Uiso   1.00
C483   C     0.13349   0.15563   0.84569   0.00000  Uiso   1.00
Cu484  Cu    0.10710   0.16105   0.74436   0.00000  Uiso   1.00
Cu485  Cu    0.22623   0.17228   0.75564   0.00000  Uiso   1.00
O486   O     0.10476   0.08578   0.74414   0.00000  Uiso   1.00
O487   O     0.20536   0.09526   0.75367   0.00000  Uiso   1.00
O488   O     0.14092   0.16425   0.67207   0.00000  Uiso   1.00
O489   O     0.24152   0.17373   0.68160   0.00000  Uiso   1.00
C490   C     0.15155   0.06663   0.74842   0.00000  Uiso   1.00
C491   C     0.20009   0.17235   0.65338   0.00000  Uiso   1.00
C492   C     0.29397   0.20493   0.52157   0.00000  Uiso   1.00
H493   H     0.31673   0.18555   0.92224   0.00000  Uiso   1.00
H494   H     0.00723   0.22339   0.50306   0.00000  Uiso   1.00
C495   C     0.21893   0.17843   0.59815   0.00000  Uiso   1.00
C496   C     0.05402   0.11585   0.91941   0.00000  Uiso   1.00
C497   C     0.03506   0.10824   0.97145   0.00000  Uiso   1.00
C498   C     0.07753   0.12375   0.50408   0.00000  Uiso   1.00
C499   C     0.14165   0.14146   0.98428   0.00000  Uiso   1.00
C500   C     0.16111   0.14182   0.93068   0.00000  Uiso   1.00
C501   C     0.18753   0.15937   0.51530   0.00000  Uiso   1.00
C502   C     0.24971   0.18084   0.99207   0.00000  Uiso   1.00
C503   C     0.26816   0.17422   0.93974   0.00000  Uiso   1.00
C504   C     0.22535   0.14644   0.91107   0.00000  Uiso   1.00
C505   C     0.17409   0.15649   0.56828   0.00000  Uiso   1.00
C506   C     0.27853   0.20592   0.57473   0.00000  Uiso   1.00
C507   C     0.11602   0.13729   0.89896   0.00000  Uiso   1.00
H508   H     0.12917   0.13570   0.58705   0.00000  Uiso   1.00
H509   H     0.02017   0.10537   0.89512   0.00000  Uiso   1.00
H510   H     0.05875   0.12123   0.54427   0.00000  Uiso   1.00
H511   H     0.31983   0.09271   0.98691   0.00000  Uiso   1.00
C512   C     0.19001   0.32263   0.75222   0.00000  Uiso   1.00
H513   H     0.23522   0.01308   0.75635   0.00000  Uiso   1.00
C514   C     0.14302   0.01055   0.74778   0.00000  Uiso   1.00
H515   H     0.09770   0.31998   0.74363   0.00000  Uiso   1.00
N516   N     0.31574   0.18074   0.76416   0.00000  Uiso   1.00
H517   H     0.00162   0.20264   0.79301   0.00000  Uiso   1.00
N518   N     0.01759   0.15259   0.73584   0.00000  Uiso   1.00
N519   N     0.32257   0.23660   0.60371   0.00000  Uiso   1.00
O520   O     0.04861   0.24212   0.58635   0.00000  Uiso   1.00
O521   O     0.30415   0.26703   0.64187   0.00000  Uiso   1.00
N522   N     0.33080   0.12683   0.69300   0.00000  Uiso   1.00
O523   O     0.31231   0.07583   0.69276   0.00000  Uiso   1.00
O524   O     0.01933   0.14877   0.64939   0.00000  Uiso   1.00
N525   N     0.24652   0.11544   0.86764   0.00000  Uiso   1.00
H526   H     0.29233   0.12819   0.85066   0.00000  Uiso   1.00
C527   C     0.22834   0.05909   0.87394   0.00000  Uiso   1.00
H528   H     0.25041   0.03844   0.83991   0.00000  Uiso   1.00
H529   H     0.17708   0.04557   0.87836   0.00000  Uiso   1.00
H530   H     0.24382   0.04851   0.90782   0.00000  Uiso   1.00
O531   O     0.46131   0.23807   0.74633   0.00000  Uiso   1.00
O532   O     0.56191   0.24755   0.75586   0.00000  Uiso   1.00
C533   C     0.51506   0.26665   0.75159   0.00000  Uiso   1.00
O534   O     0.42515   0.15960   0.81840   0.00000  Uiso   1.00
O535   O     0.52575   0.16908   0.82793   0.00000  Uiso   1.00
C536   C     0.46682   0.15563   0.84569   0.00000  Uiso   1.00
Cu537  Cu    0.44043   0.16105   0.74436   0.00000  Uiso   1.00
Cu538  Cu    0.55957   0.17228   0.75564   0.00000  Uiso   1.00
O539   O     0.43809   0.08578   0.74414   0.00000  Uiso   1.00
O540   O     0.53869   0.09526   0.75367   0.00000  Uiso   1.00
O541   O     0.47425   0.16425   0.67207   0.00000  Uiso   1.00
O542   O     0.57485   0.17373   0.68160   0.00000  Uiso   1.00
C543   C     0.48488   0.06663   0.74842   0.00000  Uiso   1.00
C544   C     0.53343   0.17235   0.65338   0.00000  Uiso   1.00
C545   C     0.62730   0.20493   0.52157   0.00000  Uiso   1.00
H546   H     0.65007   0.18555   0.92224   0.00000  Uiso   1.00
H547   H     0.34056   0.22339   0.50306   0.00000  Uiso   1.00
C548   C     0.55226   0.17843   0.59815   0.00000  Uiso   1.00
C549   C     0.38735   0.11585   0.91941   0.00000  Uiso   1.00
C550   C     0.36839   0.10824   0.97145   0.00000  Uiso   1.00
C551   C     0.41087   0.12375   0.50408   0.00000  Uiso   1.00
C552   C     0.47499   0.14146   0.98428   0.00000  Uiso   1.00
C553   C     0.49445   0.14182   0.93068   0.00000  Uiso   1.00
C554   C     0.52087   0.15937   0.51530   0.00000  Uiso   1.00
C555   C     0.58305   0.18084   0.99207   0.00000  Uiso   1.00
C556   C     0.60149   0.17422   0.93974   0.00000  Uiso   1.00
C557   C     0.55868   0.14644   0.91107   0.00000  Uiso   1.00
C558   C     0.50742   0.15649   0.56828   0.00000  Uiso   1.00
C559   C     0.61186   0.20592   0.57473   0.00000  Uiso   1.00
C560   C     0.44935   0.13729   0.89896   0.00000  Uiso   1.00
H561   H     0.46250   0.13570   0.58705   0.00000  Uiso   1.00
H562   H     0.35351   0.10537   0.89512   0.00000  Uiso   1.00
H563   H     0.39209   0.12123   0.54427   0.00000  Uiso   1.00
H564   H     0.65316   0.09271   0.98691   0.00000  Uiso   1.00
C565   C     0.52334   0.32263   0.75222   0.00000  Uiso   1.00
H566   H     0.56855   0.01308   0.75635   0.00000  Uiso   1.00
C567   C     0.47635   0.01055   0.74778   0.00000  Uiso   1.00
H568   H     0.43104   0.31998   0.74363   0.00000  Uiso   1.00
N569   N     0.64908   0.18074   0.76416   0.00000  Uiso   1.00
H570   H     0.33495   0.20264   0.79301   0.00000  Uiso   1.00
N571   N     0.35092   0.15259   0.73584   0.00000  Uiso   1.00
N572   N     0.65590   0.23660   0.60371   0.00000  Uiso   1.00
O573   O     0.38195   0.24212   0.58635   0.00000  Uiso   1.00
O574   O     0.63748   0.26703   0.64187   0.00000  Uiso   1.00
N575   N     0.66414   0.12683   0.69300   0.00000  Uiso   1.00
O576   O     0.64565   0.07583   0.69276   0.00000  Uiso   1.00
O577   O     0.35266   0.14877   0.64939   0.00000  Uiso   1.00
N578   N     0.57986   0.11544   0.86764   0.00000  Uiso   1.00
H579   H     0.62566   0.12819   0.85066   0.00000  Uiso   1.00
C580   C     0.56167   0.05909   0.87394   0.00000  Uiso   1.00
H581   H     0.58374   0.03844   0.83991   0.00000  Uiso   1.00
H582   H     0.51042   0.04557   0.87836   0.00000  Uiso   1.00
H583   H     0.57715   0.04851   0.90782   0.00000  Uiso   1.00
O584   O     0.79464   0.23807   0.74633   0.00000  Uiso   1.00
O585   O     0.89524   0.24755   0.75586   0.00000  Uiso   1.00
C586   C     0.84839   0.26665   0.75159   0.00000  Uiso   1.00
O587   O     0.75848   0.15960   0.81840   0.00000  Uiso   1.00
O588   O     0.85908   0.16908   0.82793   0.00000  Uiso   1.00
C589   C     0.80015   0.15563   0.84569   0.00000  Uiso   1.00
Cu590  Cu    0.77377   0.16105   0.74436   0.00000  Uiso   1.00
Cu591  Cu    0.89290   0.17228   0.75564   0.00000  Uiso   1.00
O592   O     0.77142   0.08578   0.74414   0.00000  Uiso   1.00
O593   O     0.87203   0.09526   0.75367   0.00000  Uiso   1.00
O594   O     0.80758   0.16425   0.67207   0.00000  Uiso   1.00
O595   O     0.90819   0.17373   0.68160   0.00000  Uiso   1.00
C596   C     0.81821   0.06663   0.74842   0.00000  Uiso   1.00
C597   C     0.86676   0.17235   0.65338   0.00000  Uiso   1.00
C598   C     0.96063   0.20493   0.52157   0.00000  Uiso   1.00
H599   H     0.98340   0.18555   0.92224   0.00000  Uiso   1.00
H600   H     0.67389   0.22339   0.50306   0.00000  Uiso   1.00
C601   C     0.88560   0.17843   0.59815   0.00000  Uiso   1.00
C602   C     0.72068   0.11585   0.91941   0.00000  Uiso   1.00
C603   C     0.70173   0.10824   0.97145   0.00000  Uiso   1.00
C604   C     0.74420   0.12375   0.50408   0.00000  Uiso   1.00
C605   C     0.80832   0.14146   0.98428   0.00000  Uiso   1.00
C606   C     0.82778   0.14182   0.93068   0.00000  Uiso   1.00
C607   C     0.85420   0.15937   0.51530   0.00000  Uiso   1.00
C608   C     0.91638   0.18084   0.99207   0.00000  Uiso   1.00
C609   C     0.93482   0.17422   0.93974   0.00000  Uiso   1.00
C610   C     0.89202   0.14644   0.91107   0.00000  Uiso   1.00
C611   C     0.84076   0.15649   0.56828   0.00000  Uiso   1.00
C612   C     0.94520   0.20592   0.57473   0.00000  Uiso   1.00
C613   C     0.78268   0.13729   0.89896   0.00000  Uiso   1.00
H614   H     0.79583   0.13570   0.58705   0.00000  Uiso   1.00
H615   H     0.68684   0.10537   0.89512   0.00000  Uiso   1.00
H616   H     0.72542   0.12123   0.54427   0.00000  Uiso   1.00
H617   H     0.98650   0.09271   0.98691   0.00000  Uiso   1.00
C618   C     0.85667   0.32263   0.75222   0.00000  Uiso   1.00
H619   H     0.90189   0.01308   0.75635   0.00000  Uiso   1.00
C620   C     0.80969   0.01055   0.74778   0.00000  Uiso   1.00
H621   H     0.76437   0.31998   0.74363   0.00000  Uiso   1.00
N622   N     0.98241   0.18074   0.76416   0.00000  Uiso   1.00
H623   H     0.66828   0.20264   0.79301   0.00000  Uiso   1.00
N624   N     0.68426   0.15259   0.73584   0.00000  Uiso   1.00
N625   N     0.98923   0.23660   0.60371   0.00000  Uiso   1.00
O626   O     0.71528   0.24212   0.58635   0.00000  Uiso   1.00
O627   O     0.97081   0.26703   0.64187   0.00000  Uiso   1.00
N628   N     0.99747   0.12683   0.69300   0.00000  Uiso   1.00
O629   O     0.97898   0.07583   0.69276   0.00000  Uiso   1.00
O630   O     0.68600   0.14877   0.64939   0.00000  Uiso   1.00
N631   N     0.91319   0.11544   0.86764   0.00000  Uiso   1.00
H632   H     0.95900   0.12819   0.85066   0.00000  Uiso   1.00
C633   C     0.89500   0.05909   0.87394   0.00000  Uiso   1.00
H634   H     0.91707   0.03844   0.83991   0.00000  Uiso   1.00
H635   H     0.84375   0.04557   0.87836   0.00000  Uiso   1.00
H636   H     0.91048   0.04851   0.90782   0.00000  Uiso   1.00
O637   O     0.12797   0.57141   0.74633   0.00000  Uiso   1.00
O638   O     0.22858   0.58089   0.75586   0.00000  Uiso   1.00
C639   C     0.18172   0.59999   0.75159   0.00000  Uiso   1.00
O640   O     0.09181   0.49293   0.81840   0.00000  Uiso   1.00
O641   O     0.19242   0.50241   0.82793   0.00000  Uiso   1.00
C642   C     0.13349   0.48896   0.84569   0.00000  Uiso   1.00
Cu643  Cu    0.10710   0.49439   0.74436   0.00000  Uiso   1.00
Cu644  Cu    0.22623   0.50561   0.75564   0.00000  Uiso   1.00
O645   O     0.10476   0.41911   0.74414   0.00000  Uiso   1.00
O646   O     0.20536   0.42859   0.75367   0.00000  Uiso   1.00
O647   O     0.14092   0.49759   0.67207   0.00000  Uiso   1.00
O648   O     0.24152   0.50707   0.68160   0.00000  Uiso   1.00
C649   C     0.15155   0.39996   0.74842   0.00000  Uiso   1.00
C650   C     0.20009   0.50569   0.65338   0.00000  Uiso   1.00
C651   C     0.29397   0.53826   0.52157   0.00000  Uiso   1.00
H652   H     0.31673   0.51889   0.92224   0.00000  Uiso   1.00
H653   H     0.00723   0.55672   0.50306   0.00000  Uiso   1.00
C654   C     0.21893   0.51177   0.59815   0.00000  Uiso   1.00
C655   C     0.05402   0.44918   0.91941   0.00000  Uiso   1.00
C656   C     0.03506   0.44157   0.97145   0.00000  Uiso   1.00
C657   C     0.07753   0.45708   0.50408   0.00000  Uiso   1.00
C658   C     0.14165   0.47479   0.98428   0.00000  Uiso   1.00
C659   C     0.16111   0.47515   0.93068   0.00000  Uiso   1.00
C660   C     0.18753   0.49271   0.51530   0.00000  Uiso   1.00
C661   C     0.24971   0.51417   0.99207   0.00000  Uiso   1.00
C662   C     0.26816   0.50755   0.93974   0.00000  Uiso   1.00
C663   C     0.22535   0.47977   0.91107   0.00000  Uiso   1.00
C664   C     0.17409   0.48983   0.56828   0.00000  Uiso   1.00
C665   C     0.27853   0.53925   0.57473   0.00000  Uiso   1.00
C666   C     0.11602   0.47062   0.89896   0.00000  Uiso   1.00
H667   H     0.12917   0.46904   0.58705   0.00000  Uiso   1.00
H668   H     0.02017   0.43871   0.89512   0.00000  Uiso   1.00
H669   H     0.05875   0.45456   0.54427   0.00000  Uiso   1.00
H670   H     0.31983   0.42605   0.98691   0.00000  Uiso   1.00
C671   C     0.19001   0.65596   0.75222   0.00000  Uiso   1.00
H672   H     0.23522   0.34641   0.75635   0.00000  Uiso   1.00
C673   C     0.14302   0.34389   0.74778   0.00000  Uiso   1.00
H674   H     0.09770   0.65332   0.74363   0.00000  Uiso   1.00
N675   N     0.31574   0.51407   0.76416   0.00000  Uiso   1.00
H676   H     0.00162   0.53597   0.79301   0.00000  Uiso   1.00
N677   N     0.01759   0.48593   0.73584   0.00000  Uiso   1.00
N678   N     0.32257   0.56994   0.60371   0.00000  Uiso   1.00
O679   O     0.04861   0.57545   0.58635   0.00000  Uiso   1.00
O680   O     0.30415   0.60036   0.64187   0.00000  Uiso   1.00
N681   N     0.33080   0.46016   0.69300   0.00000  Uiso   1.00
O682   O     0.31231   0.40916   0.69276   0.00000  Uiso   1.00
O683   O     0.01933   0.48211   0.64939   0.00000  Uiso   1.00
N684   N     0.24652   0.44877   0.86764   0.00000  Uiso   1.00
H685   H     0.29233   0.46152   0.85066   0.00000  Uiso   1.00
C686   C     0.22834   0.39242   0.87394   0.00000  Uiso   1.00
H687   H     0.25041   0.37177   0.83991   0.00000  Uiso   1.00
H688   H     0.17708   0.37891   0.87836   0.00000  Uiso   1.00
H689   H     0.24382   0.38185   0.90782   0.00000  Uiso   1.00
O690   O     0.46131   0.57141   0.74633   0.00000  Uiso   1.00
O691   O     0.56191   0.58089   0.75586   0.00000  Uiso   1.00
C692   C     0.51506   0.59999   0.75159   0.00000  Uiso   1.00
O693   O     0.42515   0.49293   0.81840   0.00000  Uiso   1.00
O694   O     0.52575   0.50241   0.82793   0.00000  Uiso   1.00
C695   C     0.46682   0.48896   0.84569   0.00000  Uiso   1.00
Cu696  Cu    0.44043   0.49439   0.74436   0.00000  Uiso   1.00
Cu697  Cu    0.55957   0.50561   0.75564   0.00000  Uiso   1.00
O698   O     0.43809   0.41911   0.74414   0.00000  Uiso   1.00
O699   O     0.53869   0.42859   0.75367   0.00000  Uiso   1.00
O700   O     0.47425   0.49759   0.67207   0.00000  Uiso   1.00
O701   O     0.57485   0.50707   0.68160   0.00000  Uiso   1.00
C702   C     0.48488   0.39996   0.74842   0.00000  Uiso   1.00
C703   C     0.53343   0.50569   0.65338   0.00000  Uiso   1.00
C704   C     0.62730   0.53826   0.52157   0.00000  Uiso   1.00
H705   H     0.65007   0.51889   0.92224   0.00000  Uiso   1.00
H706   H     0.34056   0.55672   0.50306   0.00000  Uiso   1.00
C707   C     0.55226   0.51177   0.59815   0.00000  Uiso   1.00
C708   C     0.38735   0.44918   0.91941   0.00000  Uiso   1.00
C709   C     0.36839   0.44157   0.97145   0.00000  Uiso   1.00
C710   C     0.41087   0.45708   0.50408   0.00000  Uiso   1.00
C711   C     0.47499   0.47479   0.98428   0.00000  Uiso   1.00
C712   C     0.49445   0.47515   0.93068   0.00000  Uiso   1.00
C713   C     0.52087   0.49271   0.51530   0.00000  Uiso   1.00
C714   C     0.58305   0.51417   0.99207   0.00000  Uiso   1.00
C715   C     0.60149   0.50755   0.93974   0.00000  Uiso   1.00
C716   C     0.55868   0.47977   0.91107   0.00000  Uiso   1.00
C717   C     0.50742   0.48983   0.56828   0.00000  Uiso   1.00
C718   C     0.61186   0.53925   0.57473   0.00000  Uiso   1.00
C719   C     0.44935   0.47062   0.89896   0.00000  Uiso   1.00
H720   H     0.46250   0.46904   0.58705   0.00000  Uiso   1.00
H721   H     0.35351   0.43871   0.89512   0.00000  Uiso   1.00
H722   H     0.39209   0.45456   0.54427   0.00000  Uiso   1.00
H723   H     0.65316   0.42605   0.98691   0.00000  Uiso   1.00
C724   C     0.52334   0.65596   0.75222   0.00000  Uiso   1.00
H725   H     0.56855   0.34641   0.75635   0.00000  Uiso   1.00
C726   C     0.47635   0.34389   0.74778   0.00000  Uiso   1.00
H727   H     0.43104   0.65332   0.74363   0.00000  Uiso   1.00
N728   N     0.64908   0.51407   0.76416   0.00000  Uiso   1.00
H729   H     0.33495   0.53597   0.79301   0.00000  Uiso   1.00
N730   N     0.35092   0.48593   0.73584   0.00000  Uiso   1.00
N731   N     0.65590   0.56994   0.60371   0.00000  Uiso   1.00
O732   O     0.38195   0.57545   0.58635   0.00000  Uiso   1.00
O733   O     0.63748   0.60036   0.64187   0.00000  Uiso   1.00
N734   N     0.66414   0.46016   0.69300   0.00000  Uiso   1.00
O735   O     0.64565   0.40916   0.69276   0.00000  Uiso   1.00
O736   O     0.35266   0.48211   0.64939   0.00000  Uiso   1.00
N737   N     0.57986   0.44877   0.86764   0.00000  Uiso   1.00
H738   H     0.62566   0.46152   0.85066   0.00000  Uiso   1.00
C739   C     0.56167   0.39242   0.87394   0.00000  Uiso   1.00
H740   H     0.58374   0.37177   0.83991   0.00000  Uiso   1.00
H741   H     0.51042   0.37891   0.87836   0.00000  Uiso   1.00
H742   H     0.57715   0.38185   0.90782   0.00000  Uiso   1.00
O743   O     0.79464   0.57141   0.74633   0.00000  Uiso   1.00
O744   O     0.89524   0.58089   0.75586   0.00000  Uiso   1.00
C745   C     0.84839   0.59999   0.75159   0.00000  Uiso   1.00
O746   O     0.75848   0.49293   0.81840   0.00000  Uiso   1.00
O747   O     0.85908   0.50241   0.82793   0.00000  Uiso   1.00
C748   C     0.80015   0.48896   0.84569   0.00000  Uiso   1.00
Cu749  Cu    0.77377   0.49439   0.74436   0.00000  Uiso   1.00
Cu750  Cu    0.89290   0.50561   0.75564   0.00000  Uiso   1.00
O751   O     0.77142   0.41911   0.74414   0.00000  Uiso   1.00
O752   O     0.87203   0.42859   0.75367   0.00000  Uiso   1.00
O753   O     0.80758   0.49759   0.67207   0.00000  Uiso   1.00
O754   O     0.90819   0.50707   0.68160   0.00000  Uiso   1.00
C755   C     0.81821   0.39996   0.74842   0.00000  Uiso   1.00
C756   C     0.86676   0.50569   0.65338   0.00000  Uiso   1.00
C757   C     0.96063   0.53826   0.52157   0.00000  Uiso   1.00
H758   H     0.98340   0.51889   0.92224   0.00000  Uiso   1.00
H759   H     0.67389   0.55672   0.50306   0.00000  Uiso   1.00
C760   C     0.88560   0.51177   0.59815   0.00000  Uiso   1.00
C761   C     0.72068   0.44918   0.91941   0.00000  Uiso   1.00
C762   C     0.70173   0.44157   0.97145   0.00000  Uiso   1.00
C763   C     0.74420   0.45708   0.50408   0.00000  Uiso   1.00
C764   C     0.80832   0.47479   0.98428   0.00000  Uiso   1.00
C765   C     0.82778   0.47515   0.93068   0.00000  Uiso   1.00
C766   C     0.85420   0.49271   0.51530   0.00000  Uiso   1.00
C767   C     0.91638   0.51417   0.99207   0.00000  Uiso   1.00
C768   C     0.93482   0.50755   0.93974   0.00000  Uiso   1.00
C769   C     0.89202   0.47977   0.91107   0.00000  Uiso   1.00
C770   C     0.84076   0.48983   0.56828   0.00000  Uiso   1.00
C771   C     0.94520   0.53925   0.57473   0.00000  Uiso   1.00
C772   C     0.78268   0.47062   0.89896   0.00000  Uiso   1.00
H773   H     0.79583   0.46904   0.58705   0.00000  Uiso   1.00
H774   H     0.68684   0.43871   0.89512   0.00000  Uiso   1.00
H775   H     0.72542   0.45456   0.54427   0.00000  Uiso   1.00
H776   H     0.98650   0.42605   0.98691   0.00000  Uiso   1.00
C777   C     0.85667   0.65596   0.75222   0.00000  Uiso   1.00
H778   H     0.90189   0.34641   0.75635   0.00000  Uiso   1.00
C779   C     0.80969   0.34389   0.74778   0.00000  Uiso   1.00
H780   H     0.76437   0.65332   0.74363   0.00000  Uiso   1.00
N781   N     0.98241   0.51407   0.76416   0.00000  Uiso   1.00
H782   H     0.66828   0.53597   0.79301   0.00000  Uiso   1.00
N783   N     0.68426   0.48593   0.73584   0.00000  Uiso   1.00
N784   N     0.98923   0.56994   0.60371   0.00000  Uiso   1.00
O785   O     0.71528   0.57545   0.58635   0.00000  Uiso   1.00
O786   O     0.97081   0.60036   0.64187   0.00000  Uiso   1.00
N787   N     0.99747   0.46016   0.69300   0.00000  Uiso   1.00
O788   O     0.97898   0.40916   0.69276   0.00000  Uiso   1.00
O789   O     0.68600   0.48211   0.64939   0.00000  Uiso   1.00
N790   N     0.91319   0.44877   0.86764   0.00000  Uiso   1.00
H791   H     0.95900   0.46152   0.85066   0.00000  Uiso   1.00
C792   C     0.89500   0.39242   0.87394   0.00000  Uiso   1.00
H793   H     0.91707   0.37177   0.83991   0.00000  Uiso   1.00
H794   H     0.84375   0.37891   0.87836   0.00000  Uiso   1.00
H795   H     0.91048   0.38185   0.90782   0.00000  Uiso   1.00
O796   O     0.12797   0.90474   0.74633   0.00000  Uiso   1.00
O797   O     0.22858   0.91422   0.75586   0.00000  Uiso   1.00
C798   C     0.18172   0.93332   0.75159   0.00000  Uiso   1.00
O799   O     0.09181   0.82627   0.81840   0.00000  Uiso   1.00
O800   O     0.19242   0.83575   0.82793   0.00000  Uiso   1.00
C801   C     0.13349   0.82230   0.84569   0.00000  Uiso   1.00
Cu802  Cu    0.10710   0.82772   0.74436   0.00000  Uiso   1.00
Cu803  Cu    0.22623   0.83895   0.75564   0.00000  Uiso   1.00
O804   O     0.10476   0.75245   0.74414   0.00000  Uiso   1.00
O805   O     0.20536   0.76193   0.75367   0.00000  Uiso   1.00
O806   O     0.14092   0.83092   0.67207   0.00000  Uiso   1.00
O807   O     0.24152   0.84040   0.68160   0.00000  Uiso   1.00
C808   C     0.15155   0.73330   0.74842   0.00000  Uiso   1.00
C809   C     0.20009   0.83902   0.65338   0.00000  Uiso   1.00
C810   C     0.29397   0.87159   0.52157   0.00000  Uiso   1.00
H811   H     0.31673   0.85222   0.92224   0.00000  Uiso   1.00
H812   H     0.00723   0.89005   0.50306   0.00000  Uiso   1.00
C813   C     0.21893   0.84510   0.59815   0.00000  Uiso   1.00
C814   C     0.05402   0.78251   0.91941   0.00000  Uiso   1.00
C815   C     0.03506   0.77490   0.97145   0.00000  Uiso   1.00
C816   C     0.07753   0.79042   0.50408   0.00000  Uiso   1.00
C817   C     0.14165   0.80813   0.98428   0.00000  Uiso   1.00
C818   C     0.16111   0.80849   0.93068   0.00000  Uiso   1.00
C819   C     0.18753   0.82604   0.51530   0.00000  Uiso   1.00
C820   C     0.24971   0.84750   0.99207   0.00000  Uiso   1.00
C821   C     0.26816   0.84088   0.93974   0.00000  Uiso   1.00
C822   C     0.22535   0.81311   0.91107   0.00000  Uiso   1.00
C823   C     0.17409   0.82316   0.56828   0.00000  Uiso   1.00
C824   C     0.27853   0.87258   0.57473   0.00000  Uiso   1.00
C825   C     0.11602   0.80396   0.89896   0.00000  Uiso   1.00
H826   H     0.12917   0.80237   0.58705   0.00000  Uiso   1.00
H827   H     0.02017   0.77204   0.89512   0.00000  Uiso   1.00
H828   H     0.05875   0.78789   0.54427   0.00000  Uiso   1.00
H829   H     0.31983   0.75938   0.98691   0.00000  Uiso   1.00
C830   C     0.19001   0.98930   0.75222   0.00000  Uiso   1.00
H831   H     0.23522   0.67975   0.75635   0.00000  Uiso   1.00
C832   C     0.14302   0.67722   0.74778   0.00000  Uiso   1.00
H833   H     0.09770   0.98665   0.74363   0.00000  Uiso   1.00
N834   N     0.31574   0.84741   0.76416   0.00000  Uiso   1.00
H835   H     0.00162   0.86930   0.79301   0.00000  Uiso   1.00
N836   N     0.01759   0.81926   0.73584   0.00000  Uiso   1.00
N837   N     0.32257   0.90327   0.60371   0.00000  Uiso   1.00
O838   O     0.04861   0.90879   0.58635   0.00000  Uiso   1.00
O839   O     0.30415   0.93369   0.64187   0.00000  Uiso   1.00
N840   N     0.33080   0.79350   0.69300   0.00000  Uiso   1.00
O841   O     0.31231   0.74249   0.69276   0.00000  Uiso   1.00
O842   O     0.01933   0.81544   0.64939   0.00000  Uiso   1.00
N843   N     0.24652   0.78211   0.86764   0.00000  Uiso   1.00
H844   H     0.29233   0.79485   0.85066   0.00000  Uiso   1.00
C845   C     0.22834   0.72576   0.87394   0.00000  Uiso   1.00
H846   H     0.25041   0.70511   0.83991   0.00000  Uiso   1.00
H847   H     0.17708   0.71224   0.87836   0.00000  Uiso   1.00
H848   H     0.24382   0.71518   0.90782   0.00000  Uiso   1.00
O849   O     0.46131   0.90474   0.74633   0.00000  Uiso   1.00
O850   O     0.56191   0.91422   0.75586   0.00000  Uiso   1.00
C851   C     0.51506   0.93332   0.75159   0.00000  Uiso   1.00
O852   O     0.42515   0.82627   0.81840   0.00000  Uiso   1.00
O853   O     0.52575   0.83575   0.82793   0.00000  Uiso   1.00
C854   C     0.46682   0.82230   0.84569   0.00000  Uiso   1.00
Cu855  Cu    0.44043   0.82772   0.74436   0.00000  Uiso   1.00
Cu856  Cu    0.55957   0.83895   0.75564   0.00000  Uiso   1.00
O857   O     0.43809   0.75245   0.74414   0.00000  Uiso   1.00
O858   O     0.53869   0.76193   0.75367   0.00000  Uiso   1.00
O859   O     0.47425   0.83092   0.67207   0.00000  Uiso   1.00
O860   O     0.57485   0.84040   0.68160   0.00000  Uiso   1.00
C861   C     0.48488   0.73330   0.74842   0.00000  Uiso   1.00
C862   C     0.53343   0.83902   0.65338   0.00000  Uiso   1.00
C863   C     0.62730   0.87159   0.52157   0.00000  Uiso   1.00
H864   H     0.65007   0.85222   0.92224   0.00000  Uiso   1.00
H865   H     0.34056   0.89005   0.50306   0.00000  Uiso   1.00
C866   C     0.55226   0.84510   0.59815   0.00000  Uiso   1.00
C867   C     0.38735   0.78251   0.91941   0.00000  Uiso   1.00
C868   C     0.36839   0.77490   0.97145   0.00000  Uiso   1.00
C869   C     0.41087   0.79042   0.50408   0.00000  Uiso   1.00
C870   C     0.47499   0.80813   0.98428   0.00000  Uiso   1.00
C871   C     0.49445   0.80849   0.93068   0.00000  Uiso   1.00
C872   C     0.52087   0.82604   0.51530   0.00000  Uiso   1.00
C873   C     0.58305   0.84750   0.99207   0.00000  Uiso   1.00
C874   C     0.60149   0.84088   0.93974   0.00000  Uiso   1.00
C875   C     0.55868   0.81311   0.91107   0.00000  Uiso   1.00
C876   C     0.50742   0.82316   0.56828   0.00000  Uiso   1.00
C877   C     0.61186   0.87258   0.57473   0.00000  Uiso   1.00
C878   C     0.44935   0.80396   0.89896   0.00000  Uiso   1.00
H879   H     0.46250   0.80237   0.58705   0.00000  Uiso   1.00
H880   H     0.35351   0.77204   0.89512   0.00000  Uiso   1.00
H881   H     0.39209   0.78789   0.54427   0.00000  Uiso   1.00
H882   H     0.65316   0.75938   0.98691   0.00000  Uiso   1.00
C883   C     0.52334   0.98930   0.75222   0.00000  Uiso   1.00
H884   H     0.56855   0.67975   0.75635   0.00000  Uiso   1.00
C885   C     0.47635   0.67722   0.74778   0.00000  Uiso   1.00
H886   H     0.43104   0.98665   0.74363   0.00000  Uiso   1.00
N887   N     0.64908   0.84741   0.76416   0.00000  Uiso   1.00
H888   H     0.33495   0.86930   0.79301   0.00000  Uiso   1.00
N889   N     0.35092   0.81926   0.73584   0.00000  Uiso   1.00
N890   N     0.65590   0.90327   0.60371   0.00000  Uiso   1.00
O891   O     0.38195   0.90879   0.58635   0.00000  Uiso   1.00
O892   O     0.63748   0.93369   0.64187   0.00000  Uiso   1.00
N893   N     0.66414   0.79350   0.69300   0.00000  Uiso   1.00
O894   O     0.64565   0.74249   0.69276   0.00000  Uiso   1.00
O895   O     0.35266   0.81544   0.64939   0.00000  Uiso   1.00
N896   N     0.57986   0.78211   0.86764   0.00000  Uiso   1.00
H897   H     0.62566   0.79485   0.85066   0.00000  Uiso   1.00
C898   C     0.56167   0.72576   0.87394   0.00000  Uiso   1.00
H899   H     0.58374   0.70511   0.83991   0.00000  Uiso   1.00
H900   H     0.51042   0.71224   0.87836   0.00000  Uiso   1.00
H901   H     0.57715   0.71518   0.90782   0.00000  Uiso   1.00
O902   O     0.79464   0.90474   0.74633   0.00000  Uiso   1.00
O903   O     0.89524   0.91422   0.75586   0.00000  Uiso   1.00
C904   C     0.84839   0.93332   0.75159   0.00000  Uiso   1.00
O905   O     0.75848   0.82627   0.81840   0.00000  Uiso   1.00
O906   O     0.85908   0.83575   0.82793   0.00000  Uiso   1.00
C907   C     0.80015   0.82230   0.84569   0.00000  Uiso   1.00
Cu908  Cu    0.77377   0.82772   0.74436   0.00000  Uiso   1.00
Cu909  Cu    0.89290   0.83895   0.75564   0.00000  Uiso   1.00
O910   O     0.77142   0.75245   0.74414   0.00000  Uiso   1.00
O911   O     0.87203   0.76193   0.75367   0.00000  Uiso   1.00
O912   O     0.80758   0.83092   0.67207   0.00000  Uiso   1.00
O913   O     0.90819   0.84040   0.68160   0.00000  Uiso   1.00
C914   C     0.81821   0.73330   0.74842   0.00000  Uiso   1.00
C915   C     0.86676   0.83902   0.65338   0.00000  Uiso   1.00
C916   C     0.96063   0.87159   0.52157   0.00000  Uiso   1.00
H917   H     0.98340   0.85222   0.92224   0.00000  Uiso   1.00
H918   H     0.67389   0.89005   0.50306   0.00000  Uiso   1.00
C919   C     0.88560   0.84510   0.59815   0.00000  Uiso   1.00
C920   C     0.72068   0.78251   0.91941   0.00000  Uiso   1.00
C921   C     0.70173   0.77490   0.97145   0.00000  Uiso   1.00
C922   C     0.74420   0.79042   0.50408   0.00000  Uiso   1.00
C923   C     0.80832   0.80813   0.98428   0.00000  Uiso   1.00
C924   C     0.82778   0.80849   0.93068   0.00000  Uiso   1.00
C925   C     0.85420   0.82604   0.51530   0.00000  Uiso   1.00
C926   C     0.91638   0.84750   0.99207   0.00000  Uiso   1.00
C927   C     0.93482   0.84088   0.93974   0.00000  Uiso   1.00
C928   C     0.89202   0.81311   0.91107   0.00000  Uiso   1.00
C929   C     0.84076   0.82316   0.56828   0.00000  Uiso   1.00
C930   C     0.94520   0.87258   0.57473   0.00000  Uiso   1.00
C931   C     0.78268   0.80396   0.89896   0.00000  Uiso   1.00
H932   H     0.79583   0.80237   0.58705   0.00000  Uiso   1.00
H933   H     0.68684   0.77204   0.89512   0.00000  Uiso   1.00
H934   H     0.72542   0.78789   0.54427   0.00000  Uiso   1.00
H935   H     0.98650   0.75938   0.98691   0.00000  Uiso   1.00
C936   C     0.85667   0.98930   0.75222   0.00000  Uiso   1.00
H937   H     0.90189   0.67975   0.75635   0.00000  Uiso   1.00
C938   C     0.80969   0.67722   0.74778   0.00000  Uiso   1.00
H939   H     0.76437   0.98665   0.74363   0.00000  Uiso   1.00
N940   N     0.98241   0.84741   0.76416   0.00000  Uiso   1.00
H941   H     0.66828   0.86930   0.79301   0.00000  Uiso   1.00
N942   N     0.68426   0.81926   0.73584   0.00000  Uiso   1.00
N943   N     0.98923   0.90327   0.60371   0.00000  Uiso   1.00
O944   O     0.71528   0.90879   0.58635   0.00000  Uiso   1.00
O945   O     0.97081   0.93369   0.64187   0.00000  Uiso   1.00
N946   N     0.99747   0.79350   0.69300   0.00000  Uiso   1.00
O947   O     0.97898   0.74249   0.69276   0.00000  Uiso   1.00
O948   O     0.68600   0.81544   0.64939   0.00000  Uiso   1.00
N949   N     0.91319   0.78211   0.86764   0.00000  Uiso   1.00
H950   H     0.95900   0.79485   0.85066   0.00000  Uiso   1.00
C951   C     0.89500   0.72576   0.87394   0.00000  Uiso   1.00
H952   H     0.91707   0.70511   0.83991   0.00000  Uiso   1.00
H953   H     0.84375   0.71224   0.87836   0.00000  Uiso   1.00
H954   H     0.91048   0.71518   0.90782   0.00000  Uiso   1.00
loop_
_geom_bond_atom_site_label_1
_geom_bond_atom_site_label_2
_geom_bond_distance
_geom_bond_site_symmetry_2
_ccdc_geom_bond_type
O1     Cu7     1.954   .     S
O1     C3      1.294   .     A
O2     C3      1.293   .     A
O2     Cu8     1.951   .     S
C3     C35     1.428   .     S
O4     Cu7     1.948   .     S
O4     C6      1.326   .     A
O5     Cu8     1.936   .     S
O5     C6      1.292   .     A
C6     C30     1.492   .     S
Cu7    Cu8     2.704   .     S
Cu7    O11     1.936   .     S
Cu7    N41     2.032   .     S
Cu7    O9      1.951   .     S
Cu8    N39     2.032   .     S
Cu8    O12     1.948   .     S
Cu8    O10     1.954   .     S
O9     C13     1.292   .     A
O10    C13     1.296   .     A
O11    C14     1.299   .     A
O12    C14     1.306   .     A
C13    C37     1.430   .     S
C14    C18     1.468   .     S
C15    C29     1.397   .     A
C15    H70     1.084   .     S
C15    C502    1.400   1_554 S
H16    C26     1.082   .     S
H17    C121    1.084   1_455 S
C18    C29     1.415   .     A
C18    C28     1.404   .     A
C19    C20     1.392   .     A
C19    H32     1.074   .     S
C19    C30     1.394   .     A
C20    C498    1.394   .     S
C20    H140    1.083   1_455 S
C21    H33     1.077   .     S
C21    C497    1.394   1_554 S
C21    C499    1.415   1_554 S
C22    C23     1.416   .     A
C22    C498    1.415   .     S
C22    C501    1.427   .     S
C23    C27     1.416   .     A
C23    C30     1.429   .     A
C24    C28     1.396   .     A
C24    C499    1.427   1_554 S
C24    C502    1.417   1_554 S
C25    C26     1.389   .     A
C25    C501    1.417   .     S
C25    C492    1.400   .     S
C26    C27     1.389   .     A
C27    N48     1.426   .     S
C28    H31     1.076   .     S
C29    N42     1.438   .     S
H34    C73     1.083   .     S
C35    H195    1.084   .     S
C35    C196    1.330   .     S
H36    C353    1.084   1_545 S
C37    C353    1.330   1_545 S
C37    H356    1.088   1_545 S
H38    C196    1.088   .     S
N39    H93     1.029   .     S
N39    N94     1.294   .     S
H40    N145    1.029   1_455 S
N41    N145    1.294   1_455 S
N41    N151    1.385   1_455 S
N42    O44     1.301   .     A
N42    O96     1.302   .     S
O43    N148    1.302   1_455 S
N45    O46     1.299   .     A
N45    N94     1.385   .     S
N45    O100    1.299   .     S
O47    N151    1.299   1_455 S
N48    C50     1.447   .     S
N48    H49     1.029   .     S
C50    H52     1.111   .     S
C50    H53     1.112   .     S
C50    H51     1.108   .     S
O54    Cu60    1.954   .     S
O54    C56     1.294   .     A
O55    C56     1.293   .     A
O55    Cu61    1.951   .     S
C56    C88     1.428   .     S
O57    Cu60    1.948   .     S
O57    C59     1.326   .     A
O58    Cu61    1.936   .     S
O58    C59     1.292   .     A
C59    C83     1.492   .     S
Cu60   Cu61    2.704   .     S
Cu60   O64     1.936   .     S
Cu60   N94     2.032   .     S
Cu60   O62     1.951   .     S
Cu61   N92     2.032   .     S
Cu61   O65     1.948   .     S
Cu61   O63     1.954   .     S
O62    C66     1.292   .     A
O63    C66     1.296   .     A
O64    C67     1.299   .     A
O65    C67     1.306   .     A
C66    C90     1.430   .     S
C67    C71     1.468   .     S
C68    C82     1.397   .     A
C68    H123    1.084   .     S
C68    C555    1.400   1_554 S
H69    C79     1.082   .     S
C71    C82     1.415   .     A
C71    C81     1.404   .     A
C72    C73     1.392   .     A
C72    H85     1.074   .     S
C72    C83     1.394   .     A
C73    C551    1.394   .     S
C74    H86     1.077   .     S
C74    C550    1.394   1_554 S
C74    C552    1.415   1_554 S
C75    C76     1.416   .     A
C75    C551    1.415   .     S
C75    C554    1.427   .     S
C76    C80     1.416   .     A
C76    C83     1.429   .     A
C77    C81     1.396   .     A
C77    C552    1.427   1_554 S
C77    C555    1.417   1_554 S
C78    C79     1.389   .     A
C78    C554    1.417   .     S
C78    C545    1.400   .     S
C79    C80     1.389   .     A
C80    N101    1.426   .     S
C81    H84     1.076   .     S
C82    N95     1.438   .     S
H87    C126    1.083   .     S
C88    H248    1.084   .     S
C88    C249    1.330   .     S
H89    C406    1.084   1_545 S
C90    C406    1.330   1_545 S
C90    H409    1.088   1_545 S
H91    C249    1.088   .     S
N92    H146    1.029   .     S
N92    N147    1.294   .     S
N95    O97     1.301   .     A
N95    O149    1.302   .     S
N98    O99     1.299   .     A
N98    N147    1.385   .     S
N98    O153    1.299   .     S
N101   C103    1.447   .     S
N101   H102    1.029   .     S
C103   H105    1.111   .     S
C103   H106    1.112   .     S
C103   H104    1.108   .     S
O107   Cu113   1.954   .     S
O107   C109    1.294   .     A
O108   C109    1.293   .     A
O108   Cu114   1.951   .     S
C109   C141    1.428   .     S
O110   Cu113   1.948   .     S
O110   C112    1.326   .     A
O111   Cu114   1.936   .     S
O111   C112    1.292   .     A
C112   C136    1.492   .     S
Cu113  Cu114   2.704   .     S
Cu113  O117    1.936   .     S
Cu113  N147    2.032   .     S
Cu113  O115    1.951   .     S
Cu114  N145    2.032   .     S
Cu114  O118    1.948   .     S
Cu114  O116    1.954   .     S
O115   C119    1.292   .     A
O116   C119    1.296   .     A
O117   C120    1.299   .     A
O118   C120    1.306   .     A
C119   C143    1.430   .     S
C120   C124    1.468   .     S
C121   C135    1.397   .     A
C121   H17     1.084   1_655 S
C121   C608    1.400   1_554 S
H122   C132    1.082   .     S
C124   C135    1.415   .     A
C124   C134    1.404   .     A
C125   C126    1.392   .     A
C125   H138    1.074   .     S
C125   C136    1.394   .     A
C126   C604    1.394   .     S
C127   H139    1.077   .     S
C127   C603    1.394   1_554 S
C127   C605    1.415   1_554 S
C128   C129    1.416   .     A
C128   C604    1.415   .     S
C128   C607    1.427   .     S
C129   C133    1.416   .     A
C129   C136    1.429   .     A
C130   C134    1.396   .     A
C130   C605    1.427   1_554 S
C130   C608    1.417   1_554 S
C131   C132    1.389   .     A
C131   C607    1.417   .     S
C131   C598    1.400   .     S
C132   C133    1.389   .     A
C133   N154    1.426   .     S
C134   H137    1.076   .     S
C135   N148    1.438   .     S
H140   C20     1.083   1_655 S
C141   H301    1.084   .     S
C141   C302    1.330   .     S
H142   C459    1.084   1_545 S
C143   C459    1.330   1_545 S
C143   H462    1.088   1_545 S
H144   C302    1.088   .     S
N145   H40     1.029   1_655 S
N145   N41     1.294   1_655 S
N148   O150    1.301   .     A
N148   O43     1.302   1_655 S
N151   O152    1.299   .     A
N151   N41     1.385   1_655 S
N151   O47     1.299   1_655 S
N154   C156    1.447   .     S
N154   H155    1.029   .     S
C156   H158    1.111   .     S
C156   H159    1.112   .     S
C156   H157    1.108   .     S
O160   Cu166   1.954   .     S
O160   C162    1.294   .     A
O161   C162    1.293   .     A
O161   Cu167   1.951   .     S
C162   C194    1.428   .     S
O163   Cu166   1.948   .     S
O163   C165    1.326   .     A
O164   Cu167   1.936   .     S
O164   C165    1.292   .     A
C165   C189    1.492   .     S
Cu166  Cu167   2.704   .     S
Cu166  O170    1.936   .     S
Cu166  N200    2.032   .     S
Cu166  O168    1.951   .     S
Cu167  N198    2.032   .     S
Cu167  O171    1.948   .     S
Cu167  O169    1.954   .     S
O168   C172    1.292   .     A
O169   C172    1.296   .     A
O170   C173    1.299   .     A
O171   C173    1.306   .     A
C172   C196    1.430   .     S
C173   C177    1.468   .     S
C174   C188    1.397   .     A
C174   H229    1.084   .     S
C174   C661    1.400   1_554 S
H175   C185    1.082   .     S
H176   C280    1.084   1_455 S
C177   C188    1.415   .     A
C177   C187    1.404   .     A
C178   C179    1.392   .     A
C178   H191    1.074   .     S
C178   C189    1.394   .     A
C179   C657    1.394   .     S
C179   H299    1.083   1_455 S
C180   H192    1.077   .     S
C180   C656    1.394   1_554 S
C180   C658    1.415   1_554 S
C181   C182    1.416   .     A
C181   C657    1.415   .     S
C181   C660    1.427   .     S
C182   C186    1.416   .     A
C182   C189    1.429   .     A
C183   C187    1.396   .     A
C183   C658    1.427   1_554 S
C183   C661    1.417   1_554 S
C184   C185    1.389   .     A
C184   C660    1.417   .     S
C184   C651    1.400   .     S
C185   C186    1.389   .     A
C186   N207    1.426   .     S
C187   H190    1.076   .     S
C188   N201    1.438   .     S
H193   C232    1.083   .     S
C194   H354    1.084   .     S
C194   C355    1.330   .     S
H197   C355    1.088   .     S
N198   H252    1.029   .     S
N198   N253    1.294   .     S
H199   N304    1.029   1_455 S
N200   N304    1.294   1_455 S
N200   N310    1.385   1_455 S
N201   O203    1.301   .     A
N201   O255    1.302   .     S
O202   N307    1.302   1_455 S
N204   O205    1.299   .     A
N204   N253    1.385   .     S
N204   O259    1.299   .     S
O206   N310    1.299   1_455 S
N207   C209    1.447   .     S
N207   H208    1.029   .     S
C209   H211    1.111   .     S
C209   H212    1.112   .     S
C209   H210    1.108   .     S
O213   Cu219   1.954   .     S
O213   C215    1.294   .     A
O214   C215    1.293   .     A
O214   Cu220   1.951   .     S
C215   C247    1.428   .     S
O216   Cu219   1.948   .     S
O216   C218    1.326   .     A
O217   Cu220   1.936   .     S
O217   C218    1.292   .     A
C218   C242    1.492   .     S
Cu219  Cu220   2.704   .     S
Cu219  O223    1.936   .     S
Cu219  N253    2.032   .     S
Cu219  O221    1.951   .     S
Cu220  N251    2.032   .     S
Cu220  O224    1.948   .     S
Cu220  O222    1.954   .     S
O221   C225    1.292   .     A
O222   C225    1.296   .     A
O223   C226    1.299   .     A
O224   C226    1.306   .     A
C225   C249    1.430   .     S
C226   C230    1.468   .     S
C227   C241    1.397   .     A
C227   H282    1.084   .     S
C227   C714    1.400   1_554 S
H228   C238    1.082   .     S
C230   C241    1.415   .     A
C230   C240    1.404   .     A
C231   C232    1.392   .     A
C231   H244    1.074   .     S
C231   C242    1.394   .     A
C232   C710    1.394   .     S
C233   H245    1.077   .     S
C233   C709    1.394   1_554 S
C233   C711    1.415   1_554 S
C234   C235    1.416   .     A
C234   C710    1.415   .     S
C234   C713    1.427   .     S
C235   C239    1.416   .     A
C235   C242    1.429   .     A
C236   C240    1.396   .     A
C236   C711    1.427   1_554 S
C236   C714    1.417   1_554 S
C237   C238    1.389   .     A
C237   C713    1.417   .     S
C237   C704    1.400   .     S
C238   C239    1.389   .     A
C239   N260    1.426   .     S
C240   H243    1.076   .     S
C241   N254    1.438   .     S
H246   C285    1.083   .     S
C247   H407    1.084   .     S
C247   C408    1.330   .     S
H250   C408    1.088   .     S
N251   H305    1.029   .     S
N251   N306    1.294   .     S
N254   O256    1.301   .     A
N254   O308    1.302   .     S
N257   O258    1.299   .     A
N257   N306    1.385   .     S
N257   O312    1.299   .     S
N260   C262    1.447   .     S
N260   H261    1.029   .     S
C262   H264    1.111   .     S
C262   H265    1.112   .     S
C262   H263    1.108   .     S
O266   Cu272   1.954   .     S
O266   C268    1.294   .     A
O267   C268    1.293   .     A
O267   Cu273   1.951   .     S
C268   C300    1.428   .     S
O269   Cu272   1.948   .     S
O269   C271    1.326   .     A
O270   Cu273   1.936   .     S
O270   C271    1.292   .     A
C271   C295    1.492   .     S
Cu272  Cu273   2.704   .     S
Cu272  O276    1.936   .     S
Cu272  N306    2.032   .     S
Cu272  O274    1.951   .     S
Cu273  N304    2.032   .     S
Cu273  O277    1.948   .     S
Cu273  O275    1.954   .     S
O274   C278    1.292   .     A
O275   C278    1.296   .     A
O276   C279    1.299   .     A
O277   C279    1.306   .     A
C278   C302    1.430   .     S
C279   C283    1.468   .     S
C280   C294    1.397   .     A
C280   H176    1.084   1_655 S
C280   C767    1.400   1_554 S
H281   C291    1.082   .     S
C283   C294    1.415   .     A
C283   C293    1.404   .     A
C284   C285    1.392   .     A
C284   H297    1.074   .     S
C284   C295    1.394   .     A
C285   C763    1.394   .     S
C286   H298    1.077   .     S
C286   C762    1.394   1_554 S
C286   C764    1.415   1_554 S
C287   C288    1.416   .     A
C287   C763    1.415   .     S
C287   C766    1.427   .     S
C288   C292    1.416   .     A
C288   C295    1.429   .     A
C289   C293    1.396   .     A
C289   C764    1.427   1_554 S
C289   C767    1.417   1_554 S
C290   C291    1.389   .     A
C290   C766    1.417   .     S
C290   C757    1.400   .     S
C291   C292    1.389   .     A
C292   N313    1.426   .     S
C293   H296    1.076   .     S
C294   N307    1.438   .     S
H299   C179    1.083   1_655 S
C300   H460    1.084   .     S
C300   C461    1.330   .     S
H303   C461    1.088   .     S
N304   H199    1.029   1_655 S
N304   N200    1.294   1_655 S
N307   O309    1.301   .     A
N307   O202    1.302   1_655 S
N310   O311    1.299   .     A
N310   N200    1.385   1_655 S
N310   O206    1.299   1_655 S
N313   C315    1.447   .     S
N313   H314    1.029   .     S
C315   H317    1.111   .     S
C315   H318    1.112   .     S
C315   H316    1.108   .     S
O319   Cu325   1.954   .     S
O319   C321    1.294   .     A
O320   C321    1.293   .     A
O320   Cu326   1.951   .     S
C321   C353    1.428   .     S
O322   Cu325   1.948   .     S
O322   C324    1.326   .     A
O323   Cu326   1.936   .     S
O323   C324    1.292   .     A
C324   C348    1.492   .     S
Cu325  Cu326   2.704   .     S
Cu325  O329    1.936   .     S
Cu325  N359    2.032   .     S
Cu325  O327    1.951   .     S
Cu326  N357    2.032   .     S
Cu326  O330    1.948   .     S
Cu326  O328    1.954   .     S
O327   C331    1.292   .     A
O328   C331    1.296   .     A
O329   C332    1.299   .     A
O330   C332    1.306   .     A
C331   C355    1.430   .     S
C332   C336    1.468   .     S
C333   C347    1.397   .     A
C333   H388    1.084   .     S
C333   C820    1.400   1_554 S
H334   C344    1.082   .     S
H335   C439    1.084   1_455 S
C336   C347    1.415   .     A
C336   C346    1.404   .     A
C337   C338    1.392   .     A
C337   H350    1.074   .     S
C337   C348    1.394   .     A
C338   C816    1.394   .     S
C338   H458    1.083   1_455 S
C339   H351    1.077   .     S
C339   C815    1.394   1_554 S
C339   C817    1.415   1_554 S
C340   C341    1.416   .     A
C340   C816    1.415   .     S
C340   C819    1.427   .     S
C341   C345    1.416   .     A
C341   C348    1.429   .     A
C342   C346    1.396   .     A
C342   C817    1.427   1_554 S
C342   C820    1.417   1_554 S
C343   C344    1.389   .     A
C343   C819    1.417   .     S
C343   C810    1.400   .     S
C344   C345    1.389   .     A
C345   N366    1.426   .     S
C346   H349    1.076   .     S
C347   N360    1.438   .     S
H352   C391    1.083   .     S
C353   H36     1.084   1_565 S
C353   C37     1.330   1_565 S
H356   C37     1.088   1_565 S
N357   H411    1.029   .     S
N357   N412    1.294   .     S
H358   N463    1.029   1_455 S
N359   N463    1.294   1_455 S
N359   N469    1.385   1_455 S
N360   O362    1.301   .     A
N360   O414    1.302   .     S
O361   N466    1.302   1_455 S
N363   O364    1.299   .     A
N363   N412    1.385   .     S
N363   O418    1.299   .     S
O365   N469    1.299   1_455 S
N366   C368    1.447   .     S
N366   H367    1.029   .     S
C368   H370    1.111   .     S
C368   H371    1.112   .     S
C368   H369    1.108   .     S
O372   Cu378   1.954   .     S
O372   C374    1.294   .     A
O373   C374    1.293   .     A
O373   Cu379   1.951   .     S
C374   C406    1.428   .     S
O375   Cu378   1.948   .     S
O375   C377    1.326   .     A
O376   Cu379   1.936   .     S
O376   C377    1.292   .     A
C377   C401    1.492   .     S
Cu378  Cu379   2.704   .     S
Cu378  O382    1.936   .     S
Cu378  N412    2.032   .     S
Cu378  O380    1.951   .     S
Cu379  N410    2.032   .     S
Cu379  O383    1.948   .     S
Cu379  O381    1.954   .     S
O380   C384    1.292   .     A
O381   C384    1.296   .     A
O382   C385    1.299   .     A
O383   C385    1.306   .     A
C384   C408    1.430   .     S
C385   C389    1.468   .     S
C386   C400    1.397   .     A
C386   H441    1.084   .     S
C386   C873    1.400   1_554 S
H387   C397    1.082   .     S
C389   C400    1.415   .     A
C389   C399    1.404   .     A
C390   C391    1.392   .     A
C390   H403    1.074   .     S
C390   C401    1.394   .     A
C391   C869    1.394   .     S
C392   H404    1.077   .     S
C392   C868    1.394   1_554 S
C392   C870    1.415   1_554 S
C393   C394    1.416   .     A
C393   C869    1.415   .     S
C393   C872    1.427   .     S
C394   C398    1.416   .     A
C394   C401    1.429   .     A
C395   C399    1.396   .     A
C395   C870    1.427   1_554 S
C395   C873    1.417   1_554 S
C396   C397    1.389   .     A
C396   C872    1.417   .     S
C396   C863    1.400   .     S
C397   C398    1.389   .     A
C398   N419    1.426   .     S
C399   H402    1.076   .     S
C400   N413    1.438   .     S
H405   C444    1.083   .     S
C406   H89     1.084   1_565 S
C406   C90     1.330   1_565 S
H409   C90     1.088   1_565 S
N410   H464    1.029   .     S
N410   N465    1.294   .     S
N413   O415    1.301   .     A
N413   O467    1.302   .     S
N416   O417    1.299   .     A
N416   N465    1.385   .     S
N416   O471    1.299   .     S
N419   C421    1.447   .     S
N419   H420    1.029   .     S
C421   H423    1.111   .     S
C421   H424    1.112   .     S
C421   H422    1.108   .     S
O425   Cu431   1.954   .     S
O425   C427    1.294   .     A
O426   C427    1.293   .     A
O426   Cu432   1.951   .     S
C427   C459    1.428   .     S
O428   Cu431   1.948   .     S
O428   C430    1.326   .     A
O429   Cu432   1.936   .     S
O429   C430    1.292   .     A
C430   C454    1.492   .     S
Cu431  Cu432   2.704   .     S
Cu431  O435    1.936   .     S
Cu431  N465    2.032   .     S
Cu431  O433    1.951   .     S
Cu432  N463    2.032   .     S
Cu432  O436    1.948   .     S
Cu432  O434    1.954   .     S
O433   C437    1.292   .     A
O434   C437    1.296   .     A
O435   C438    1.299   .     A
O436   C438    1.306   .     A
C437   C461    1.430   .     S
C438   C442    1.468   .     S
C439   C453    1.397   .     A
C439   H335    1.084   1_655 S
C439   C926    1.400   1_554 S
H440   C450    1.082   .     S
C442   C453    1.415   .     A
C442   C452    1.404   .     A
C443   C444    1.392   .     A
C443   H456    1.074   .     S
C443   C454    1.394   .     A
C444   C922    1.394   .     S
C445   H457    1.077   .     S
C445   C921    1.394   1_554 S
C445   C923    1.415   1_554 S
C446   C447    1.416   .     A
C446   C922    1.415   .     S
C446   C925    1.427   .     S
C447   C451    1.416   .     A
C447   C454    1.429   .     A
C448   C452    1.396   .     A
C448   C923    1.427   1_554 S
C448   C926    1.417   1_554 S
C449   C450    1.389   .     A
C449   C925    1.417   .     S
C449   C916    1.400   .     S
C450   C451    1.389   .     A
C451   N472    1.426   .     S
C452   H455    1.076   .     S
C453   N466    1.438   .     S
H458   C338    1.083   1_655 S
C459   H142    1.084   1_565 S
C459   C143    1.330   1_565 S
H462   C143    1.088   1_565 S
N463   H358    1.029   1_655 S
N463   N359    1.294   1_655 S
N466   O468    1.301   .     A
N466   O361    1.302   1_655 S
N469   O470    1.299   .     A
N469   N359    1.385   1_655 S
N469   O365    1.299   1_655 S
N472   C474    1.447   .     S
N472   H473    1.029   .     S
C474   H476    1.111   .     S
C474   H477    1.112   .     S
C474   H475    1.108   .     S
O478   Cu484   1.954   .     S
O478   C480    1.294   .     A
O479   C480    1.293   .     A
O479   Cu485   1.951   .     S
C480   C512    1.428   .     S
O481   Cu484   1.948   .     S
O481   C483    1.326   .     A
O482   Cu485   1.936   .     S
O482   C483    1.292   .     A
C483   C507    1.492   .     S
Cu484  Cu485   2.704   .     S
Cu484  O488    1.936   .     S
Cu484  N518    2.032   .     S
Cu484  O486    1.951   .     S
Cu485  N516    2.032   .     S
Cu485  O489    1.948   .     S
Cu485  O487    1.954   .     S
O486   C490    1.292   .     A
O487   C490    1.296   .     A
O488   C491    1.299   .     A
O489   C491    1.306   .     A
C490   C514    1.430   .     S
C491   C495    1.468   .     S
C492   C506    1.397   .     A
C492   H547    1.084   .     S
H493   C503    1.082   .     S
H494   C598    1.084   1_455 S
C495   C506    1.415   .     A
C495   C505    1.404   .     A
C496   C497    1.392   .     A
C496   H509    1.074   .     S
C496   C507    1.394   .     A
C497   C21     1.394   1_556 S
C497   H617    1.083   1_455 S
C498   H510    1.077   .     S
C499   C500    1.416   .     A
C499   C21     1.415   1_556 S
C499   C24     1.427   1_556 S
C500   C504    1.416   .     A
C500   C507    1.429   .     A
C501   C505    1.396   .     A
C502   C503    1.389   .     A
C502   C24     1.417   1_556 S
C502   C15     1.400   1_556 S
C503   C504    1.389   .     A
C504   N525    1.426   .     S
C505   H508    1.076   .     S
C506   N519    1.438   .     S
H511   C550    1.083   .     S
C512   H672    1.084   .     S
C512   C673    1.330   .     S
H513   C830    1.084   1_545 S
C514   C830    1.330   1_545 S
C514   H833    1.088   1_545 S
H515   C673    1.088   .     S
N516   H570    1.029   .     S
N516   N571    1.294   .     S
H517   N622    1.029   1_455 S
N518   N622    1.294   1_455 S
N518   N628    1.385   1_455 S
N519   O521    1.301   .     A
N519   O573    1.302   .     S
O520   N625    1.302   1_455 S
N522   O523    1.299   .     A
N522   N571    1.385   .     S
N522   O577    1.299   .     S
O524   N628    1.299   1_455 S
N525   C527    1.447   .     S
N525   H526    1.029   .     S
C527   H529    1.111   .     S
C527   H530    1.112   .     S
C527   H528    1.108   .     S
O531   Cu537   1.954   .     S
O531   C533    1.294   .     A
O532   C533    1.293   .     A
O532   Cu538   1.951   .     S
C533   C565    1.428   .     S
O534   Cu537   1.948   .     S
O534   C536    1.326   .     A
O535   Cu538   1.936   .     S
O535   C536    1.292   .     A
C536   C560    1.492   .     S
Cu537  Cu538   2.704   .     S
Cu537  O541    1.936   .     S
Cu537  N571    2.032   .     S
Cu537  O539    1.951   .     S
Cu538  N569    2.032   .     S
Cu538  O542    1.948   .     S
Cu538  O540    1.954   .     S
O539   C543    1.292   .     A
O540   C543    1.296   .     A
O541   C544    1.299   .     A
O542   C544    1.306   .     A
C543   C567    1.430   .     S
C544   C548    1.468   .     S
C545   C559    1.397   .     A
C545   H600    1.084   .     S
H546   C556    1.082   .     S
C548   C559    1.415   .     A
C548   C558    1.404   .     A
C549   C550    1.392   .     A
C549   H562    1.074   .     S
C549   C560    1.394   .     A
C550   C74     1.394   1_556 S
C551   H563    1.077   .     S
C552   C553    1.416   .     A
C552   C74     1.415   1_556 S
C552   C77     1.427   1_556 S
C553   C557    1.416   .     A
C553   C560    1.429   .     A
C554   C558    1.396   .     A
C555   C556    1.389   .     A
C555   C77     1.417   1_556 S
C555   C68     1.400   1_556 S
C556   C557    1.389   .     A
C557   N578    1.426   .     S
C558   H561    1.076   .     S
C559   N572    1.438   .     S
H564   C603    1.083   .     S
C565   H725    1.084   .     S
C565   C726    1.330   .     S
H566   C883    1.084   1_545 S
C567   C883    1.330   1_545 S
C567   H886    1.088   1_545 S
H568   C726    1.088   .     S
N569   H623    1.029   .     S
N569   N624    1.294   .     S
N572   O574    1.301   .     A
N572   O626    1.302   .     S
N575   O576    1.299   .     A
N575   N624    1.385   .     S
N575   O630    1.299   .     S
N578   C580    1.447   .     S
N578   H579    1.029   .     S
C580   H582    1.111   .     S
C580   H583    1.112   .     S
C580   H581    1.108   .     S
O584   Cu590   1.954   .     S
O584   C586    1.294   .     A
O585   C586    1.293   .     A
O585   Cu591   1.951   .     S
C586   C618    1.428   .     S
O587   Cu590   1.948   .     S
O587   C589    1.326   .     A
O588   Cu591   1.936   .     S
O588   C589    1.292   .     A
C589   C613    1.492   .     S
Cu590  Cu591   2.704   .     S
Cu590  O594    1.936   .     S
Cu590  N624    2.032   .     S
Cu590  O592    1.951   .     S
Cu591  N622    2.032   .     S
Cu591  O595    1.948   .     S
Cu591  O593    1.954   .     S
O592   C596    1.292   .     A
O593   C596    1.296   .     A
O594   C597    1.299   .     A
O595   C597    1.306   .     A
C596   C620    1.430   .     S
C597   C601    1.468   .     S
C598   C612    1.397   .     A
C598   H494    1.084   1_655 S
H599   C609    1.082   .     S
C601   C612    1.415   .     A
C601   C611    1.404   .     A
C602   C603    1.392   .     A
C602   H615    1.074   .     S
C602   C613    1.394   .     A
C603   C127    1.394   1_556 S
C604   H616    1.077   .     S
C605   C606    1.416   .     A
C605   C127    1.415   1_556 S
C605   C130    1.427   1_556 S
C606   C610    1.416   .     A
C606   C613    1.429   .     A
C607   C611    1.396   .     A
C608   C609    1.389   .     A
C608   C130    1.417   1_556 S
C608   C121    1.400   1_556 S
C609   C610    1.389   .     A
C610   N631    1.426   .     S
C611   H614    1.076   .     S
C612   N625    1.438   .     S
H617   C497    1.083   1_655 S
C618   H778    1.084   .     S
C618   C779    1.330   .     S
H619   C936    1.084   1_545 S
C620   C936    1.330   1_545 S
C620   H939    1.088   1_545 S
H621   C779    1.088   .     S
N622   H517    1.029   1_655 S
N622   N518    1.294   1_655 S
N625   O627    1.301   .     A
N625   O520    1.302   1_655 S
N628   O629    1.299   .     A
N628   N518    1.385   1_655 S
N628   O524    1.299   1_655 S
N631   C633    1.447   .     S
N631   H632    1.029   .     S
C633   H635    1.111   .     S
C633   H636    1.112   .     S
C633   H634    1.108   .     S
O637   Cu643   1.954   .     S
O637   C639    1.294   .     A
O638   C639    1.293   .     A
O638   Cu644   1.951   .     S
C639   C671    1.428   .     S
O640   Cu643   1.948   .     S
O640   C642    1.326   .     A
O641   Cu644   1.936   .     S
O641   C642    1.292   .     A
C642   C666    1.492   .     S
Cu643  Cu644   2.704   .     S
Cu643  O647    1.936   .     S
Cu643  N677    2.032   .     S
Cu643  O645    1.951   .     S
Cu644  N675    2.032   .     S
Cu644  O648    1.948   .     S
Cu644  O646    1.954   .     S
O645   C649    1.292   .     A
O646   C649    1.296   .     A
O647   C650    1.299   .     A
O648   C650    1.306   .     A
C649   C673    1.430   .     S
C650   C654    1.468   .     S
C651   C665    1.397   .     A
C651   H706    1.084   .     S
H652   C662    1.082   .     S
H653   C757    1.084   1_455 S
C654   C665    1.415   .     A
C654   C664    1.404   .     A
C655   C656    1.392   .     A
C655   H668    1.074   .     S
C655   C666    1.394   .     A
C656   C180    1.394   1_556 S
C656   H776    1.083   1_455 S
C657   H669    1.077   .     S
C658   C659    1.416   .     A
C658   C180    1.415   1_556 S
C658   C183    1.427   1_556 S
C659   C663    1.416   .     A
C659   C666    1.429   .     A
C660   C664    1.396   .     A
C661   C662    1.389   .     A
C661   C183    1.417   1_556 S
C661   C174    1.400   1_556 S
C662   C663    1.389   .     A
C663   N684    1.426   .     S
C664   H667    1.076   .     S
C665   N678    1.438   .     S
H670   C709    1.083   .     S
C671   H831    1.084   .     S
C671   C832    1.330   .     S
H674   C832    1.088   .     S
N675   H729    1.029   .     S
N675   N730    1.294   .     S
H676   N781    1.029   1_455 S
N677   N781    1.294   1_455 S
N677   N787    1.385   1_455 S
N678   O680    1.301   .     A
N678   O732    1.302   .     S
O679   N784    1.302   1_455 S
N681   O682    1.299   .     A
N681   N730    1.385   .     S
N681   O736    1.299   .     S
O683   N787    1.299   1_455 S
N684   C686    1.447   .     S
N684   H685    1.029   .     S
C686   H688    1.111   .     S
C686   H689    1.112   .     S
C686   H687    1.108   .     S
O690   Cu696   1.954   .     S
O690   C692    1.294   .     A
O691   C692    1.293   .     A
O691   Cu697   1.951   .     S
C692   C724    1.428   .     S
O693   Cu696   1.948   .     S
O693   C695    1.326   .     A
O694   Cu697   1.936   .     S
O694   C695    1.292   .     A
C695   C719    1.492   .     S
Cu696  Cu697   2.704   .     S
Cu696  O700    1.936   .     S
Cu696  N730    2.032   .     S
Cu696  O698    1.951   .     S
Cu697  N728    2.032   .     S
Cu697  O701    1.948   .     S
Cu697  O699    1.954   .     S
O698   C702    1.292   .     A
O699   C702    1.296   .     A
O700   C703    1.299   .     A
O701   C703    1.306   .     A
C702   C726    1.430   .     S
C703   C707    1.468   .     S
C704   C718    1.397   .     A
C704   H759    1.084   .     S
H705   C715    1.082   .     S
C707   C718    1.415   .     A
C707   C717    1.404   .     A
C708   C709    1.392   .     A
C708   H721    1.074   .     S
C708   C719    1.394   .     A
C709   C233    1.394   1_556 S
C710   H722    1.077   .     S
C711   C712    1.416   .     A
C711   C233    1.415   1_556 S
C711   C236    1.427   1_556 S
C712   C716    1.416   .     A
C712   C719    1.429   .     A
C713   C717    1.396   .     A
C714   C715    1.389   .     A
C714   C236    1.417   1_556 S
C714   C227    1.400   1_556 S
C715   C716    1.389   .     A
C716   N737    1.426   .     S
C717   H720    1.076   .     S
C718   N731    1.438   .     S
H723   C762    1.083   .     S
C724   H884    1.084   .     S
C724   C885    1.330   .     S
H727   C885    1.088   .     S
N728   H782    1.029   .     S
N728   N783    1.294   .     S
N731   O733    1.301   .     A
N731   O785    1.302   .     S
N734   O735    1.299   .     A
N734   N783    1.385   .     S
N734   O789    1.299   .     S
N737   C739    1.447   .     S
N737   H738    1.029   .     S
C739   H741    1.111   .     S
C739   H742    1.112   .     S
C739   H740    1.108   .     S
O743   Cu749   1.954   .     S
O743   C745    1.294   .     A
O744   C745    1.293   .     A
O744   Cu750   1.951   .     S
C745   C777    1.428   .     S
O746   Cu749   1.948   .     S
O746   C748    1.326   .     A
O747   Cu750   1.936   .     S
O747   C748    1.292   .     A
C748   C772    1.492   .     S
Cu749  Cu750   2.704   .     S
Cu749  O753    1.936   .     S
Cu749  N783    2.032   .     S
Cu749  O751    1.951   .     S
Cu750  N781    2.032   .     S
Cu750  O754    1.948   .     S
Cu750  O752    1.954   .     S
O751   C755    1.292   .     A
O752   C755    1.296   .     A
O753   C756    1.299   .     A
O754   C756    1.306   .     A
C755   C779    1.430   .     S
C756   C760    1.468   .     S
C757   C771    1.397   .     A
C757   H653    1.084   1_655 S
H758   C768    1.082   .     S
C760   C771    1.415   .     A
C760   C770    1.404   .     A
C761   C762    1.392   .     A
C761   H774    1.074   .     S
C761   C772    1.394   .     A
C762   C286    1.394   1_556 S
C763   H775    1.077   .     S
C764   C765    1.416   .     A
C764   C286    1.415   1_556 S
C764   C289    1.427   1_556 S
C765   C769    1.416   .     A
C765   C772    1.429   .     A
C766   C770    1.396   .     A
C767   C768    1.389   .     A
C767   C289    1.417   1_556 S
C767   C280    1.400   1_556 S
C768   C769    1.389   .     A
C769   N790    1.426   .     S
C770   H773    1.076   .     S
C771   N784    1.438   .     S
H776   C656    1.083   1_655 S
C777   H937    1.084   .     S
C777   C938    1.330   .     S
H780   C938    1.088   .     S
N781   H676    1.029   1_655 S
N781   N677    1.294   1_655 S
N784   O786    1.301   .     A
N784   O679    1.302   1_655 S
N787   O788    1.299   .     A
N787   N677    1.385   1_655 S
N787   O683    1.299   1_655 S
N790   C792    1.447   .     S
N790   H791    1.029   .     S
C792   H794    1.111   .     S
C792   H795    1.112   .     S
C792   H793    1.108   .     S
O796   Cu802   1.954   .     S
O796   C798    1.294   .     A
O797   C798    1.293   .     A
O797   Cu803   1.951   .     S
C798   C830    1.428   .     S
O799   Cu802   1.948   .     S
O799   C801    1.326   .     A
O800   Cu803   1.936   .     S
O800   C801    1.292   .     A
C801   C825    1.492   .     S
Cu802  Cu803   2.704   .     S
Cu802  O806    1.936   .     S
Cu802  N836    2.032   .     S
Cu802  O804    1.951   .     S
Cu803  N834    2.032   .     S
Cu803  O807    1.948   .     S
Cu803  O805    1.954   .     S
O804   C808    1.292   .     A
O805   C808    1.296   .     A
O806   C809    1.299   .     A
O807   C809    1.306   .     A
C808   C832    1.430   .     S
C809   C813    1.468   .     S
C810   C824    1.397   .     A
C810   H865    1.084   .     S
H811   C821    1.082   .     S
H812   C916    1.084   1_455 S
C813   C824    1.415   .     A
C813   C823    1.404   .     A
C814   C815    1.392   .     A
C814   H827    1.074   .     S
C814   C825    1.394   .     A
C815   C339    1.394   1_556 S
C815   H935    1.083   1_455 S
C816   H828    1.077   .     S
C817   C818    1.416   .     A
C817   C339    1.415   1_556 S
C817   C342    1.427   1_556 S
C818   C822    1.416   .     A
C818   C825    1.429   .     A
C819   C823    1.396   .     A
C820   C821    1.389   .     A
C820   C342    1.417   1_556 S
C820   C333    1.400   1_556 S
C821   C822    1.389   .     A
C822   N843    1.426   .     S
C823   H826    1.076   .     S
C824   N837    1.438   .     S
H829   C868    1.083   .     S
C830   H513    1.084   1_565 S
C830   C514    1.330   1_565 S
H833   C514    1.088   1_565 S
N834   H888    1.029   .     S
N834   N889    1.294   .     S
H835   N940    1.029   1_455 S
N836   N940    1.294   1_455 S
N836   N946    1.385   1_455 S
N837   O839    1.301   .     A
N837   O891    1.302   .     S
O838   N943    1.302   1_455 S
N840   O841    1.299   .     A
N840   N889    1.385   .     S
N840   O895    1.299   .     S
O842   N946    1.299   1_455 S
N843   C845    1.447   .     S
N843   H844    1.029   .     S
C845   H847    1.111   .     S
C845   H848    1.112   .     S
C845   H846    1.108   .     S
O849   Cu855   1.954   .     S
O849   C851    1.294   .     A
O850   C851    1.293   .     A
O850   Cu856   1.951   .     S
C851   C883    1.428   .     S
O852   Cu855   1.948   .     S
O852   C854    1.326   .     A
O853   Cu856   1.936   .     S
O853   C854    1.292   .     A
C854   C878    1.492   .     S
Cu855  Cu856   2.704   .     S
Cu855  O859    1.936   .     S
Cu855  N889    2.032   .     S
Cu855  O857    1.951   .     S
Cu856  N887    2.032   .     S
Cu856  O860    1.948   .     S
Cu856  O858    1.954   .     S
O857   C861    1.292   .     A
O858   C861    1.296   .     A
O859   C862    1.299   .     A
O860   C862    1.306   .     A
C861   C885    1.430   .     S
C862   C866    1.468   .     S
C863   C877    1.397   .     A
C863   H918    1.084   .     S
H864   C874    1.082   .     S
C866   C877    1.415   .     A
C866   C876    1.404   .     A
C867   C868    1.392   .     A
C867   H880    1.074   .     S
C867   C878    1.394   .     A
C868   C392    1.394   1_556 S
C869   H881    1.077   .     S
C870   C871    1.416   .     A
C870   C392    1.415   1_556 S
C870   C395    1.427   1_556 S
C871   C875    1.416   .     A
C871   C878    1.429   .     A
C872   C876    1.396   .     A
C873   C874    1.389   .     A
C873   C395    1.417   1_556 S
C873   C386    1.400   1_556 S
C874   C875    1.389   .     A
C875   N896    1.426   .     S
C876   H879    1.076   .     S
C877   N890    1.438   .     S
H882   C921    1.083   .     S
C883   H566    1.084   1_565 S
C883   C567    1.330   1_565 S
H886   C567    1.088   1_565 S
N887   H941    1.029   .     S
N887   N942    1.294   .     S
N890   O892    1.301   .     A
N890   O944    1.302   .     S
N893   O894    1.299   .     A
N893   N942    1.385   .     S
N893   O948    1.299   .     S
N896   C898    1.447   .     S
N896   H897    1.029   .     S
C898   H900    1.111   .     S
C898   H901    1.112   .     S
C898   H899    1.108   .     S
O902   Cu908   1.954   .     S
O902   C904    1.294   .     A
O903   C904    1.293   .     A
O903   Cu909   1.951   .     S
C904   C936    1.428   .     S
O905   Cu908   1.948   .     S
O905   C907    1.326   .     A
O906   Cu909   1.936   .     S
O906   C907    1.292   .     A
C907   C931    1.492   .     S
Cu908  Cu909   2.704   .     S
Cu908  O912    1.936   .     S
Cu908  N942    2.032   .     S
Cu908  O910    1.951   .     S
Cu909  N940    2.032   .     S
Cu909  O913    1.948   .     S
Cu909  O911    1.954   .     S
O910   C914    1.292   .     A
O911   C914    1.296   .     A
O912   C915    1.299   .     A
O913   C915    1.306   .     A
C914   C938    1.430   .     S
C915   C919    1.468   .     S
C916   C930    1.397   .     A
C916   H812    1.084   1_655 S
H917   C927    1.082   .     S
C919   C930    1.415   .     A
C919   C929    1.404   .     A
C920   C921    1.392   .     A
C920   H933    1.074   .     S
C920   C931    1.394   .     A
C921   C445    1.394   1_556 S
C922   H934    1.077   .     S
C923   C924    1.416   .     A
C923   C445    1.415   1_556 S
C923   C448    1.427   1_556 S
C924   C928    1.416   .     A
C924   C931    1.429   .     A
C925   C929    1.396   .     A
C926   C927    1.389   .     A
C926   C448    1.417   1_556 S
C926   C439    1.400   1_556 S
C927   C928    1.389   .     A
C928   N949    1.426   .     S
C929   H932    1.076   .     S
C930   N943    1.438   .     S
H935   C815    1.083   1_655 S
C936   H619    1.084   1_565 S
C936   C620    1.330   1_565 S
H939   C620    1.088   1_565 S
N940   H835    1.029   1_655 S
N940   N836    1.294   1_655 S
N943   O945    1.301   .     A
N943   O838    1.302   1_655 S
N946   O947    1.299   .     A
N946   N836    1.385   1_655 S
N946   O842    1.299   1_655 S
N949   C951    1.447   .     S
N949   H950    1.029   .     S
C951   H953    1.111   .     S
C951   H954    1.112   .     S
C951   H952    1.108   .     S
