data_str_m3_o5_o17_pcu_sym.19
_audit_creation_date              2020-01-03
_audit_creation_method            'Materials Studio'
_symmetry_space_group_name_H-M    'P1'
_symmetry_Int_Tables_number       1
_symmetry_cell_setting            triclinic
loop_
_symmetry_equiv_pos_as_xyz
  x,y,z
_cell_length_a                    29.9343
_cell_length_b                    26.7530
_cell_length_c                    24.3627
_cell_angle_alpha                 89.9060
_cell_angle_beta                  90.1875
_cell_angle_gamma                 89.9703
loop_
_atom_site_label
_atom_site_type_symbol
_atom_site_fract_x
_atom_site_fract_y
_atom_site_fract_z
_atom_site_U_iso_or_equiv
_atom_site_adp_type
_atom_site_occupancy
O1     O     0.25000   0.09512   0.21228   0.00000  Uiso   1.00
O2     O     0.25000   0.23822   0.12105   0.00000  Uiso   1.00
O3     O     0.25000   0.23822   0.21228   0.00000  Uiso   1.00
O4     O     0.25000   0.09512   0.12105   0.00000  Uiso   1.00
H5     H     0.46067   0.04194   0.13974   0.00000  Uiso   1.00
H6     H     0.03929   0.28983   0.20167   0.00000  Uiso   1.00
H7     H     0.45948   0.28944   0.20151   0.00000  Uiso   1.00
H8     H     0.04045   0.04261   0.13851   0.00000  Uiso   1.00
C9     C     0.24992   0.07269   0.16669   0.00000  Uiso   1.00
C10    C     0.25008   0.26064   0.16664   0.00000  Uiso   1.00
O11    O     0.18392   0.16667   0.21230   0.00000  Uiso   1.00
O12    O     0.31607   0.16667   0.12104   0.00000  Uiso   1.00
O13    O     0.31607   0.16667   0.21230   0.00000  Uiso   1.00
O14    O     0.18392   0.16667   0.12104   0.00000  Uiso   1.00
C15    C     0.16341   0.16696   0.16656   0.00000  Uiso   1.00
C16    C     0.33656   0.16639   0.16677   0.00000  Uiso   1.00
Zn17   Zn    0.25000   0.16667   0.22759   0.00000  Uiso   1.00
Zn18   Zn    0.25000   0.16667   0.10574   0.00000  Uiso   1.00
N19    N     0.25000   0.16667   0.02455   0.00000  Uiso   1.00
N20    N     0.25000   0.16667   0.30879   0.00000  Uiso   1.00
C21    C     0.40606   0.21094   0.17511   0.00000  Uiso   1.00
C22    C     0.09380   0.12402   0.15129   0.00000  Uiso   1.00
C23    C     0.40703   0.12036   0.15772   0.00000  Uiso   1.00
C24    C     0.09292   0.21232   0.17943   0.00000  Uiso   1.00
C25    C     0.38408   0.16548   0.16710   0.00000  Uiso   1.00
C26    C     0.11585   0.16799   0.16617   0.00000  Uiso   1.00
C27    C     0.45351   0.12137   0.15624   0.00000  Uiso   1.00
C28    C     0.04640   0.21178   0.17858   0.00000  Uiso   1.00
C29    C     0.45281   0.21149   0.17672   0.00000  Uiso   1.00
C30    C     0.04707   0.12270   0.15326   0.00000  Uiso   1.00
C31    C     0.47652   0.16671   0.16604   0.00000  Uiso   1.00
C32    C     0.02338   0.16708   0.16577   0.00000  Uiso   1.00
C33    C     0.47745   0.07730   0.14635   0.00000  Uiso   1.00
C34    C     0.02248   0.25532   0.19103   0.00000  Uiso   1.00
C35    C     0.47629   0.25518   0.19024   0.00000  Uiso   1.00
C36    C     0.02363   0.07790   0.14496   0.00000  Uiso   1.00
C37    C     0.24998   0.02175   0.16671   0.00000  Uiso   1.00
C38    C     0.25003   0.31159   0.16662   0.00000  Uiso   1.00
O39    O     0.38066   0.25376   0.18138   0.00000  Uiso   1.00
H40    H     0.39561   0.28146   0.16167   0.00000  Uiso   1.00
O41    O     0.11913   0.08294   0.13656   0.00000  Uiso   1.00
H42    H     0.10384   0.06558   0.10595   0.00000  Uiso   1.00
O43    O     0.38545   0.07504   0.14964   0.00000  Uiso   1.00
H44    H     0.35308   0.07811   0.15671   0.00000  Uiso   1.00
O45    O     0.11450   0.25663   0.19261   0.00000  Uiso   1.00
H46    H     0.14702   0.25390   0.18647   0.00000  Uiso   1.00
O47    O     0.75000   0.09512   0.21228   0.00000  Uiso   1.00
O48    O     0.75000   0.23822   0.12105   0.00000  Uiso   1.00
O49    O     0.75000   0.23822   0.21228   0.00000  Uiso   1.00
O50    O     0.75000   0.09512   0.12105   0.00000  Uiso   1.00
H51    H     0.96067   0.04194   0.13974   0.00000  Uiso   1.00
H52    H     0.53929   0.28983   0.20167   0.00000  Uiso   1.00
H53    H     0.95948   0.28944   0.20151   0.00000  Uiso   1.00
H54    H     0.54045   0.04261   0.13851   0.00000  Uiso   1.00
C55    C     0.74992   0.07269   0.16669   0.00000  Uiso   1.00
C56    C     0.75008   0.26064   0.16664   0.00000  Uiso   1.00
O57    O     0.68392   0.16667   0.21230   0.00000  Uiso   1.00
O58    O     0.81607   0.16667   0.12104   0.00000  Uiso   1.00
O59    O     0.81607   0.16667   0.21230   0.00000  Uiso   1.00
O60    O     0.68392   0.16667   0.12104   0.00000  Uiso   1.00
C61    C     0.66341   0.16696   0.16656   0.00000  Uiso   1.00
C62    C     0.83656   0.16639   0.16677   0.00000  Uiso   1.00
Zn63   Zn    0.75000   0.16667   0.22759   0.00000  Uiso   1.00
Zn64   Zn    0.75000   0.16667   0.10574   0.00000  Uiso   1.00
N65    N     0.75000   0.16667   0.02455   0.00000  Uiso   1.00
N66    N     0.75000   0.16667   0.30879   0.00000  Uiso   1.00
C67    C     0.90606   0.21094   0.17511   0.00000  Uiso   1.00
C68    C     0.59380   0.12402   0.15129   0.00000  Uiso   1.00
C69    C     0.90703   0.12036   0.15772   0.00000  Uiso   1.00
C70    C     0.59292   0.21232   0.17943   0.00000  Uiso   1.00
C71    C     0.88408   0.16548   0.16710   0.00000  Uiso   1.00
C72    C     0.61585   0.16799   0.16617   0.00000  Uiso   1.00
C73    C     0.95351   0.12137   0.15624   0.00000  Uiso   1.00
C74    C     0.54640   0.21178   0.17858   0.00000  Uiso   1.00
C75    C     0.95281   0.21149   0.17672   0.00000  Uiso   1.00
C76    C     0.54707   0.12270   0.15326   0.00000  Uiso   1.00
C77    C     0.97652   0.16671   0.16604   0.00000  Uiso   1.00
C78    C     0.52338   0.16708   0.16577   0.00000  Uiso   1.00
C79    C     0.97745   0.07730   0.14635   0.00000  Uiso   1.00
C80    C     0.52248   0.25532   0.19103   0.00000  Uiso   1.00
C81    C     0.97629   0.25518   0.19024   0.00000  Uiso   1.00
C82    C     0.52363   0.07790   0.14496   0.00000  Uiso   1.00
C83    C     0.74998   0.02175   0.16671   0.00000  Uiso   1.00
C84    C     0.75003   0.31159   0.16662   0.00000  Uiso   1.00
O85    O     0.88066   0.25376   0.18138   0.00000  Uiso   1.00
H86    H     0.89561   0.28146   0.16167   0.00000  Uiso   1.00
O87    O     0.61913   0.08294   0.13656   0.00000  Uiso   1.00
H88    H     0.60384   0.06558   0.10595   0.00000  Uiso   1.00
O89    O     0.88545   0.07504   0.14964   0.00000  Uiso   1.00
H90    H     0.85308   0.07811   0.15671   0.00000  Uiso   1.00
O91    O     0.61450   0.25663   0.19261   0.00000  Uiso   1.00
H92    H     0.64702   0.25390   0.18647   0.00000  Uiso   1.00
O93    O     0.25000   0.42845   0.21228   0.00000  Uiso   1.00
O94    O     0.25000   0.57155   0.12105   0.00000  Uiso   1.00
O95    O     0.25000   0.57155   0.21228   0.00000  Uiso   1.00
O96    O     0.25000   0.42845   0.12105   0.00000  Uiso   1.00
H97    H     0.46067   0.37527   0.13974   0.00000  Uiso   1.00
H98    H     0.03929   0.62317   0.20167   0.00000  Uiso   1.00
H99    H     0.45948   0.62277   0.20151   0.00000  Uiso   1.00
H100   H     0.04045   0.37595   0.13851   0.00000  Uiso   1.00
C101   C     0.24992   0.40603   0.16669   0.00000  Uiso   1.00
C102   C     0.25008   0.59397   0.16664   0.00000  Uiso   1.00
O103   O     0.18392   0.50000   0.21230   0.00000  Uiso   1.00
O104   O     0.31607   0.50000   0.12104   0.00000  Uiso   1.00
O105   O     0.31607   0.50000   0.21230   0.00000  Uiso   1.00
O106   O     0.18392   0.50000   0.12104   0.00000  Uiso   1.00
C107   C     0.16341   0.50029   0.16656   0.00000  Uiso   1.00
C108   C     0.33656   0.49972   0.16677   0.00000  Uiso   1.00
Zn109  Zn    0.25000   0.50000   0.22759   0.00000  Uiso   1.00
Zn110  Zn    0.25000   0.50000   0.10574   0.00000  Uiso   1.00
N111   N     0.25000   0.50000   0.02455   0.00000  Uiso   1.00
N112   N     0.25000   0.50000   0.30879   0.00000  Uiso   1.00
C113   C     0.40606   0.54427   0.17511   0.00000  Uiso   1.00
C114   C     0.09380   0.45735   0.15129   0.00000  Uiso   1.00
C115   C     0.40703   0.45369   0.15772   0.00000  Uiso   1.00
C116   C     0.09292   0.54565   0.17943   0.00000  Uiso   1.00
C117   C     0.38408   0.49882   0.16710   0.00000  Uiso   1.00
C118   C     0.11585   0.50132   0.16617   0.00000  Uiso   1.00
C119   C     0.45351   0.45470   0.15624   0.00000  Uiso   1.00
C120   C     0.04640   0.54511   0.17858   0.00000  Uiso   1.00
C121   C     0.45281   0.54482   0.17672   0.00000  Uiso   1.00
C122   C     0.04707   0.45603   0.15326   0.00000  Uiso   1.00
C123   C     0.47652   0.50004   0.16604   0.00000  Uiso   1.00
C124   C     0.02338   0.50042   0.16577   0.00000  Uiso   1.00
C125   C     0.47745   0.41063   0.14635   0.00000  Uiso   1.00
C126   C     0.02248   0.58865   0.19103   0.00000  Uiso   1.00
C127   C     0.47629   0.58852   0.19024   0.00000  Uiso   1.00
C128   C     0.02363   0.41123   0.14496   0.00000  Uiso   1.00
C129   C     0.24998   0.35508   0.16671   0.00000  Uiso   1.00
C130   C     0.25003   0.64492   0.16662   0.00000  Uiso   1.00
O131   O     0.38066   0.58709   0.18138   0.00000  Uiso   1.00
H132   H     0.39561   0.61479   0.16167   0.00000  Uiso   1.00
O133   O     0.11913   0.41627   0.13656   0.00000  Uiso   1.00
H134   H     0.10384   0.39892   0.10595   0.00000  Uiso   1.00
O135   O     0.38545   0.40837   0.14964   0.00000  Uiso   1.00
H136   H     0.35308   0.41145   0.15671   0.00000  Uiso   1.00
O137   O     0.11450   0.58997   0.19261   0.00000  Uiso   1.00
H138   H     0.14702   0.58723   0.18647   0.00000  Uiso   1.00
O139   O     0.75000   0.42845   0.21228   0.00000  Uiso   1.00
O140   O     0.75000   0.57155   0.12105   0.00000  Uiso   1.00
O141   O     0.75000   0.57155   0.21228   0.00000  Uiso   1.00
O142   O     0.75000   0.42845   0.12105   0.00000  Uiso   1.00
H143   H     0.96067   0.37527   0.13974   0.00000  Uiso   1.00
H144   H     0.53929   0.62317   0.20167   0.00000  Uiso   1.00
H145   H     0.95948   0.62277   0.20151   0.00000  Uiso   1.00
H146   H     0.54045   0.37595   0.13851   0.00000  Uiso   1.00
C147   C     0.74992   0.40603   0.16669   0.00000  Uiso   1.00
C148   C     0.75008   0.59397   0.16664   0.00000  Uiso   1.00
O149   O     0.68392   0.50000   0.21230   0.00000  Uiso   1.00
O150   O     0.81607   0.50000   0.12104   0.00000  Uiso   1.00
O151   O     0.81607   0.50000   0.21230   0.00000  Uiso   1.00
O152   O     0.68392   0.50000   0.12104   0.00000  Uiso   1.00
C153   C     0.66341   0.50029   0.16656   0.00000  Uiso   1.00
C154   C     0.83656   0.49972   0.16677   0.00000  Uiso   1.00
Zn155  Zn    0.75000   0.50000   0.22759   0.00000  Uiso   1.00
Zn156  Zn    0.75000   0.50000   0.10574   0.00000  Uiso   1.00
N157   N     0.75000   0.50000   0.02455   0.00000  Uiso   1.00
N158   N     0.75000   0.50000   0.30879   0.00000  Uiso   1.00
C159   C     0.90606   0.54427   0.17511   0.00000  Uiso   1.00
C160   C     0.59380   0.45735   0.15129   0.00000  Uiso   1.00
C161   C     0.90703   0.45369   0.15772   0.00000  Uiso   1.00
C162   C     0.59292   0.54565   0.17943   0.00000  Uiso   1.00
C163   C     0.88408   0.49882   0.16710   0.00000  Uiso   1.00
C164   C     0.61585   0.50132   0.16617   0.00000  Uiso   1.00
C165   C     0.95351   0.45470   0.15624   0.00000  Uiso   1.00
C166   C     0.54640   0.54511   0.17858   0.00000  Uiso   1.00
C167   C     0.95281   0.54482   0.17672   0.00000  Uiso   1.00
C168   C     0.54707   0.45603   0.15326   0.00000  Uiso   1.00
C169   C     0.97652   0.50004   0.16604   0.00000  Uiso   1.00
C170   C     0.52338   0.50042   0.16577   0.00000  Uiso   1.00
C171   C     0.97745   0.41063   0.14635   0.00000  Uiso   1.00
C172   C     0.52248   0.58865   0.19103   0.00000  Uiso   1.00
C173   C     0.97629   0.58852   0.19024   0.00000  Uiso   1.00
C174   C     0.52363   0.41123   0.14496   0.00000  Uiso   1.00
C175   C     0.74998   0.35508   0.16671   0.00000  Uiso   1.00
C176   C     0.75003   0.64492   0.16662   0.00000  Uiso   1.00
O177   O     0.88066   0.58709   0.18138   0.00000  Uiso   1.00
H178   H     0.89561   0.61479   0.16167   0.00000  Uiso   1.00
O179   O     0.61913   0.41627   0.13656   0.00000  Uiso   1.00
H180   H     0.60384   0.39892   0.10595   0.00000  Uiso   1.00
O181   O     0.88545   0.40837   0.14964   0.00000  Uiso   1.00
H182   H     0.85308   0.41145   0.15671   0.00000  Uiso   1.00
O183   O     0.61450   0.58997   0.19261   0.00000  Uiso   1.00
H184   H     0.64702   0.58723   0.18647   0.00000  Uiso   1.00
O185   O     0.25000   0.76178   0.21228   0.00000  Uiso   1.00
O186   O     0.25000   0.90488   0.12105   0.00000  Uiso   1.00
O187   O     0.25000   0.90488   0.21228   0.00000  Uiso   1.00
O188   O     0.25000   0.76178   0.12105   0.00000  Uiso   1.00
H189   H     0.46067   0.70860   0.13974   0.00000  Uiso   1.00
H190   H     0.03929   0.95650   0.20167   0.00000  Uiso   1.00
H191   H     0.45948   0.95611   0.20151   0.00000  Uiso   1.00
H192   H     0.04045   0.70928   0.13851   0.00000  Uiso   1.00
C193   C     0.24992   0.73936   0.16669   0.00000  Uiso   1.00
C194   C     0.25008   0.92731   0.16664   0.00000  Uiso   1.00
O195   O     0.18392   0.83333   0.21230   0.00000  Uiso   1.00
O196   O     0.31607   0.83333   0.12104   0.00000  Uiso   1.00
O197   O     0.31607   0.83333   0.21230   0.00000  Uiso   1.00
O198   O     0.18392   0.83333   0.12104   0.00000  Uiso   1.00
C199   C     0.16341   0.83363   0.16656   0.00000  Uiso   1.00
C200   C     0.33656   0.83306   0.16677   0.00000  Uiso   1.00
Zn201  Zn    0.25000   0.83333   0.22759   0.00000  Uiso   1.00
Zn202  Zn    0.25000   0.83333   0.10574   0.00000  Uiso   1.00
N203   N     0.25000   0.83333   0.02455   0.00000  Uiso   1.00
N204   N     0.25000   0.83333   0.30879   0.00000  Uiso   1.00
C205   C     0.40606   0.87760   0.17511   0.00000  Uiso   1.00
C206   C     0.09380   0.79068   0.15129   0.00000  Uiso   1.00
C207   C     0.40703   0.78702   0.15772   0.00000  Uiso   1.00
C208   C     0.09292   0.87899   0.17943   0.00000  Uiso   1.00
C209   C     0.38408   0.83215   0.16710   0.00000  Uiso   1.00
C210   C     0.11585   0.83466   0.16617   0.00000  Uiso   1.00
C211   C     0.45351   0.78803   0.15624   0.00000  Uiso   1.00
C212   C     0.04640   0.87845   0.17858   0.00000  Uiso   1.00
C213   C     0.45281   0.87815   0.17672   0.00000  Uiso   1.00
C214   C     0.04707   0.78936   0.15326   0.00000  Uiso   1.00
C215   C     0.47652   0.83337   0.16604   0.00000  Uiso   1.00
C216   C     0.02338   0.83375   0.16577   0.00000  Uiso   1.00
C217   C     0.47745   0.74397   0.14635   0.00000  Uiso   1.00
C218   C     0.02248   0.92198   0.19103   0.00000  Uiso   1.00
C219   C     0.47629   0.92185   0.19024   0.00000  Uiso   1.00
C220   C     0.02363   0.74456   0.14496   0.00000  Uiso   1.00
C221   C     0.24998   0.68841   0.16671   0.00000  Uiso   1.00
C222   C     0.25003   0.97825   0.16662   0.00000  Uiso   1.00
O223   O     0.38066   0.92043   0.18138   0.00000  Uiso   1.00
H224   H     0.39561   0.94812   0.16167   0.00000  Uiso   1.00
O225   O     0.11913   0.74960   0.13656   0.00000  Uiso   1.00
H226   H     0.10384   0.73225   0.10595   0.00000  Uiso   1.00
O227   O     0.38545   0.74170   0.14964   0.00000  Uiso   1.00
H228   H     0.35308   0.74478   0.15671   0.00000  Uiso   1.00
O229   O     0.11450   0.92330   0.19261   0.00000  Uiso   1.00
H230   H     0.14702   0.92056   0.18647   0.00000  Uiso   1.00
O231   O     0.75000   0.76178   0.21228   0.00000  Uiso   1.00
O232   O     0.75000   0.90488   0.12105   0.00000  Uiso   1.00
O233   O     0.75000   0.90488   0.21228   0.00000  Uiso   1.00
O234   O     0.75000   0.76178   0.12105   0.00000  Uiso   1.00
H235   H     0.96067   0.70860   0.13974   0.00000  Uiso   1.00
H236   H     0.53929   0.95650   0.20167   0.00000  Uiso   1.00
H237   H     0.95948   0.95611   0.20151   0.00000  Uiso   1.00
H238   H     0.54045   0.70928   0.13851   0.00000  Uiso   1.00
C239   C     0.74992   0.73936   0.16669   0.00000  Uiso   1.00
C240   C     0.75008   0.92731   0.16664   0.00000  Uiso   1.00
O241   O     0.68392   0.83333   0.21230   0.00000  Uiso   1.00
O242   O     0.81607   0.83333   0.12104   0.00000  Uiso   1.00
O243   O     0.81607   0.83333   0.21230   0.00000  Uiso   1.00
O244   O     0.68392   0.83333   0.12104   0.00000  Uiso   1.00
C245   C     0.66341   0.83363   0.16656   0.00000  Uiso   1.00
C246   C     0.83656   0.83306   0.16677   0.00000  Uiso   1.00
Zn247  Zn    0.75000   0.83333   0.22759   0.00000  Uiso   1.00
Zn248  Zn    0.75000   0.83333   0.10574   0.00000  Uiso   1.00
N249   N     0.75000   0.83333   0.02455   0.00000  Uiso   1.00
N250   N     0.75000   0.83333   0.30879   0.00000  Uiso   1.00
C251   C     0.90606   0.87760   0.17511   0.00000  Uiso   1.00
C252   C     0.59380   0.79068   0.15129   0.00000  Uiso   1.00
C253   C     0.90703   0.78702   0.15772   0.00000  Uiso   1.00
C254   C     0.59292   0.87899   0.17943   0.00000  Uiso   1.00
C255   C     0.88408   0.83215   0.16710   0.00000  Uiso   1.00
C256   C     0.61585   0.83466   0.16617   0.00000  Uiso   1.00
C257   C     0.95351   0.78803   0.15624   0.00000  Uiso   1.00
C258   C     0.54640   0.87845   0.17858   0.00000  Uiso   1.00
C259   C     0.95281   0.87815   0.17672   0.00000  Uiso   1.00
C260   C     0.54707   0.78936   0.15326   0.00000  Uiso   1.00
C261   C     0.97652   0.83337   0.16604   0.00000  Uiso   1.00
C262   C     0.52338   0.83375   0.16577   0.00000  Uiso   1.00
C263   C     0.97745   0.74397   0.14635   0.00000  Uiso   1.00
C264   C     0.52248   0.92198   0.19103   0.00000  Uiso   1.00
C265   C     0.97629   0.92185   0.19024   0.00000  Uiso   1.00
C266   C     0.52363   0.74456   0.14496   0.00000  Uiso   1.00
C267   C     0.74998   0.68841   0.16671   0.00000  Uiso   1.00
C268   C     0.75003   0.97825   0.16662   0.00000  Uiso   1.00
O269   O     0.88066   0.92043   0.18138   0.00000  Uiso   1.00
H270   H     0.89561   0.94812   0.16167   0.00000  Uiso   1.00
O271   O     0.61913   0.74960   0.13656   0.00000  Uiso   1.00
H272   H     0.60384   0.73225   0.10595   0.00000  Uiso   1.00
O273   O     0.88545   0.74170   0.14964   0.00000  Uiso   1.00
H274   H     0.85308   0.74478   0.15671   0.00000  Uiso   1.00
O275   O     0.61450   0.92330   0.19261   0.00000  Uiso   1.00
H276   H     0.64702   0.92056   0.18647   0.00000  Uiso   1.00
O277   O     0.25000   0.09512   0.54562   0.00000  Uiso   1.00
O278   O     0.25000   0.23822   0.45438   0.00000  Uiso   1.00
O279   O     0.25000   0.23822   0.54562   0.00000  Uiso   1.00
O280   O     0.25000   0.09512   0.45438   0.00000  Uiso   1.00
H281   H     0.46067   0.04194   0.47308   0.00000  Uiso   1.00
H282   H     0.03929   0.28983   0.53500   0.00000  Uiso   1.00
H283   H     0.45948   0.28944   0.53485   0.00000  Uiso   1.00
H284   H     0.04045   0.04261   0.47184   0.00000  Uiso   1.00
C285   C     0.24992   0.07269   0.50003   0.00000  Uiso   1.00
C286   C     0.25008   0.26064   0.49997   0.00000  Uiso   1.00
O287   O     0.18392   0.16667   0.54563   0.00000  Uiso   1.00
O288   O     0.31607   0.16667   0.45437   0.00000  Uiso   1.00
O289   O     0.31607   0.16667   0.54563   0.00000  Uiso   1.00
O290   O     0.18392   0.16667   0.45437   0.00000  Uiso   1.00
C291   C     0.16341   0.16696   0.49990   0.00000  Uiso   1.00
C292   C     0.33656   0.16639   0.50010   0.00000  Uiso   1.00
Zn293  Zn    0.25000   0.16667   0.56093   0.00000  Uiso   1.00
Zn294  Zn    0.25000   0.16667   0.43907   0.00000  Uiso   1.00
N295   N     0.25000   0.16667   0.35788   0.00000  Uiso   1.00
N296   N     0.25000   0.16667   0.64212   0.00000  Uiso   1.00
C297   C     0.40606   0.21094   0.50844   0.00000  Uiso   1.00
C298   C     0.09380   0.12402   0.48462   0.00000  Uiso   1.00
C299   C     0.40703   0.12036   0.49106   0.00000  Uiso   1.00
C300   C     0.09292   0.21232   0.51277   0.00000  Uiso   1.00
C301   C     0.38408   0.16548   0.50043   0.00000  Uiso   1.00
C302   C     0.11585   0.16799   0.49950   0.00000  Uiso   1.00
C303   C     0.45351   0.12137   0.48957   0.00000  Uiso   1.00
C304   C     0.04640   0.21178   0.51191   0.00000  Uiso   1.00
C305   C     0.45281   0.21149   0.51005   0.00000  Uiso   1.00
C306   C     0.04707   0.12270   0.48660   0.00000  Uiso   1.00
C307   C     0.47652   0.16671   0.49937   0.00000  Uiso   1.00
C308   C     0.02338   0.16708   0.49911   0.00000  Uiso   1.00
C309   C     0.47745   0.07730   0.47968   0.00000  Uiso   1.00
C310   C     0.02248   0.25532   0.52437   0.00000  Uiso   1.00
C311   C     0.47629   0.25518   0.52357   0.00000  Uiso   1.00
C312   C     0.02363   0.07790   0.47829   0.00000  Uiso   1.00
C313   C     0.24998   0.02175   0.50004   0.00000  Uiso   1.00
C314   C     0.25003   0.31159   0.49996   0.00000  Uiso   1.00
O315   O     0.38066   0.25376   0.51472   0.00000  Uiso   1.00
H316   H     0.39561   0.28146   0.49500   0.00000  Uiso   1.00
O317   O     0.11913   0.08294   0.46989   0.00000  Uiso   1.00
H318   H     0.10384   0.06558   0.43928   0.00000  Uiso   1.00
O319   O     0.38545   0.07504   0.48297   0.00000  Uiso   1.00
H320   H     0.35308   0.07811   0.49004   0.00000  Uiso   1.00
O321   O     0.11450   0.25663   0.52594   0.00000  Uiso   1.00
H322   H     0.14702   0.25390   0.51980   0.00000  Uiso   1.00
O323   O     0.75000   0.09512   0.54562   0.00000  Uiso   1.00
O324   O     0.75000   0.23822   0.45438   0.00000  Uiso   1.00
O325   O     0.75000   0.23822   0.54562   0.00000  Uiso   1.00
O326   O     0.75000   0.09512   0.45438   0.00000  Uiso   1.00
H327   H     0.96067   0.04194   0.47308   0.00000  Uiso   1.00
H328   H     0.53929   0.28983   0.53500   0.00000  Uiso   1.00
H329   H     0.95948   0.28944   0.53485   0.00000  Uiso   1.00
H330   H     0.54045   0.04261   0.47184   0.00000  Uiso   1.00
C331   C     0.74992   0.07269   0.50003   0.00000  Uiso   1.00
C332   C     0.75008   0.26064   0.49997   0.00000  Uiso   1.00
O333   O     0.68392   0.16667   0.54563   0.00000  Uiso   1.00
O334   O     0.81607   0.16667   0.45437   0.00000  Uiso   1.00
O335   O     0.81607   0.16667   0.54563   0.00000  Uiso   1.00
O336   O     0.68392   0.16667   0.45437   0.00000  Uiso   1.00
C337   C     0.66341   0.16696   0.49990   0.00000  Uiso   1.00
C338   C     0.83656   0.16639   0.50010   0.00000  Uiso   1.00
Zn339  Zn    0.75000   0.16667   0.56093   0.00000  Uiso   1.00
Zn340  Zn    0.75000   0.16667   0.43907   0.00000  Uiso   1.00
N341   N     0.75000   0.16667   0.35788   0.00000  Uiso   1.00
N342   N     0.75000   0.16667   0.64212   0.00000  Uiso   1.00
C343   C     0.90606   0.21094   0.50844   0.00000  Uiso   1.00
C344   C     0.59380   0.12402   0.48462   0.00000  Uiso   1.00
C345   C     0.90703   0.12036   0.49106   0.00000  Uiso   1.00
C346   C     0.59292   0.21232   0.51277   0.00000  Uiso   1.00
C347   C     0.88408   0.16548   0.50043   0.00000  Uiso   1.00
C348   C     0.61585   0.16799   0.49950   0.00000  Uiso   1.00
C349   C     0.95351   0.12137   0.48957   0.00000  Uiso   1.00
C350   C     0.54640   0.21178   0.51191   0.00000  Uiso   1.00
C351   C     0.95281   0.21149   0.51005   0.00000  Uiso   1.00
C352   C     0.54707   0.12270   0.48660   0.00000  Uiso   1.00
C353   C     0.97652   0.16671   0.49937   0.00000  Uiso   1.00
C354   C     0.52338   0.16708   0.49911   0.00000  Uiso   1.00
C355   C     0.97745   0.07730   0.47968   0.00000  Uiso   1.00
C356   C     0.52248   0.25532   0.52437   0.00000  Uiso   1.00
C357   C     0.97629   0.25518   0.52357   0.00000  Uiso   1.00
C358   C     0.52363   0.07790   0.47829   0.00000  Uiso   1.00
C359   C     0.74998   0.02175   0.50004   0.00000  Uiso   1.00
C360   C     0.75003   0.31159   0.49996   0.00000  Uiso   1.00
O361   O     0.88066   0.25376   0.51472   0.00000  Uiso   1.00
H362   H     0.89561   0.28146   0.49500   0.00000  Uiso   1.00
O363   O     0.61913   0.08294   0.46989   0.00000  Uiso   1.00
H364   H     0.60384   0.06558   0.43928   0.00000  Uiso   1.00
O365   O     0.88545   0.07504   0.48297   0.00000  Uiso   1.00
H366   H     0.85308   0.07811   0.49004   0.00000  Uiso   1.00
O367   O     0.61450   0.25663   0.52594   0.00000  Uiso   1.00
H368   H     0.64702   0.25390   0.51980   0.00000  Uiso   1.00
O369   O     0.25000   0.42845   0.54562   0.00000  Uiso   1.00
O370   O     0.25000   0.57155   0.45438   0.00000  Uiso   1.00
O371   O     0.25000   0.57155   0.54562   0.00000  Uiso   1.00
O372   O     0.25000   0.42845   0.45438   0.00000  Uiso   1.00
H373   H     0.46067   0.37527   0.47308   0.00000  Uiso   1.00
H374   H     0.03929   0.62317   0.53500   0.00000  Uiso   1.00
H375   H     0.45948   0.62277   0.53485   0.00000  Uiso   1.00
H376   H     0.04045   0.37595   0.47184   0.00000  Uiso   1.00
C377   C     0.24992   0.40603   0.50003   0.00000  Uiso   1.00
C378   C     0.25008   0.59397   0.49997   0.00000  Uiso   1.00
O379   O     0.18392   0.50000   0.54563   0.00000  Uiso   1.00
O380   O     0.31607   0.50000   0.45437   0.00000  Uiso   1.00
O381   O     0.31607   0.50000   0.54563   0.00000  Uiso   1.00
O382   O     0.18392   0.50000   0.45437   0.00000  Uiso   1.00
C383   C     0.16341   0.50029   0.49990   0.00000  Uiso   1.00
C384   C     0.33656   0.49972   0.50010   0.00000  Uiso   1.00
Zn385  Zn    0.25000   0.50000   0.56093   0.00000  Uiso   1.00
Zn386  Zn    0.25000   0.50000   0.43907   0.00000  Uiso   1.00
N387   N     0.25000   0.50000   0.35788   0.00000  Uiso   1.00
N388   N     0.25000   0.50000   0.64212   0.00000  Uiso   1.00
C389   C     0.40606   0.54427   0.50844   0.00000  Uiso   1.00
C390   C     0.09380   0.45735   0.48462   0.00000  Uiso   1.00
C391   C     0.40703   0.45369   0.49106   0.00000  Uiso   1.00
C392   C     0.09292   0.54565   0.51277   0.00000  Uiso   1.00
C393   C     0.38408   0.49882   0.50043   0.00000  Uiso   1.00
C394   C     0.11585   0.50132   0.49950   0.00000  Uiso   1.00
C395   C     0.45351   0.45470   0.48957   0.00000  Uiso   1.00
C396   C     0.04640   0.54511   0.51191   0.00000  Uiso   1.00
C397   C     0.45281   0.54482   0.51005   0.00000  Uiso   1.00
C398   C     0.04707   0.45603   0.48660   0.00000  Uiso   1.00
C399   C     0.47652   0.50004   0.49937   0.00000  Uiso   1.00
C400   C     0.02338   0.50042   0.49911   0.00000  Uiso   1.00
C401   C     0.47745   0.41063   0.47968   0.00000  Uiso   1.00
C402   C     0.02248   0.58865   0.52437   0.00000  Uiso   1.00
C403   C     0.47629   0.58852   0.52357   0.00000  Uiso   1.00
C404   C     0.02363   0.41123   0.47829   0.00000  Uiso   1.00
C405   C     0.24998   0.35508   0.50004   0.00000  Uiso   1.00
C406   C     0.25003   0.64492   0.49996   0.00000  Uiso   1.00
O407   O     0.38066   0.58709   0.51472   0.00000  Uiso   1.00
H408   H     0.39561   0.61479   0.49500   0.00000  Uiso   1.00
O409   O     0.11913   0.41627   0.46989   0.00000  Uiso   1.00
H410   H     0.10384   0.39892   0.43928   0.00000  Uiso   1.00
O411   O     0.38545   0.40837   0.48297   0.00000  Uiso   1.00
H412   H     0.35308   0.41145   0.49004   0.00000  Uiso   1.00
O413   O     0.11450   0.58997   0.52594   0.00000  Uiso   1.00
H414   H     0.14702   0.58723   0.51980   0.00000  Uiso   1.00
O415   O     0.75000   0.42845   0.54562   0.00000  Uiso   1.00
O416   O     0.75000   0.57155   0.45438   0.00000  Uiso   1.00
O417   O     0.75000   0.57155   0.54562   0.00000  Uiso   1.00
O418   O     0.75000   0.42845   0.45438   0.00000  Uiso   1.00
H419   H     0.96067   0.37527   0.47308   0.00000  Uiso   1.00
H420   H     0.53929   0.62317   0.53500   0.00000  Uiso   1.00
H421   H     0.95948   0.62277   0.53485   0.00000  Uiso   1.00
H422   H     0.54045   0.37595   0.47184   0.00000  Uiso   1.00
C423   C     0.74992   0.40603   0.50003   0.00000  Uiso   1.00
C424   C     0.75008   0.59397   0.49997   0.00000  Uiso   1.00
O425   O     0.68392   0.50000   0.54563   0.00000  Uiso   1.00
O426   O     0.81607   0.50000   0.45437   0.00000  Uiso   1.00
O427   O     0.81607   0.50000   0.54563   0.00000  Uiso   1.00
O428   O     0.68392   0.50000   0.45437   0.00000  Uiso   1.00
C429   C     0.66341   0.50029   0.49990   0.00000  Uiso   1.00
C430   C     0.83656   0.49972   0.50010   0.00000  Uiso   1.00
Zn431  Zn    0.75000   0.50000   0.56093   0.00000  Uiso   1.00
Zn432  Zn    0.75000   0.50000   0.43907   0.00000  Uiso   1.00
N433   N     0.75000   0.50000   0.35788   0.00000  Uiso   1.00
N434   N     0.75000   0.50000   0.64212   0.00000  Uiso   1.00
C435   C     0.90606   0.54427   0.50844   0.00000  Uiso   1.00
C436   C     0.59380   0.45735   0.48462   0.00000  Uiso   1.00
C437   C     0.90703   0.45369   0.49106   0.00000  Uiso   1.00
C438   C     0.59292   0.54565   0.51277   0.00000  Uiso   1.00
C439   C     0.88408   0.49882   0.50043   0.00000  Uiso   1.00
C440   C     0.61585   0.50132   0.49950   0.00000  Uiso   1.00
C441   C     0.95351   0.45470   0.48957   0.00000  Uiso   1.00
C442   C     0.54640   0.54511   0.51191   0.00000  Uiso   1.00
C443   C     0.95281   0.54482   0.51005   0.00000  Uiso   1.00
C444   C     0.54707   0.45603   0.48660   0.00000  Uiso   1.00
C445   C     0.97652   0.50004   0.49937   0.00000  Uiso   1.00
C446   C     0.52338   0.50042   0.49911   0.00000  Uiso   1.00
C447   C     0.97745   0.41063   0.47968   0.00000  Uiso   1.00
C448   C     0.52248   0.58865   0.52437   0.00000  Uiso   1.00
C449   C     0.97629   0.58852   0.52357   0.00000  Uiso   1.00
C450   C     0.52363   0.41123   0.47829   0.00000  Uiso   1.00
C451   C     0.74998   0.35508   0.50004   0.00000  Uiso   1.00
C452   C     0.75003   0.64492   0.49996   0.00000  Uiso   1.00
O453   O     0.88066   0.58709   0.51472   0.00000  Uiso   1.00
H454   H     0.89561   0.61479   0.49500   0.00000  Uiso   1.00
O455   O     0.61913   0.41627   0.46989   0.00000  Uiso   1.00
H456   H     0.60384   0.39892   0.43928   0.00000  Uiso   1.00
O457   O     0.88545   0.40837   0.48297   0.00000  Uiso   1.00
H458   H     0.85308   0.41145   0.49004   0.00000  Uiso   1.00
O459   O     0.61450   0.58997   0.52594   0.00000  Uiso   1.00
H460   H     0.64702   0.58723   0.51980   0.00000  Uiso   1.00
O461   O     0.25000   0.76178   0.54562   0.00000  Uiso   1.00
O462   O     0.25000   0.90488   0.45438   0.00000  Uiso   1.00
O463   O     0.25000   0.90488   0.54562   0.00000  Uiso   1.00
O464   O     0.25000   0.76178   0.45438   0.00000  Uiso   1.00
H465   H     0.46067   0.70860   0.47308   0.00000  Uiso   1.00
H466   H     0.03929   0.95650   0.53500   0.00000  Uiso   1.00
H467   H     0.45948   0.95611   0.53485   0.00000  Uiso   1.00
H468   H     0.04045   0.70928   0.47184   0.00000  Uiso   1.00
C469   C     0.24992   0.73936   0.50003   0.00000  Uiso   1.00
C470   C     0.25008   0.92731   0.49997   0.00000  Uiso   1.00
O471   O     0.18392   0.83333   0.54563   0.00000  Uiso   1.00
O472   O     0.31607   0.83333   0.45437   0.00000  Uiso   1.00
O473   O     0.31607   0.83333   0.54563   0.00000  Uiso   1.00
O474   O     0.18392   0.83333   0.45437   0.00000  Uiso   1.00
C475   C     0.16341   0.83363   0.49990   0.00000  Uiso   1.00
C476   C     0.33656   0.83306   0.50010   0.00000  Uiso   1.00
Zn477  Zn    0.25000   0.83333   0.56093   0.00000  Uiso   1.00
Zn478  Zn    0.25000   0.83333   0.43907   0.00000  Uiso   1.00
N479   N     0.25000   0.83333   0.35788   0.00000  Uiso   1.00
N480   N     0.25000   0.83333   0.64212   0.00000  Uiso   1.00
C481   C     0.40606   0.87760   0.50844   0.00000  Uiso   1.00
C482   C     0.09380   0.79068   0.48462   0.00000  Uiso   1.00
C483   C     0.40703   0.78702   0.49106   0.00000  Uiso   1.00
C484   C     0.09292   0.87899   0.51277   0.00000  Uiso   1.00
C485   C     0.38408   0.83215   0.50043   0.00000  Uiso   1.00
C486   C     0.11585   0.83466   0.49950   0.00000  Uiso   1.00
C487   C     0.45351   0.78803   0.48957   0.00000  Uiso   1.00
C488   C     0.04640   0.87845   0.51191   0.00000  Uiso   1.00
C489   C     0.45281   0.87815   0.51005   0.00000  Uiso   1.00
C490   C     0.04707   0.78936   0.48660   0.00000  Uiso   1.00
C491   C     0.47652   0.83337   0.49937   0.00000  Uiso   1.00
C492   C     0.02338   0.83375   0.49911   0.00000  Uiso   1.00
C493   C     0.47745   0.74397   0.47968   0.00000  Uiso   1.00
C494   C     0.02248   0.92198   0.52437   0.00000  Uiso   1.00
C495   C     0.47629   0.92185   0.52357   0.00000  Uiso   1.00
C496   C     0.02363   0.74456   0.47829   0.00000  Uiso   1.00
C497   C     0.24998   0.68841   0.50004   0.00000  Uiso   1.00
C498   C     0.25003   0.97825   0.49996   0.00000  Uiso   1.00
O499   O     0.38066   0.92043   0.51472   0.00000  Uiso   1.00
H500   H     0.39561   0.94812   0.49500   0.00000  Uiso   1.00
O501   O     0.11913   0.74960   0.46989   0.00000  Uiso   1.00
H502   H     0.10384   0.73225   0.43928   0.00000  Uiso   1.00
O503   O     0.38545   0.74170   0.48297   0.00000  Uiso   1.00
H504   H     0.35308   0.74478   0.49004   0.00000  Uiso   1.00
O505   O     0.11450   0.92330   0.52594   0.00000  Uiso   1.00
H506   H     0.14702   0.92056   0.51980   0.00000  Uiso   1.00
O507   O     0.75000   0.76178   0.54562   0.00000  Uiso   1.00
O508   O     0.75000   0.90488   0.45438   0.00000  Uiso   1.00
O509   O     0.75000   0.90488   0.54562   0.00000  Uiso   1.00
O510   O     0.75000   0.76178   0.45438   0.00000  Uiso   1.00
H511   H     0.96067   0.70860   0.47308   0.00000  Uiso   1.00
H512   H     0.53929   0.95650   0.53500   0.00000  Uiso   1.00
H513   H     0.95948   0.95611   0.53485   0.00000  Uiso   1.00
H514   H     0.54045   0.70928   0.47184   0.00000  Uiso   1.00
C515   C     0.74992   0.73936   0.50003   0.00000  Uiso   1.00
C516   C     0.75008   0.92731   0.49997   0.00000  Uiso   1.00
O517   O     0.68392   0.83333   0.54563   0.00000  Uiso   1.00
O518   O     0.81607   0.83333   0.45437   0.00000  Uiso   1.00
O519   O     0.81607   0.83333   0.54563   0.00000  Uiso   1.00
O520   O     0.68392   0.83333   0.45437   0.00000  Uiso   1.00
C521   C     0.66341   0.83363   0.49990   0.00000  Uiso   1.00
C522   C     0.83656   0.83306   0.50010   0.00000  Uiso   1.00
Zn523  Zn    0.75000   0.83333   0.56093   0.00000  Uiso   1.00
Zn524  Zn    0.75000   0.83333   0.43907   0.00000  Uiso   1.00
N525   N     0.75000   0.83333   0.35788   0.00000  Uiso   1.00
N526   N     0.75000   0.83333   0.64212   0.00000  Uiso   1.00
C527   C     0.90606   0.87760   0.50844   0.00000  Uiso   1.00
C528   C     0.59380   0.79068   0.48462   0.00000  Uiso   1.00
C529   C     0.90703   0.78702   0.49106   0.00000  Uiso   1.00
C530   C     0.59292   0.87899   0.51277   0.00000  Uiso   1.00
C531   C     0.88408   0.83215   0.50043   0.00000  Uiso   1.00
C532   C     0.61585   0.83466   0.49950   0.00000  Uiso   1.00
C533   C     0.95351   0.78803   0.48957   0.00000  Uiso   1.00
C534   C     0.54640   0.87845   0.51191   0.00000  Uiso   1.00
C535   C     0.95281   0.87815   0.51005   0.00000  Uiso   1.00
C536   C     0.54707   0.78936   0.48660   0.00000  Uiso   1.00
C537   C     0.97652   0.83337   0.49937   0.00000  Uiso   1.00
C538   C     0.52338   0.83375   0.49911   0.00000  Uiso   1.00
C539   C     0.97745   0.74397   0.47968   0.00000  Uiso   1.00
C540   C     0.52248   0.92198   0.52437   0.00000  Uiso   1.00
C541   C     0.97629   0.92185   0.52357   0.00000  Uiso   1.00
C542   C     0.52363   0.74456   0.47829   0.00000  Uiso   1.00
C543   C     0.74998   0.68841   0.50004   0.00000  Uiso   1.00
C544   C     0.75003   0.97825   0.49996   0.00000  Uiso   1.00
O545   O     0.88066   0.92043   0.51472   0.00000  Uiso   1.00
H546   H     0.89561   0.94812   0.49500   0.00000  Uiso   1.00
O547   O     0.61913   0.74960   0.46989   0.00000  Uiso   1.00
H548   H     0.60384   0.73225   0.43928   0.00000  Uiso   1.00
O549   O     0.88545   0.74170   0.48297   0.00000  Uiso   1.00
H550   H     0.85308   0.74478   0.49004   0.00000  Uiso   1.00
O551   O     0.61450   0.92330   0.52594   0.00000  Uiso   1.00
H552   H     0.64702   0.92056   0.51980   0.00000  Uiso   1.00
O553   O     0.25000   0.09512   0.87895   0.00000  Uiso   1.00
O554   O     0.25000   0.23822   0.78772   0.00000  Uiso   1.00
O555   O     0.25000   0.23822   0.87895   0.00000  Uiso   1.00
O556   O     0.25000   0.09512   0.78772   0.00000  Uiso   1.00
H557   H     0.46067   0.04194   0.80641   0.00000  Uiso   1.00
H558   H     0.03929   0.28983   0.86834   0.00000  Uiso   1.00
H559   H     0.45948   0.28944   0.86818   0.00000  Uiso   1.00
H560   H     0.04045   0.04261   0.80517   0.00000  Uiso   1.00
C561   C     0.24992   0.07269   0.83336   0.00000  Uiso   1.00
C562   C     0.25008   0.26064   0.83331   0.00000  Uiso   1.00
O563   O     0.18392   0.16667   0.87896   0.00000  Uiso   1.00
O564   O     0.31607   0.16667   0.78770   0.00000  Uiso   1.00
O565   O     0.31607   0.16667   0.87896   0.00000  Uiso   1.00
O566   O     0.18392   0.16667   0.78770   0.00000  Uiso   1.00
C567   C     0.16341   0.16696   0.83323   0.00000  Uiso   1.00
C568   C     0.33656   0.16639   0.83343   0.00000  Uiso   1.00
Zn569  Zn    0.25000   0.16667   0.89426   0.00000  Uiso   1.00
Zn570  Zn    0.25000   0.16667   0.77241   0.00000  Uiso   1.00
N571   N     0.25000   0.16667   0.69121   0.00000  Uiso   1.00
N572   N     0.25000   0.16667   0.97545   0.00000  Uiso   1.00
C573   C     0.40606   0.21094   0.84177   0.00000  Uiso   1.00
C574   C     0.09380   0.12402   0.81795   0.00000  Uiso   1.00
C575   C     0.40703   0.12036   0.82439   0.00000  Uiso   1.00
C576   C     0.09292   0.21232   0.84610   0.00000  Uiso   1.00
C577   C     0.38408   0.16548   0.83377   0.00000  Uiso   1.00
C578   C     0.11585   0.16799   0.83284   0.00000  Uiso   1.00
C579   C     0.45351   0.12137   0.82290   0.00000  Uiso   1.00
C580   C     0.04640   0.21178   0.84524   0.00000  Uiso   1.00
C581   C     0.45281   0.21149   0.84339   0.00000  Uiso   1.00
C582   C     0.04707   0.12270   0.81993   0.00000  Uiso   1.00
C583   C     0.47652   0.16671   0.83270   0.00000  Uiso   1.00
C584   C     0.02338   0.16708   0.83244   0.00000  Uiso   1.00
C585   C     0.47745   0.07730   0.81301   0.00000  Uiso   1.00
C586   C     0.02248   0.25532   0.85770   0.00000  Uiso   1.00
C587   C     0.47629   0.25518   0.85691   0.00000  Uiso   1.00
C588   C     0.02363   0.07790   0.81162   0.00000  Uiso   1.00
C589   C     0.24998   0.02175   0.83337   0.00000  Uiso   1.00
C590   C     0.25003   0.31159   0.83329   0.00000  Uiso   1.00
O591   O     0.38066   0.25376   0.84805   0.00000  Uiso   1.00
H592   H     0.39561   0.28146   0.82834   0.00000  Uiso   1.00
O593   O     0.11913   0.08294   0.80322   0.00000  Uiso   1.00
H594   H     0.10384   0.06558   0.77261   0.00000  Uiso   1.00
O595   O     0.38545   0.07504   0.81631   0.00000  Uiso   1.00
H596   H     0.35308   0.07811   0.82338   0.00000  Uiso   1.00
O597   O     0.11450   0.25663   0.85927   0.00000  Uiso   1.00
H598   H     0.14702   0.25390   0.85313   0.00000  Uiso   1.00
O599   O     0.75000   0.09512   0.87895   0.00000  Uiso   1.00
O600   O     0.75000   0.23822   0.78772   0.00000  Uiso   1.00
O601   O     0.75000   0.23822   0.87895   0.00000  Uiso   1.00
O602   O     0.75000   0.09512   0.78772   0.00000  Uiso   1.00
H603   H     0.96067   0.04194   0.80641   0.00000  Uiso   1.00
H604   H     0.53929   0.28983   0.86834   0.00000  Uiso   1.00
H605   H     0.95948   0.28944   0.86818   0.00000  Uiso   1.00
H606   H     0.54045   0.04261   0.80517   0.00000  Uiso   1.00
C607   C     0.74992   0.07269   0.83336   0.00000  Uiso   1.00
C608   C     0.75008   0.26064   0.83331   0.00000  Uiso   1.00
O609   O     0.68392   0.16667   0.87896   0.00000  Uiso   1.00
O610   O     0.81607   0.16667   0.78770   0.00000  Uiso   1.00
O611   O     0.81607   0.16667   0.87896   0.00000  Uiso   1.00
O612   O     0.68392   0.16667   0.78770   0.00000  Uiso   1.00
C613   C     0.66341   0.16696   0.83323   0.00000  Uiso   1.00
C614   C     0.83656   0.16639   0.83343   0.00000  Uiso   1.00
Zn615  Zn    0.75000   0.16667   0.89426   0.00000  Uiso   1.00
Zn616  Zn    0.75000   0.16667   0.77241   0.00000  Uiso   1.00
N617   N     0.75000   0.16667   0.69121   0.00000  Uiso   1.00
N618   N     0.75000   0.16667   0.97545   0.00000  Uiso   1.00
C619   C     0.90606   0.21094   0.84177   0.00000  Uiso   1.00
C620   C     0.59380   0.12402   0.81795   0.00000  Uiso   1.00
C621   C     0.90703   0.12036   0.82439   0.00000  Uiso   1.00
C622   C     0.59292   0.21232   0.84610   0.00000  Uiso   1.00
C623   C     0.88408   0.16548   0.83377   0.00000  Uiso   1.00
C624   C     0.61585   0.16799   0.83284   0.00000  Uiso   1.00
C625   C     0.95351   0.12137   0.82290   0.00000  Uiso   1.00
C626   C     0.54640   0.21178   0.84524   0.00000  Uiso   1.00
C627   C     0.95281   0.21149   0.84339   0.00000  Uiso   1.00
C628   C     0.54707   0.12270   0.81993   0.00000  Uiso   1.00
C629   C     0.97652   0.16671   0.83270   0.00000  Uiso   1.00
C630   C     0.52338   0.16708   0.83244   0.00000  Uiso   1.00
C631   C     0.97745   0.07730   0.81301   0.00000  Uiso   1.00
C632   C     0.52248   0.25532   0.85770   0.00000  Uiso   1.00
C633   C     0.97629   0.25518   0.85691   0.00000  Uiso   1.00
C634   C     0.52363   0.07790   0.81162   0.00000  Uiso   1.00
C635   C     0.74998   0.02175   0.83337   0.00000  Uiso   1.00
C636   C     0.75003   0.31159   0.83329   0.00000  Uiso   1.00
O637   O     0.88066   0.25376   0.84805   0.00000  Uiso   1.00
H638   H     0.89561   0.28146   0.82834   0.00000  Uiso   1.00
O639   O     0.61913   0.08294   0.80322   0.00000  Uiso   1.00
H640   H     0.60384   0.06558   0.77261   0.00000  Uiso   1.00
O641   O     0.88545   0.07504   0.81631   0.00000  Uiso   1.00
H642   H     0.85308   0.07811   0.82338   0.00000  Uiso   1.00
O643   O     0.61450   0.25663   0.85927   0.00000  Uiso   1.00
H644   H     0.64702   0.25390   0.85313   0.00000  Uiso   1.00
O645   O     0.25000   0.42845   0.87895   0.00000  Uiso   1.00
O646   O     0.25000   0.57155   0.78772   0.00000  Uiso   1.00
O647   O     0.25000   0.57155   0.87895   0.00000  Uiso   1.00
O648   O     0.25000   0.42845   0.78772   0.00000  Uiso   1.00
H649   H     0.46067   0.37527   0.80641   0.00000  Uiso   1.00
H650   H     0.03929   0.62317   0.86834   0.00000  Uiso   1.00
H651   H     0.45948   0.62277   0.86818   0.00000  Uiso   1.00
H652   H     0.04045   0.37595   0.80517   0.00000  Uiso   1.00
C653   C     0.24992   0.40603   0.83336   0.00000  Uiso   1.00
C654   C     0.25008   0.59397   0.83331   0.00000  Uiso   1.00
O655   O     0.18392   0.50000   0.87896   0.00000  Uiso   1.00
O656   O     0.31607   0.50000   0.78770   0.00000  Uiso   1.00
O657   O     0.31607   0.50000   0.87896   0.00000  Uiso   1.00
O658   O     0.18392   0.50000   0.78770   0.00000  Uiso   1.00
C659   C     0.16341   0.50029   0.83323   0.00000  Uiso   1.00
C660   C     0.33656   0.49972   0.83343   0.00000  Uiso   1.00
Zn661  Zn    0.25000   0.50000   0.89426   0.00000  Uiso   1.00
Zn662  Zn    0.25000   0.50000   0.77241   0.00000  Uiso   1.00
N663   N     0.25000   0.50000   0.69121   0.00000  Uiso   1.00
N664   N     0.25000   0.50000   0.97545   0.00000  Uiso   1.00
C665   C     0.40606   0.54427   0.84177   0.00000  Uiso   1.00
C666   C     0.09380   0.45735   0.81795   0.00000  Uiso   1.00
C667   C     0.40703   0.45369   0.82439   0.00000  Uiso   1.00
C668   C     0.09292   0.54565   0.84610   0.00000  Uiso   1.00
C669   C     0.38408   0.49882   0.83377   0.00000  Uiso   1.00
C670   C     0.11585   0.50132   0.83284   0.00000  Uiso   1.00
C671   C     0.45351   0.45470   0.82290   0.00000  Uiso   1.00
C672   C     0.04640   0.54511   0.84524   0.00000  Uiso   1.00
C673   C     0.45281   0.54482   0.84339   0.00000  Uiso   1.00
C674   C     0.04707   0.45603   0.81993   0.00000  Uiso   1.00
C675   C     0.47652   0.50004   0.83270   0.00000  Uiso   1.00
C676   C     0.02338   0.50042   0.83244   0.00000  Uiso   1.00
C677   C     0.47745   0.41063   0.81301   0.00000  Uiso   1.00
C678   C     0.02248   0.58865   0.85770   0.00000  Uiso   1.00
C679   C     0.47629   0.58852   0.85691   0.00000  Uiso   1.00
C680   C     0.02363   0.41123   0.81162   0.00000  Uiso   1.00
C681   C     0.24998   0.35508   0.83337   0.00000  Uiso   1.00
C682   C     0.25003   0.64492   0.83329   0.00000  Uiso   1.00
O683   O     0.38066   0.58709   0.84805   0.00000  Uiso   1.00
H684   H     0.39561   0.61479   0.82834   0.00000  Uiso   1.00
O685   O     0.11913   0.41627   0.80322   0.00000  Uiso   1.00
H686   H     0.10384   0.39892   0.77261   0.00000  Uiso   1.00
O687   O     0.38545   0.40837   0.81631   0.00000  Uiso   1.00
H688   H     0.35308   0.41145   0.82338   0.00000  Uiso   1.00
O689   O     0.11450   0.58997   0.85927   0.00000  Uiso   1.00
H690   H     0.14702   0.58723   0.85313   0.00000  Uiso   1.00
O691   O     0.75000   0.42845   0.87895   0.00000  Uiso   1.00
O692   O     0.75000   0.57155   0.78772   0.00000  Uiso   1.00
O693   O     0.75000   0.57155   0.87895   0.00000  Uiso   1.00
O694   O     0.75000   0.42845   0.78772   0.00000  Uiso   1.00
H695   H     0.96067   0.37527   0.80641   0.00000  Uiso   1.00
H696   H     0.53929   0.62317   0.86834   0.00000  Uiso   1.00
H697   H     0.95948   0.62277   0.86818   0.00000  Uiso   1.00
H698   H     0.54045   0.37595   0.80517   0.00000  Uiso   1.00
C699   C     0.74992   0.40603   0.83336   0.00000  Uiso   1.00
C700   C     0.75008   0.59397   0.83331   0.00000  Uiso   1.00
O701   O     0.68392   0.50000   0.87896   0.00000  Uiso   1.00
O702   O     0.81607   0.50000   0.78770   0.00000  Uiso   1.00
O703   O     0.81607   0.50000   0.87896   0.00000  Uiso   1.00
O704   O     0.68392   0.50000   0.78770   0.00000  Uiso   1.00
C705   C     0.66341   0.50029   0.83323   0.00000  Uiso   1.00
C706   C     0.83656   0.49972   0.83343   0.00000  Uiso   1.00
Zn707  Zn    0.75000   0.50000   0.89426   0.00000  Uiso   1.00
Zn708  Zn    0.75000   0.50000   0.77241   0.00000  Uiso   1.00
N709   N     0.75000   0.50000   0.69121   0.00000  Uiso   1.00
N710   N     0.75000   0.50000   0.97545   0.00000  Uiso   1.00
C711   C     0.90606   0.54427   0.84177   0.00000  Uiso   1.00
C712   C     0.59380   0.45735   0.81795   0.00000  Uiso   1.00
C713   C     0.90703   0.45369   0.82439   0.00000  Uiso   1.00
C714   C     0.59292   0.54565   0.84610   0.00000  Uiso   1.00
C715   C     0.88408   0.49882   0.83377   0.00000  Uiso   1.00
C716   C     0.61585   0.50132   0.83284   0.00000  Uiso   1.00
C717   C     0.95351   0.45470   0.82290   0.00000  Uiso   1.00
C718   C     0.54640   0.54511   0.84524   0.00000  Uiso   1.00
C719   C     0.95281   0.54482   0.84339   0.00000  Uiso   1.00
C720   C     0.54707   0.45603   0.81993   0.00000  Uiso   1.00
C721   C     0.97652   0.50004   0.83270   0.00000  Uiso   1.00
C722   C     0.52338   0.50042   0.83244   0.00000  Uiso   1.00
C723   C     0.97745   0.41063   0.81301   0.00000  Uiso   1.00
C724   C     0.52248   0.58865   0.85770   0.00000  Uiso   1.00
C725   C     0.97629   0.58852   0.85691   0.00000  Uiso   1.00
C726   C     0.52363   0.41123   0.81162   0.00000  Uiso   1.00
C727   C     0.74998   0.35508   0.83337   0.00000  Uiso   1.00
C728   C     0.75003   0.64492   0.83329   0.00000  Uiso   1.00
O729   O     0.88066   0.58709   0.84805   0.00000  Uiso   1.00
H730   H     0.89561   0.61479   0.82834   0.00000  Uiso   1.00
O731   O     0.61913   0.41627   0.80322   0.00000  Uiso   1.00
H732   H     0.60384   0.39892   0.77261   0.00000  Uiso   1.00
O733   O     0.88545   0.40837   0.81631   0.00000  Uiso   1.00
H734   H     0.85308   0.41145   0.82338   0.00000  Uiso   1.00
O735   O     0.61450   0.58997   0.85927   0.00000  Uiso   1.00
H736   H     0.64702   0.58723   0.85313   0.00000  Uiso   1.00
O737   O     0.25000   0.76178   0.87895   0.00000  Uiso   1.00
O738   O     0.25000   0.90488   0.78772   0.00000  Uiso   1.00
O739   O     0.25000   0.90488   0.87895   0.00000  Uiso   1.00
O740   O     0.25000   0.76178   0.78772   0.00000  Uiso   1.00
H741   H     0.46067   0.70860   0.80641   0.00000  Uiso   1.00
H742   H     0.03929   0.95650   0.86834   0.00000  Uiso   1.00
H743   H     0.45948   0.95611   0.86818   0.00000  Uiso   1.00
H744   H     0.04045   0.70928   0.80517   0.00000  Uiso   1.00
C745   C     0.24992   0.73936   0.83336   0.00000  Uiso   1.00
C746   C     0.25008   0.92731   0.83331   0.00000  Uiso   1.00
O747   O     0.18392   0.83333   0.87896   0.00000  Uiso   1.00
O748   O     0.31607   0.83333   0.78770   0.00000  Uiso   1.00
O749   O     0.31607   0.83333   0.87896   0.00000  Uiso   1.00
O750   O     0.18392   0.83333   0.78770   0.00000  Uiso   1.00
C751   C     0.16341   0.83363   0.83323   0.00000  Uiso   1.00
C752   C     0.33656   0.83306   0.83343   0.00000  Uiso   1.00
Zn753  Zn    0.25000   0.83333   0.89426   0.00000  Uiso   1.00
Zn754  Zn    0.25000   0.83333   0.77241   0.00000  Uiso   1.00
N755   N     0.25000   0.83333   0.69121   0.00000  Uiso   1.00
N756   N     0.25000   0.83333   0.97545   0.00000  Uiso   1.00
C757   C     0.40606   0.87760   0.84177   0.00000  Uiso   1.00
C758   C     0.09380   0.79068   0.81795   0.00000  Uiso   1.00
C759   C     0.40703   0.78702   0.82439   0.00000  Uiso   1.00
C760   C     0.09292   0.87899   0.84610   0.00000  Uiso   1.00
C761   C     0.38408   0.83215   0.83377   0.00000  Uiso   1.00
C762   C     0.11585   0.83466   0.83284   0.00000  Uiso   1.00
C763   C     0.45351   0.78803   0.82290   0.00000  Uiso   1.00
C764   C     0.04640   0.87845   0.84524   0.00000  Uiso   1.00
C765   C     0.45281   0.87815   0.84339   0.00000  Uiso   1.00
C766   C     0.04707   0.78936   0.81993   0.00000  Uiso   1.00
C767   C     0.47652   0.83337   0.83270   0.00000  Uiso   1.00
C768   C     0.02338   0.83375   0.83244   0.00000  Uiso   1.00
C769   C     0.47745   0.74397   0.81301   0.00000  Uiso   1.00
C770   C     0.02248   0.92198   0.85770   0.00000  Uiso   1.00
C771   C     0.47629   0.92185   0.85691   0.00000  Uiso   1.00
C772   C     0.02363   0.74456   0.81162   0.00000  Uiso   1.00
C773   C     0.24998   0.68841   0.83337   0.00000  Uiso   1.00
C774   C     0.25003   0.97825   0.83329   0.00000  Uiso   1.00
O775   O     0.38066   0.92043   0.84805   0.00000  Uiso   1.00
H776   H     0.39561   0.94812   0.82834   0.00000  Uiso   1.00
O777   O     0.11913   0.74960   0.80322   0.00000  Uiso   1.00
H778   H     0.10384   0.73225   0.77261   0.00000  Uiso   1.00
O779   O     0.38545   0.74170   0.81631   0.00000  Uiso   1.00
H780   H     0.35308   0.74478   0.82338   0.00000  Uiso   1.00
O781   O     0.11450   0.92330   0.85927   0.00000  Uiso   1.00
H782   H     0.14702   0.92056   0.85313   0.00000  Uiso   1.00
O783   O     0.75000   0.76178   0.87895   0.00000  Uiso   1.00
O784   O     0.75000   0.90488   0.78772   0.00000  Uiso   1.00
O785   O     0.75000   0.90488   0.87895   0.00000  Uiso   1.00
O786   O     0.75000   0.76178   0.78772   0.00000  Uiso   1.00
H787   H     0.96067   0.70860   0.80641   0.00000  Uiso   1.00
H788   H     0.53929   0.95650   0.86834   0.00000  Uiso   1.00
H789   H     0.95948   0.95611   0.86818   0.00000  Uiso   1.00
H790   H     0.54045   0.70928   0.80517   0.00000  Uiso   1.00
C791   C     0.74992   0.73936   0.83336   0.00000  Uiso   1.00
C792   C     0.75008   0.92731   0.83331   0.00000  Uiso   1.00
O793   O     0.68392   0.83333   0.87896   0.00000  Uiso   1.00
O794   O     0.81607   0.83333   0.78770   0.00000  Uiso   1.00
O795   O     0.81607   0.83333   0.87896   0.00000  Uiso   1.00
O796   O     0.68392   0.83333   0.78770   0.00000  Uiso   1.00
C797   C     0.66341   0.83363   0.83323   0.00000  Uiso   1.00
C798   C     0.83656   0.83306   0.83343   0.00000  Uiso   1.00
Zn799  Zn    0.75000   0.83333   0.89426   0.00000  Uiso   1.00
Zn800  Zn    0.75000   0.83333   0.77241   0.00000  Uiso   1.00
N801   N     0.75000   0.83333   0.69121   0.00000  Uiso   1.00
N802   N     0.75000   0.83333   0.97545   0.00000  Uiso   1.00
C803   C     0.90606   0.87760   0.84177   0.00000  Uiso   1.00
C804   C     0.59380   0.79068   0.81795   0.00000  Uiso   1.00
C805   C     0.90703   0.78702   0.82439   0.00000  Uiso   1.00
C806   C     0.59292   0.87899   0.84610   0.00000  Uiso   1.00
C807   C     0.88408   0.83215   0.83377   0.00000  Uiso   1.00
C808   C     0.61585   0.83466   0.83284   0.00000  Uiso   1.00
C809   C     0.95351   0.78803   0.82290   0.00000  Uiso   1.00
C810   C     0.54640   0.87845   0.84524   0.00000  Uiso   1.00
C811   C     0.95281   0.87815   0.84339   0.00000  Uiso   1.00
C812   C     0.54707   0.78936   0.81993   0.00000  Uiso   1.00
C813   C     0.97652   0.83337   0.83270   0.00000  Uiso   1.00
C814   C     0.52338   0.83375   0.83244   0.00000  Uiso   1.00
C815   C     0.97745   0.74397   0.81301   0.00000  Uiso   1.00
C816   C     0.52248   0.92198   0.85770   0.00000  Uiso   1.00
C817   C     0.97629   0.92185   0.85691   0.00000  Uiso   1.00
C818   C     0.52363   0.74456   0.81162   0.00000  Uiso   1.00
C819   C     0.74998   0.68841   0.83337   0.00000  Uiso   1.00
C820   C     0.75003   0.97825   0.83329   0.00000  Uiso   1.00
O821   O     0.88066   0.92043   0.84805   0.00000  Uiso   1.00
H822   H     0.89561   0.94812   0.82834   0.00000  Uiso   1.00
O823   O     0.61913   0.74960   0.80322   0.00000  Uiso   1.00
H824   H     0.60384   0.73225   0.77261   0.00000  Uiso   1.00
O825   O     0.88545   0.74170   0.81631   0.00000  Uiso   1.00
H826   H     0.85308   0.74478   0.82338   0.00000  Uiso   1.00
O827   O     0.61450   0.92330   0.85927   0.00000  Uiso   1.00
H828   H     0.64702   0.92056   0.85313   0.00000  Uiso   1.00
loop_
_geom_bond_atom_site_label_1
_geom_bond_atom_site_label_2
_geom_bond_distance
_geom_bond_site_symmetry_2
_ccdc_geom_bond_type
O1     Zn17    1.951   .     S
O1     C9      1.263   .     A
O2     Zn18    1.951   .     S
O2     C10     1.263   .     A
O3     C10     1.263   .     A
O3     Zn17    1.950   .     S
O4     Zn18    1.950   .     S
O4     C9      1.263   .     A
H5     C33     1.083   .     S
H6     C34     1.083   .     S
H7     C35     1.081   .     S
H8     C36     1.082   .     S
C9     C37     1.363   .     S
C10    C38     1.363   .     S
O11    C15     1.270   .     A
O11    Zn17    2.012   .     S
O12    C16     1.270   .     A
O12    Zn18    2.012   .     S
O13    Zn17    2.014   .     S
O13    C16     1.269   .     A
O14    Zn18    2.014   .     S
O14    C15     1.270   .     A
C15    C26     1.424   .     S
C16    C25     1.423   .     S
Zn17   N20     1.978   .     S
Zn18   N19     1.978   .     S
N19    N572    1.196   1_554 S
N20    N295    1.196   .     S
C21    O39     1.384   .     S
C21    C25     1.397   .     A
C21    C29     1.400   .     A
C22    O41     1.383   .     S
C22    C26     1.397   .     A
C22    C30     1.400   .     A
C23    C27     1.392   .     A
C23    C25     1.408   .     A
C23    O43     1.388   .     S
C24    C28     1.393   .     A
C24    O45     1.388   .     S
C24    C26     1.409   .     A
C27    C33     1.401   .     A
C27    C31     1.415   .     A
C28    C34     1.401   .     A
C28    C32     1.415   .     A
C29    C35     1.403   .     A
C29    C31     1.417   .     A
C30    C36     1.404   .     A
C30    C32     1.417   .     A
C31    C78     1.403   .     S
C32    C77     1.403   1_455 S
C33    C82     1.383   .     S
C34    C81     1.383   1_455 S
C35    C80     1.383   .     S
C36    C79     1.383   1_455 S
C37    C222    1.164   1_545 S
C38    C129    1.164   .     S
O39    H40     0.990   .     S
O41    H42     0.990   .     S
O43    H44     0.988   .     S
O45    H46     0.988   .     S
O47    Zn63    1.951   .     S
O47    C55     1.263   .     A
O48    Zn64    1.951   .     S
O48    C56     1.263   .     A
O49    C56     1.263   .     A
O49    Zn63    1.950   .     S
O50    Zn64    1.950   .     S
O50    C55     1.263   .     A
H51    C79     1.083   .     S
H52    C80     1.083   .     S
H53    C81     1.081   .     S
H54    C82     1.082   .     S
C55    C83     1.363   .     S
C56    C84     1.363   .     S
O57    C61     1.270   .     A
O57    Zn63    2.012   .     S
O58    C62     1.270   .     A
O58    Zn64    2.012   .     S
O59    Zn63    2.014   .     S
O59    C62     1.269   .     A
O60    Zn64    2.014   .     S
O60    C61     1.270   .     A
C61    C72     1.424   .     S
C62    C71     1.423   .     S
Zn63   N66     1.978   .     S
Zn64   N65     1.978   .     S
N65    N618    1.196   1_554 S
N66    N341    1.196   .     S
C67    O85     1.384   .     S
C67    C71     1.397   .     A
C67    C75     1.400   .     A
C68    O87     1.383   .     S
C68    C72     1.397   .     A
C68    C76     1.400   .     A
C69    C73     1.392   .     A
C69    C71     1.408   .     A
C69    O89     1.388   .     S
C70    C74     1.393   .     A
C70    O91     1.388   .     S
C70    C72     1.409   .     A
C73    C79     1.401   .     A
C73    C77     1.415   .     A
C74    C80     1.401   .     A
C74    C78     1.415   .     A
C75    C81     1.403   .     A
C75    C77     1.417   .     A
C76    C82     1.404   .     A
C76    C78     1.417   .     A
C77    C32     1.403   1_655 S
C79    C36     1.383   1_655 S
C81    C34     1.383   1_655 S
C83    C268    1.164   1_545 S
C84    C175    1.164   .     S
O85    H86     0.990   .     S
O87    H88     0.990   .     S
O89    H90     0.988   .     S
O91    H92     0.988   .     S
O93    Zn109   1.951   .     S
O93    C101    1.263   .     A
O94    Zn110   1.951   .     S
O94    C102    1.263   .     A
O95    C102    1.263   .     A
O95    Zn109   1.950   .     S
O96    Zn110   1.950   .     S
O96    C101    1.263   .     A
H97    C125    1.083   .     S
H98    C126    1.083   .     S
H99    C127    1.081   .     S
H100   C128    1.082   .     S
C101   C129    1.363   .     S
C102   C130    1.363   .     S
O103   C107    1.270   .     A
O103   Zn109   2.012   .     S
O104   C108    1.270   .     A
O104   Zn110   2.012   .     S
O105   Zn109   2.014   .     S
O105   C108    1.269   .     A
O106   Zn110   2.014   .     S
O106   C107    1.270   .     A
C107   C118    1.424   .     S
C108   C117    1.423   .     S
Zn109  N112    1.978   .     S
Zn110  N111    1.978   .     S
N111   N664    1.196   1_554 S
N112   N387    1.196   .     S
C113   O131    1.384   .     S
C113   C117    1.397   .     A
C113   C121    1.400   .     A
C114   O133    1.383   .     S
C114   C118    1.397   .     A
C114   C122    1.400   .     A
C115   C119    1.392   .     A
C115   C117    1.408   .     A
C115   O135    1.388   .     S
C116   C120    1.393   .     A
C116   O137    1.388   .     S
C116   C118    1.409   .     A
C119   C125    1.401   .     A
C119   C123    1.415   .     A
C120   C126    1.401   .     A
C120   C124    1.415   .     A
C121   C127    1.403   .     A
C121   C123    1.417   .     A
C122   C128    1.404   .     A
C122   C124    1.417   .     A
C123   C170    1.403   .     S
C124   C169    1.403   1_455 S
C125   C174    1.383   .     S
C126   C173    1.383   1_455 S
C127   C172    1.383   .     S
C128   C171    1.383   1_455 S
C130   C221    1.164   .     S
O131   H132    0.990   .     S
O133   H134    0.990   .     S
O135   H136    0.988   .     S
O137   H138    0.988   .     S
O139   Zn155   1.951   .     S
O139   C147    1.263   .     A
O140   Zn156   1.951   .     S
O140   C148    1.263   .     A
O141   C148    1.263   .     A
O141   Zn155   1.950   .     S
O142   Zn156   1.950   .     S
O142   C147    1.263   .     A
H143   C171    1.083   .     S
H144   C172    1.083   .     S
H145   C173    1.081   .     S
H146   C174    1.082   .     S
C147   C175    1.363   .     S
C148   C176    1.363   .     S
O149   C153    1.270   .     A
O149   Zn155   2.012   .     S
O150   C154    1.270   .     A
O150   Zn156   2.012   .     S
O151   Zn155   2.014   .     S
O151   C154    1.269   .     A
O152   Zn156   2.014   .     S
O152   C153    1.270   .     A
C153   C164    1.424   .     S
C154   C163    1.423   .     S
Zn155  N158    1.978   .     S
Zn156  N157    1.978   .     S
N157   N710    1.196   1_554 S
N158   N433    1.196   .     S
C159   O177    1.384   .     S
C159   C163    1.397   .     A
C159   C167    1.400   .     A
C160   O179    1.383   .     S
C160   C164    1.397   .     A
C160   C168    1.400   .     A
C161   C165    1.392   .     A
C161   C163    1.408   .     A
C161   O181    1.388   .     S
C162   C166    1.393   .     A
C162   O183    1.388   .     S
C162   C164    1.409   .     A
C165   C171    1.401   .     A
C165   C169    1.415   .     A
C166   C172    1.401   .     A
C166   C170    1.415   .     A
C167   C173    1.403   .     A
C167   C169    1.417   .     A
C168   C174    1.404   .     A
C168   C170    1.417   .     A
C169   C124    1.403   1_655 S
C171   C128    1.383   1_655 S
C173   C126    1.383   1_655 S
C176   C267    1.164   .     S
O177   H178    0.990   .     S
O179   H180    0.990   .     S
O181   H182    0.988   .     S
O183   H184    0.988   .     S
O185   Zn201   1.951   .     S
O185   C193    1.263   .     A
O186   Zn202   1.951   .     S
O186   C194    1.263   .     A
O187   C194    1.263   .     A
O187   Zn201   1.950   .     S
O188   Zn202   1.950   .     S
O188   C193    1.263   .     A
H189   C217    1.083   .     S
H190   C218    1.083   .     S
H191   C219    1.081   .     S
H192   C220    1.082   .     S
C193   C221    1.363   .     S
C194   C222    1.363   .     S
O195   C199    1.270   .     A
O195   Zn201   2.012   .     S
O196   C200    1.270   .     A
O196   Zn202   2.012   .     S
O197   Zn201   2.014   .     S
O197   C200    1.269   .     A
O198   Zn202   2.014   .     S
O198   C199    1.270   .     A
C199   C210    1.424   .     S
C200   C209    1.423   .     S
Zn201  N204    1.978   .     S
Zn202  N203    1.978   .     S
N203   N756    1.196   1_554 S
N204   N479    1.196   .     S
C205   O223    1.384   .     S
C205   C209    1.397   .     A
C205   C213    1.400   .     A
C206   O225    1.383   .     S
C206   C210    1.397   .     A
C206   C214    1.400   .     A
C207   C211    1.392   .     A
C207   C209    1.408   .     A
C207   O227    1.388   .     S
C208   C212    1.393   .     A
C208   O229    1.388   .     S
C208   C210    1.409   .     A
C211   C217    1.401   .     A
C211   C215    1.415   .     A
C212   C218    1.401   .     A
C212   C216    1.415   .     A
C213   C219    1.403   .     A
C213   C215    1.417   .     A
C214   C220    1.404   .     A
C214   C216    1.417   .     A
C215   C262    1.403   .     S
C216   C261    1.403   1_455 S
C217   C266    1.383   .     S
C218   C265    1.383   1_455 S
C219   C264    1.383   .     S
C220   C263    1.383   1_455 S
C222   C37     1.164   1_565 S
O223   H224    0.990   .     S
O225   H226    0.990   .     S
O227   H228    0.988   .     S
O229   H230    0.988   .     S
O231   Zn247   1.951   .     S
O231   C239    1.263   .     A
O232   Zn248   1.951   .     S
O232   C240    1.263   .     A
O233   C240    1.263   .     A
O233   Zn247   1.950   .     S
O234   Zn248   1.950   .     S
O234   C239    1.263   .     A
H235   C263    1.083   .     S
H236   C264    1.083   .     S
H237   C265    1.081   .     S
H238   C266    1.082   .     S
C239   C267    1.363   .     S
C240   C268    1.363   .     S
O241   C245    1.270   .     A
O241   Zn247   2.012   .     S
O242   C246    1.270   .     A
O242   Zn248   2.012   .     S
O243   Zn247   2.014   .     S
O243   C246    1.269   .     A
O244   Zn248   2.014   .     S
O244   C245    1.270   .     A
C245   C256    1.424   .     S
C246   C255    1.423   .     S
Zn247  N250    1.978   .     S
Zn248  N249    1.978   .     S
N249   N802    1.196   1_554 S
N250   N525    1.196   .     S
C251   O269    1.384   .     S
C251   C255    1.397   .     A
C251   C259    1.400   .     A
C252   O271    1.383   .     S
C252   C256    1.397   .     A
C252   C260    1.400   .     A
C253   C257    1.392   .     A
C253   C255    1.408   .     A
C253   O273    1.388   .     S
C254   C258    1.393   .     A
C254   O275    1.388   .     S
C254   C256    1.409   .     A
C257   C263    1.401   .     A
C257   C261    1.415   .     A
C258   C264    1.401   .     A
C258   C262    1.415   .     A
C259   C265    1.403   .     A
C259   C261    1.417   .     A
C260   C266    1.404   .     A
C260   C262    1.417   .     A
C261   C216    1.403   1_655 S
C263   C220    1.383   1_655 S
C265   C218    1.383   1_655 S
C268   C83     1.164   1_565 S
O269   H270    0.990   .     S
O271   H272    0.990   .     S
O273   H274    0.988   .     S
O275   H276    0.988   .     S
O277   Zn293   1.951   .     S
O277   C285    1.263   .     A
O278   Zn294   1.951   .     S
O278   C286    1.263   .     A
O279   C286    1.263   .     A
O279   Zn293   1.950   .     S
O280   Zn294   1.950   .     S
O280   C285    1.263   .     A
H281   C309    1.083   .     S
H282   C310    1.083   .     S
H283   C311    1.081   .     S
H284   C312    1.082   .     S
C285   C313    1.363   .     S
C286   C314    1.363   .     S
O287   C291    1.270   .     A
O287   Zn293   2.012   .     S
O288   C292    1.270   .     A
O288   Zn294   2.012   .     S
O289   Zn293   2.014   .     S
O289   C292    1.269   .     A
O290   Zn294   2.014   .     S
O290   C291    1.270   .     A
C291   C302    1.424   .     S
C292   C301    1.423   .     S
Zn293  N296    1.978   .     S
Zn294  N295    1.978   .     S
N296   N571    1.196   .     S
C297   O315    1.384   .     S
C297   C301    1.397   .     A
C297   C305    1.400   .     A
C298   O317    1.383   .     S
C298   C302    1.397   .     A
C298   C306    1.400   .     A
C299   C303    1.392   .     A
C299   C301    1.408   .     A
C299   O319    1.388   .     S
C300   C304    1.393   .     A
C300   O321    1.388   .     S
C300   C302    1.409   .     A
C303   C309    1.401   .     A
C303   C307    1.415   .     A
C304   C310    1.401   .     A
C304   C308    1.415   .     A
C305   C311    1.403   .     A
C305   C307    1.417   .     A
C306   C312    1.404   .     A
C306   C308    1.417   .     A
C307   C354    1.403   .     S
C308   C353    1.403   1_455 S
C309   C358    1.383   .     S
C310   C357    1.383   1_455 S
C311   C356    1.383   .     S
C312   C355    1.383   1_455 S
C313   C498    1.164   1_545 S
C314   C405    1.164   .     S
O315   H316    0.990   .     S
O317   H318    0.990   .     S
O319   H320    0.988   .     S
O321   H322    0.988   .     S
O323   Zn339   1.951   .     S
O323   C331    1.263   .     A
O324   Zn340   1.951   .     S
O324   C332    1.263   .     A
O325   C332    1.263   .     A
O325   Zn339   1.950   .     S
O326   Zn340   1.950   .     S
O326   C331    1.263   .     A
H327   C355    1.083   .     S
H328   C356    1.083   .     S
H329   C357    1.081   .     S
H330   C358    1.082   .     S
C331   C359    1.363   .     S
C332   C360    1.363   .     S
O333   C337    1.270   .     A
O333   Zn339   2.012   .     S
O334   C338    1.270   .     A
O334   Zn340   2.012   .     S
O335   Zn339   2.014   .     S
O335   C338    1.269   .     A
O336   Zn340   2.014   .     S
O336   C337    1.270   .     A
C337   C348    1.424   .     S
C338   C347    1.423   .     S
Zn339  N342    1.978   .     S
Zn340  N341    1.978   .     S
N342   N617    1.196   .     S
C343   O361    1.384   .     S
C343   C347    1.397   .     A
C343   C351    1.400   .     A
C344   O363    1.383   .     S
C344   C348    1.397   .     A
C344   C352    1.400   .     A
C345   C349    1.392   .     A
C345   C347    1.408   .     A
C345   O365    1.388   .     S
C346   C350    1.393   .     A
C346   O367    1.388   .     S
C346   C348    1.409   .     A
C349   C355    1.401   .     A
C349   C353    1.415   .     A
C350   C356    1.401   .     A
C350   C354    1.415   .     A
C351   C357    1.403   .     A
C351   C353    1.417   .     A
C352   C358    1.404   .     A
C352   C354    1.417   .     A
C353   C308    1.403   1_655 S
C355   C312    1.383   1_655 S
C357   C310    1.383   1_655 S
C359   C544    1.164   1_545 S
C360   C451    1.164   .     S
O361   H362    0.990   .     S
O363   H364    0.990   .     S
O365   H366    0.988   .     S
O367   H368    0.988   .     S
O369   Zn385   1.951   .     S
O369   C377    1.263   .     A
O370   Zn386   1.951   .     S
O370   C378    1.263   .     A
O371   C378    1.263   .     A
O371   Zn385   1.950   .     S
O372   Zn386   1.950   .     S
O372   C377    1.263   .     A
H373   C401    1.083   .     S
H374   C402    1.083   .     S
H375   C403    1.081   .     S
H376   C404    1.082   .     S
C377   C405    1.363   .     S
C378   C406    1.363   .     S
O379   C383    1.270   .     A
O379   Zn385   2.012   .     S
O380   C384    1.270   .     A
O380   Zn386   2.012   .     S
O381   Zn385   2.014   .     S
O381   C384    1.269   .     A
O382   Zn386   2.014   .     S
O382   C383    1.270   .     A
C383   C394    1.424   .     S
C384   C393    1.423   .     S
Zn385  N388    1.978   .     S
Zn386  N387    1.978   .     S
N388   N663    1.196   .     S
C389   O407    1.384   .     S
C389   C393    1.397   .     A
C389   C397    1.400   .     A
C390   O409    1.383   .     S
C390   C394    1.397   .     A
C390   C398    1.400   .     A
C391   C395    1.392   .     A
C391   C393    1.408   .     A
C391   O411    1.388   .     S
C392   C396    1.393   .     A
C392   O413    1.388   .     S
C392   C394    1.409   .     A
C395   C401    1.401   .     A
C395   C399    1.415   .     A
C396   C402    1.401   .     A
C396   C400    1.415   .     A
C397   C403    1.403   .     A
C397   C399    1.417   .     A
C398   C404    1.404   .     A
C398   C400    1.417   .     A
C399   C446    1.403   .     S
C400   C445    1.403   1_455 S
C401   C450    1.383   .     S
C402   C449    1.383   1_455 S
C403   C448    1.383   .     S
C404   C447    1.383   1_455 S
C406   C497    1.164   .     S
O407   H408    0.990   .     S
O409   H410    0.990   .     S
O411   H412    0.988   .     S
O413   H414    0.988   .     S
O415   Zn431   1.951   .     S
O415   C423    1.263   .     A
O416   Zn432   1.951   .     S
O416   C424    1.263   .     A
O417   C424    1.263   .     A
O417   Zn431   1.950   .     S
O418   Zn432   1.950   .     S
O418   C423    1.263   .     A
H419   C447    1.083   .     S
H420   C448    1.083   .     S
H421   C449    1.081   .     S
H422   C450    1.082   .     S
C423   C451    1.363   .     S
C424   C452    1.363   .     S
O425   C429    1.270   .     A
O425   Zn431   2.012   .     S
O426   C430    1.270   .     A
O426   Zn432   2.012   .     S
O427   Zn431   2.014   .     S
O427   C430    1.269   .     A
O428   Zn432   2.014   .     S
O428   C429    1.270   .     A
C429   C440    1.424   .     S
C430   C439    1.423   .     S
Zn431  N434    1.978   .     S
Zn432  N433    1.978   .     S
N434   N709    1.196   .     S
C435   O453    1.384   .     S
C435   C439    1.397   .     A
C435   C443    1.400   .     A
C436   O455    1.383   .     S
C436   C440    1.397   .     A
C436   C444    1.400   .     A
C437   C441    1.392   .     A
C437   C439    1.408   .     A
C437   O457    1.388   .     S
C438   C442    1.393   .     A
C438   O459    1.388   .     S
C438   C440    1.409   .     A
C441   C447    1.401   .     A
C441   C445    1.415   .     A
C442   C448    1.401   .     A
C442   C446    1.415   .     A
C443   C449    1.403   .     A
C443   C445    1.417   .     A
C444   C450    1.404   .     A
C444   C446    1.417   .     A
C445   C400    1.403   1_655 S
C447   C404    1.383   1_655 S
C449   C402    1.383   1_655 S
C452   C543    1.164   .     S
O453   H454    0.990   .     S
O455   H456    0.990   .     S
O457   H458    0.988   .     S
O459   H460    0.988   .     S
O461   Zn477   1.951   .     S
O461   C469    1.263   .     A
O462   Zn478   1.951   .     S
O462   C470    1.263   .     A
O463   C470    1.263   .     A
O463   Zn477   1.950   .     S
O464   Zn478   1.950   .     S
O464   C469    1.263   .     A
H465   C493    1.083   .     S
H466   C494    1.083   .     S
H467   C495    1.081   .     S
H468   C496    1.082   .     S
C469   C497    1.363   .     S
C470   C498    1.363   .     S
O471   C475    1.270   .     A
O471   Zn477   2.012   .     S
O472   C476    1.270   .     A
O472   Zn478   2.012   .     S
O473   Zn477   2.014   .     S
O473   C476    1.269   .     A
O474   Zn478   2.014   .     S
O474   C475    1.270   .     A
C475   C486    1.424   .     S
C476   C485    1.423   .     S
Zn477  N480    1.978   .     S
Zn478  N479    1.978   .     S
N480   N755    1.196   .     S
C481   O499    1.384   .     S
C481   C485    1.397   .     A
C481   C489    1.400   .     A
C482   O501    1.383   .     S
C482   C486    1.397   .     A
C482   C490    1.400   .     A
C483   C487    1.392   .     A
C483   C485    1.408   .     A
C483   O503    1.388   .     S
C484   C488    1.393   .     A
C484   O505    1.388   .     S
C484   C486    1.409   .     A
C487   C493    1.401   .     A
C487   C491    1.415   .     A
C488   C494    1.401   .     A
C488   C492    1.415   .     A
C489   C495    1.403   .     A
C489   C491    1.417   .     A
C490   C496    1.404   .     A
C490   C492    1.417   .     A
C491   C538    1.403   .     S
C492   C537    1.403   1_455 S
C493   C542    1.383   .     S
C494   C541    1.383   1_455 S
C495   C540    1.383   .     S
C496   C539    1.383   1_455 S
C498   C313    1.164   1_565 S
O499   H500    0.990   .     S
O501   H502    0.990   .     S
O503   H504    0.988   .     S
O505   H506    0.988   .     S
O507   Zn523   1.951   .     S
O507   C515    1.263   .     A
O508   Zn524   1.951   .     S
O508   C516    1.263   .     A
O509   C516    1.263   .     A
O509   Zn523   1.950   .     S
O510   Zn524   1.950   .     S
O510   C515    1.263   .     A
H511   C539    1.083   .     S
H512   C540    1.083   .     S
H513   C541    1.081   .     S
H514   C542    1.082   .     S
C515   C543    1.363   .     S
C516   C544    1.363   .     S
O517   C521    1.270   .     A
O517   Zn523   2.012   .     S
O518   C522    1.270   .     A
O518   Zn524   2.012   .     S
O519   Zn523   2.014   .     S
O519   C522    1.269   .     A
O520   Zn524   2.014   .     S
O520   C521    1.270   .     A
C521   C532    1.424   .     S
C522   C531    1.423   .     S
Zn523  N526    1.978   .     S
Zn524  N525    1.978   .     S
N526   N801    1.196   .     S
C527   O545    1.384   .     S
C527   C531    1.397   .     A
C527   C535    1.400   .     A
C528   O547    1.383   .     S
C528   C532    1.397   .     A
C528   C536    1.400   .     A
C529   C533    1.392   .     A
C529   C531    1.408   .     A
C529   O549    1.388   .     S
C530   C534    1.393   .     A
C530   O551    1.388   .     S
C530   C532    1.409   .     A
C533   C539    1.401   .     A
C533   C537    1.415   .     A
C534   C540    1.401   .     A
C534   C538    1.415   .     A
C535   C541    1.403   .     A
C535   C537    1.417   .     A
C536   C542    1.404   .     A
C536   C538    1.417   .     A
C537   C492    1.403   1_655 S
C539   C496    1.383   1_655 S
C541   C494    1.383   1_655 S
C544   C359    1.164   1_565 S
O545   H546    0.990   .     S
O547   H548    0.990   .     S
O549   H550    0.988   .     S
O551   H552    0.988   .     S
O553   Zn569   1.951   .     S
O553   C561    1.263   .     A
O554   Zn570   1.951   .     S
O554   C562    1.263   .     A
O555   C562    1.263   .     A
O555   Zn569   1.950   .     S
O556   Zn570   1.950   .     S
O556   C561    1.263   .     A
H557   C585    1.083   .     S
H558   C586    1.083   .     S
H559   C587    1.081   .     S
H560   C588    1.082   .     S
C561   C589    1.363   .     S
C562   C590    1.363   .     S
O563   C567    1.270   .     A
O563   Zn569   2.012   .     S
O564   C568    1.270   .     A
O564   Zn570   2.012   .     S
O565   Zn569   2.014   .     S
O565   C568    1.269   .     A
O566   Zn570   2.014   .     S
O566   C567    1.270   .     A
C567   C578    1.424   .     S
C568   C577    1.423   .     S
Zn569  N572    1.978   .     S
Zn570  N571    1.978   .     S
N572   N19     1.196   1_556 S
C573   O591    1.384   .     S
C573   C577    1.397   .     A
C573   C581    1.400   .     A
C574   O593    1.383   .     S
C574   C578    1.397   .     A
C574   C582    1.400   .     A
C575   C579    1.392   .     A
C575   C577    1.408   .     A
C575   O595    1.388   .     S
C576   C580    1.393   .     A
C576   O597    1.388   .     S
C576   C578    1.409   .     A
C579   C585    1.401   .     A
C579   C583    1.415   .     A
C580   C586    1.401   .     A
C580   C584    1.415   .     A
C581   C587    1.403   .     A
C581   C583    1.417   .     A
C582   C588    1.404   .     A
C582   C584    1.417   .     A
C583   C630    1.403   .     S
C584   C629    1.403   1_455 S
C585   C634    1.383   .     S
C586   C633    1.383   1_455 S
C587   C632    1.383   .     S
C588   C631    1.383   1_455 S
C589   C774    1.164   1_545 S
C590   C681    1.164   .     S
O591   H592    0.990   .     S
O593   H594    0.990   .     S
O595   H596    0.988   .     S
O597   H598    0.988   .     S
O599   Zn615   1.951   .     S
O599   C607    1.263   .     A
O600   Zn616   1.951   .     S
O600   C608    1.263   .     A
O601   C608    1.263   .     A
O601   Zn615   1.950   .     S
O602   Zn616   1.950   .     S
O602   C607    1.263   .     A
H603   C631    1.083   .     S
H604   C632    1.083   .     S
H605   C633    1.081   .     S
H606   C634    1.082   .     S
C607   C635    1.363   .     S
C608   C636    1.363   .     S
O609   C613    1.270   .     A
O609   Zn615   2.012   .     S
O610   C614    1.270   .     A
O610   Zn616   2.012   .     S
O611   Zn615   2.014   .     S
O611   C614    1.269   .     A
O612   Zn616   2.014   .     S
O612   C613    1.270   .     A
C613   C624    1.424   .     S
C614   C623    1.423   .     S
Zn615  N618    1.978   .     S
Zn616  N617    1.978   .     S
N618   N65     1.196   1_556 S
C619   O637    1.384   .     S
C619   C623    1.397   .     A
C619   C627    1.400   .     A
C620   O639    1.383   .     S
C620   C624    1.397   .     A
C620   C628    1.400   .     A
C621   C625    1.392   .     A
C621   C623    1.408   .     A
C621   O641    1.388   .     S
C622   C626    1.393   .     A
C622   O643    1.388   .     S
C622   C624    1.409   .     A
C625   C631    1.401   .     A
C625   C629    1.415   .     A
C626   C632    1.401   .     A
C626   C630    1.415   .     A
C627   C633    1.403   .     A
C627   C629    1.417   .     A
C628   C634    1.404   .     A
C628   C630    1.417   .     A
C629   C584    1.403   1_655 S
C631   C588    1.383   1_655 S
C633   C586    1.383   1_655 S
C635   C820    1.164   1_545 S
C636   C727    1.164   .     S
O637   H638    0.990   .     S
O639   H640    0.990   .     S
O641   H642    0.988   .     S
O643   H644    0.988   .     S
O645   Zn661   1.951   .     S
O645   C653    1.263   .     A
O646   Zn662   1.951   .     S
O646   C654    1.263   .     A
O647   C654    1.263   .     A
O647   Zn661   1.950   .     S
O648   Zn662   1.950   .     S
O648   C653    1.263   .     A
H649   C677    1.083   .     S
H650   C678    1.083   .     S
H651   C679    1.081   .     S
H652   C680    1.082   .     S
C653   C681    1.363   .     S
C654   C682    1.363   .     S
O655   C659    1.270   .     A
O655   Zn661   2.012   .     S
O656   C660    1.270   .     A
O656   Zn662   2.012   .     S
O657   Zn661   2.014   .     S
O657   C660    1.269   .     A
O658   Zn662   2.014   .     S
O658   C659    1.270   .     A
C659   C670    1.424   .     S
C660   C669    1.423   .     S
Zn661  N664    1.978   .     S
Zn662  N663    1.978   .     S
N664   N111    1.196   1_556 S
C665   O683    1.384   .     S
C665   C669    1.397   .     A
C665   C673    1.400   .     A
C666   O685    1.383   .     S
C666   C670    1.397   .     A
C666   C674    1.400   .     A
C667   C671    1.392   .     A
C667   C669    1.408   .     A
C667   O687    1.388   .     S
C668   C672    1.393   .     A
C668   O689    1.388   .     S
C668   C670    1.409   .     A
C671   C677    1.401   .     A
C671   C675    1.415   .     A
C672   C678    1.401   .     A
C672   C676    1.415   .     A
C673   C679    1.403   .     A
C673   C675    1.417   .     A
C674   C680    1.404   .     A
C674   C676    1.417   .     A
C675   C722    1.403   .     S
C676   C721    1.403   1_455 S
C677   C726    1.383   .     S
C678   C725    1.383   1_455 S
C679   C724    1.383   .     S
C680   C723    1.383   1_455 S
C682   C773    1.164   .     S
O683   H684    0.990   .     S
O685   H686    0.990   .     S
O687   H688    0.988   .     S
O689   H690    0.988   .     S
O691   Zn707   1.951   .     S
O691   C699    1.263   .     A
O692   Zn708   1.951   .     S
O692   C700    1.263   .     A
O693   C700    1.263   .     A
O693   Zn707   1.950   .     S
O694   Zn708   1.950   .     S
O694   C699    1.263   .     A
H695   C723    1.083   .     S
H696   C724    1.083   .     S
H697   C725    1.081   .     S
H698   C726    1.082   .     S
C699   C727    1.363   .     S
C700   C728    1.363   .     S
O701   C705    1.270   .     A
O701   Zn707   2.012   .     S
O702   C706    1.270   .     A
O702   Zn708   2.012   .     S
O703   Zn707   2.014   .     S
O703   C706    1.269   .     A
O704   Zn708   2.014   .     S
O704   C705    1.270   .     A
C705   C716    1.424   .     S
C706   C715    1.423   .     S
Zn707  N710    1.978   .     S
Zn708  N709    1.978   .     S
N710   N157    1.196   1_556 S
C711   O729    1.384   .     S
C711   C715    1.397   .     A
C711   C719    1.400   .     A
C712   O731    1.383   .     S
C712   C716    1.397   .     A
C712   C720    1.400   .     A
C713   C717    1.392   .     A
C713   C715    1.408   .     A
C713   O733    1.388   .     S
C714   C718    1.393   .     A
C714   O735    1.388   .     S
C714   C716    1.409   .     A
C717   C723    1.401   .     A
C717   C721    1.415   .     A
C718   C724    1.401   .     A
C718   C722    1.415   .     A
C719   C725    1.403   .     A
C719   C721    1.417   .     A
C720   C726    1.404   .     A
C720   C722    1.417   .     A
C721   C676    1.403   1_655 S
C723   C680    1.383   1_655 S
C725   C678    1.383   1_655 S
C728   C819    1.164   .     S
O729   H730    0.990   .     S
O731   H732    0.990   .     S
O733   H734    0.988   .     S
O735   H736    0.988   .     S
O737   Zn753   1.951   .     S
O737   C745    1.263   .     A
O738   Zn754   1.951   .     S
O738   C746    1.263   .     A
O739   C746    1.263   .     A
O739   Zn753   1.950   .     S
O740   Zn754   1.950   .     S
O740   C745    1.263   .     A
H741   C769    1.083   .     S
H742   C770    1.083   .     S
H743   C771    1.081   .     S
H744   C772    1.082   .     S
C745   C773    1.363   .     S
C746   C774    1.363   .     S
O747   C751    1.270   .     A
O747   Zn753   2.012   .     S
O748   C752    1.270   .     A
O748   Zn754   2.012   .     S
O749   Zn753   2.014   .     S
O749   C752    1.269   .     A
O750   Zn754   2.014   .     S
O750   C751    1.270   .     A
C751   C762    1.424   .     S
C752   C761    1.423   .     S
Zn753  N756    1.978   .     S
Zn754  N755    1.978   .     S
N756   N203    1.196   1_556 S
C757   O775    1.384   .     S
C757   C761    1.397   .     A
C757   C765    1.400   .     A
C758   O777    1.383   .     S
C758   C762    1.397   .     A
C758   C766    1.400   .     A
C759   C763    1.392   .     A
C759   C761    1.408   .     A
C759   O779    1.388   .     S
C760   C764    1.393   .     A
C760   O781    1.388   .     S
C760   C762    1.409   .     A
C763   C769    1.401   .     A
C763   C767    1.415   .     A
C764   C770    1.401   .     A
C764   C768    1.415   .     A
C765   C771    1.403   .     A
C765   C767    1.417   .     A
C766   C772    1.404   .     A
C766   C768    1.417   .     A
C767   C814    1.403   .     S
C768   C813    1.403   1_455 S
C769   C818    1.383   .     S
C770   C817    1.383   1_455 S
C771   C816    1.383   .     S
C772   C815    1.383   1_455 S
C774   C589    1.164   1_565 S
O775   H776    0.990   .     S
O777   H778    0.990   .     S
O779   H780    0.988   .     S
O781   H782    0.988   .     S
O783   Zn799   1.951   .     S
O783   C791    1.263   .     A
O784   Zn800   1.951   .     S
O784   C792    1.263   .     A
O785   C792    1.263   .     A
O785   Zn799   1.950   .     S
O786   Zn800   1.950   .     S
O786   C791    1.263   .     A
H787   C815    1.083   .     S
H788   C816    1.083   .     S
H789   C817    1.081   .     S
H790   C818    1.082   .     S
C791   C819    1.363   .     S
C792   C820    1.363   .     S
O793   C797    1.270   .     A
O793   Zn799   2.012   .     S
O794   C798    1.270   .     A
O794   Zn800   2.012   .     S
O795   Zn799   2.014   .     S
O795   C798    1.269   .     A
O796   Zn800   2.014   .     S
O796   C797    1.270   .     A
C797   C808    1.424   .     S
C798   C807    1.423   .     S
Zn799  N802    1.978   .     S
Zn800  N801    1.978   .     S
N802   N249    1.196   1_556 S
C803   O821    1.384   .     S
C803   C807    1.397   .     A
C803   C811    1.400   .     A
C804   O823    1.383   .     S
C804   C808    1.397   .     A
C804   C812    1.400   .     A
C805   C809    1.392   .     A
C805   C807    1.408   .     A
C805   O825    1.388   .     S
C806   C810    1.393   .     A
C806   O827    1.388   .     S
C806   C808    1.409   .     A
C809   C815    1.401   .     A
C809   C813    1.415   .     A
C810   C816    1.401   .     A
C810   C814    1.415   .     A
C811   C817    1.403   .     A
C811   C813    1.417   .     A
C812   C818    1.404   .     A
C812   C814    1.417   .     A
C813   C768    1.403   1_655 S
C815   C772    1.383   1_655 S
C817   C770    1.383   1_655 S
C820   C635    1.164   1_565 S
O821   H822    0.990   .     S
O823   H824    0.990   .     S
O825   H826    0.988   .     S
O827   H828    0.988   .     S
