data_str_m2_o10_o17_pcu_sym.22
_audit_creation_date              2020-01-03
_audit_creation_method            'Materials Studio'
_symmetry_space_group_name_H-M    'P1'
_symmetry_Int_Tables_number       1
_symmetry_cell_setting            triclinic
loop_
_symmetry_equiv_pos_as_xyz
  x,y,z
_cell_length_a                    30.0555
_cell_length_b                    25.8353
_cell_length_c                    22.3871
_cell_angle_alpha                 103.0623
_cell_angle_beta                  93.1646
_cell_angle_gamma                 90.7725
loop_
_atom_site_label
_atom_site_type_symbol
_atom_site_fract_x
_atom_site_fract_y
_atom_site_fract_z
_atom_site_U_iso_or_equiv
_atom_site_adp_type
_atom_site_occupancy
C1     C     0.24499   0.06688   0.15151   0.00000  Uiso   1.00
C2     C     0.09311   0.12301   0.14287   0.00000  Uiso   1.00
C3     C     0.38387   0.16440   0.16139   0.00000  Uiso   1.00
C4     C     0.11694   0.16916   0.17141   0.00000  Uiso   1.00
C5     C     0.40558   0.11997   0.12768   0.00000  Uiso   1.00
C6     C     0.09514   0.21538   0.19921   0.00000  Uiso   1.00
C7     C     0.45301   0.12090   0.12948   0.00000  Uiso   1.00
C8     C     0.04809   0.21495   0.19639   0.00000  Uiso   1.00
C9     C     0.47702   0.16720   0.16270   0.00000  Uiso   1.00
C10    C     0.02394   0.16838   0.16540   0.00000  Uiso   1.00
C11    C     0.45435   0.21205   0.19383   0.00000  Uiso   1.00
C12    C     0.25015   0.26671   0.18231   0.00000  Uiso   1.00
C13    C     0.04681   0.12200   0.13984   0.00000  Uiso   1.00
C14    C     0.47723   0.07622   0.10175   0.00000  Uiso   1.00
C15    C     0.02495   0.25971   0.22486   0.00000  Uiso   1.00
C16    C     0.38460   0.02992   0.10619   0.00000  Uiso   1.00
C17    C     0.34101   0.01125   0.12492   0.00000  Uiso   1.00
C18    C     0.12666   0.29597   0.19770   0.00000  Uiso   1.00
C19    C     0.14366   0.01493   0.23934   0.00000  Uiso   1.00
C20    C     0.04520   0.33166   0.04632   0.00000  Uiso   1.00
C21    C     0.07365   0.28311   0.04500   0.00000  Uiso   1.00
C22    C     0.46889   0.01698   0.24717   0.00000  Uiso   1.00
C23    C     0.02342   0.07504   0.11148   0.00000  Uiso   1.00
C24    C     0.43376   0.05799   0.26841   0.00000  Uiso   1.00
C25    C     0.47817   0.25887   0.22441   0.00000  Uiso   1.00
C26    C     0.23950   0.01086   0.14371   0.00000  Uiso   1.00
C27    C     0.24901   0.32283   0.19129   0.00000  Uiso   1.00
C28    C     0.16478   0.16858   0.16842   0.00000  Uiso   1.00
C29    C     0.33549   0.16470   0.16483   0.00000  Uiso   1.00
C30    C     0.40800   0.20935   0.19404   0.00000  Uiso   1.00
Cu31   Cu    0.25501   0.17246   0.22813   0.00000  Uiso   1.00
Cu32   Cu    0.24500   0.16087   0.10521   0.00000  Uiso   1.00
H33    H     0.46105   0.04023   0.07615   0.00000  Uiso   1.00
H34    H     0.31550   0.00842   0.08649   0.00000  Uiso   1.00
H35    H     0.34466   0.30475   0.13538   0.00000  Uiso   1.00
H36    H     0.09533   0.30433   0.17326   0.00000  Uiso   1.00
H37    H     0.15174   0.28128   0.16356   0.00000  Uiso   1.00
H38    H     0.17407   0.00848   0.26690   0.00000  Uiso   1.00
H39    H     0.15168   0.04378   0.21123   0.00000  Uiso   1.00
H40    H     0.11771   0.03181   0.27105   0.00000  Uiso   1.00
H41    H     0.06013   0.02292   0.01725   0.00000  Uiso   1.00
H42    H     0.01115   0.31737   0.02760   0.00000  Uiso   1.00
H43    H     0.06016   0.25873   0.07519   0.00000  Uiso   1.00
H44    H     0.04342   0.29490   0.24926   0.00000  Uiso   1.00
H45    H     0.07353   0.25790   0.33134   0.00000  Uiso   1.00
H46    H     0.10859   0.29580   0.06086   0.00000  Uiso   1.00
H47    H     0.47343   0.01405   0.19751   0.00000  Uiso   1.00
H48    H     0.00056   0.03169   0.27378   0.00000  Uiso   1.00
H49    H     0.43272   0.06660   0.31903   0.00000  Uiso   1.00
H50    H     0.44191   0.09549   0.25454   0.00000  Uiso   1.00
H51    H     0.40026   0.04289   0.24815   0.00000  Uiso   1.00
H52    H     0.21545   0.12649   0.31644   0.00000  Uiso   1.00
H53    H     0.28455   0.20684   0.01689   0.00000  Uiso   1.00
H54    H     0.23078   0.32024   0.09787   0.00000  Uiso   1.00
H55    H     0.25765   0.01339   0.23717   0.00000  Uiso   1.00
H56    H     0.39000   0.24289   0.21866   0.00000  Uiso   1.00
H57    H     0.11107   0.08799   0.12194   0.00000  Uiso   1.00
H58    H     0.40978   0.03035   0.14428   0.00000  Uiso   1.00
H59    H     0.39413   0.33316   0.06537   0.00000  Uiso   1.00
H60    H     0.33131   0.03976   0.16678   0.00000  Uiso   1.00
N61    N     0.23745   0.15214   0.01284   0.00000  Uiso   1.00
N62    N     0.26256   0.18119   0.32049   0.00000  Uiso   1.00
O63    O     0.25326   0.09538   0.20659   0.00000  Uiso   1.00
O64    O     0.11976   0.25867   0.23383   0.00000  Uiso   1.00
O65    O     0.04450   0.02706   0.10760   0.00000  Uiso   1.00
O66    O     0.45518   0.30095   0.25840   0.00000  Uiso   1.00
O67    O     0.24675   0.23796   0.12674   0.00000  Uiso   1.00
O68    O     0.24480   0.08559   0.10279   0.00000  Uiso   1.00
O69    O     0.25520   0.24774   0.23055   0.00000  Uiso   1.00
O70    O     0.18936   0.17155   0.21857   0.00000  Uiso   1.00
O71    O     0.31065   0.16179   0.11476   0.00000  Uiso   1.00
O72    O     0.18090   0.16176   0.11477   0.00000  Uiso   1.00
O73    O     0.31910   0.17157   0.21857   0.00000  Uiso   1.00
O74    O     0.37964   0.07935   0.08937   0.00000  Uiso   1.00
C75    C     0.74499   0.06688   0.15151   0.00000  Uiso   1.00
C76    C     0.59311   0.12301   0.14287   0.00000  Uiso   1.00
C77    C     0.88387   0.16440   0.16139   0.00000  Uiso   1.00
C78    C     0.61694   0.16916   0.17141   0.00000  Uiso   1.00
C79    C     0.90558   0.11997   0.12768   0.00000  Uiso   1.00
C80    C     0.59514   0.21538   0.19921   0.00000  Uiso   1.00
C81    C     0.95301   0.12090   0.12948   0.00000  Uiso   1.00
C82    C     0.54809   0.21495   0.19639   0.00000  Uiso   1.00
C83    C     0.97702   0.16720   0.16270   0.00000  Uiso   1.00
C84    C     0.52394   0.16838   0.16540   0.00000  Uiso   1.00
C85    C     0.95435   0.21205   0.19383   0.00000  Uiso   1.00
C86    C     0.75015   0.26671   0.18231   0.00000  Uiso   1.00
C87    C     0.54681   0.12200   0.13984   0.00000  Uiso   1.00
C88    C     0.97723   0.07622   0.10175   0.00000  Uiso   1.00
C89    C     0.52495   0.25971   0.22486   0.00000  Uiso   1.00
C90    C     0.88460   0.02992   0.10619   0.00000  Uiso   1.00
C91    C     0.84101   0.01125   0.12492   0.00000  Uiso   1.00
C92    C     0.62666   0.29597   0.19770   0.00000  Uiso   1.00
C93    C     0.64366   0.01493   0.23934   0.00000  Uiso   1.00
C94    C     0.54520   0.33166   0.04632   0.00000  Uiso   1.00
C95    C     0.57365   0.28311   0.04500   0.00000  Uiso   1.00
C96    C     0.96889   0.01698   0.24717   0.00000  Uiso   1.00
C97    C     0.52342   0.07504   0.11148   0.00000  Uiso   1.00
C98    C     0.93376   0.05799   0.26841   0.00000  Uiso   1.00
C99    C     0.97817   0.25887   0.22441   0.00000  Uiso   1.00
C100   C     0.73950   0.01086   0.14371   0.00000  Uiso   1.00
C101   C     0.74901   0.32283   0.19129   0.00000  Uiso   1.00
C102   C     0.66478   0.16858   0.16842   0.00000  Uiso   1.00
C103   C     0.83549   0.16470   0.16483   0.00000  Uiso   1.00
C104   C     0.90800   0.20935   0.19404   0.00000  Uiso   1.00
Cu105  Cu    0.75501   0.17246   0.22813   0.00000  Uiso   1.00
Cu106  Cu    0.74500   0.16087   0.10521   0.00000  Uiso   1.00
H107   H     0.96105   0.04023   0.07615   0.00000  Uiso   1.00
H108   H     0.81550   0.00842   0.08649   0.00000  Uiso   1.00
H109   H     0.84466   0.30475   0.13538   0.00000  Uiso   1.00
H110   H     0.59533   0.30433   0.17326   0.00000  Uiso   1.00
H111   H     0.65174   0.28128   0.16356   0.00000  Uiso   1.00
H112   H     0.67407   0.00848   0.26690   0.00000  Uiso   1.00
H113   H     0.65168   0.04378   0.21123   0.00000  Uiso   1.00
H114   H     0.61771   0.03181   0.27105   0.00000  Uiso   1.00
H115   H     0.56013   0.02292   0.01725   0.00000  Uiso   1.00
H116   H     0.51115   0.31737   0.02760   0.00000  Uiso   1.00
H117   H     0.56016   0.25873   0.07519   0.00000  Uiso   1.00
H118   H     0.54342   0.29490   0.24926   0.00000  Uiso   1.00
H119   H     0.57353   0.25790   0.33134   0.00000  Uiso   1.00
H120   H     0.60859   0.29580   0.06086   0.00000  Uiso   1.00
H121   H     0.97343   0.01405   0.19751   0.00000  Uiso   1.00
H122   H     0.50056   0.03169   0.27378   0.00000  Uiso   1.00
H123   H     0.93272   0.06660   0.31903   0.00000  Uiso   1.00
H124   H     0.94191   0.09549   0.25454   0.00000  Uiso   1.00
H125   H     0.90026   0.04289   0.24815   0.00000  Uiso   1.00
H126   H     0.71545   0.12649   0.31644   0.00000  Uiso   1.00
H127   H     0.78455   0.20684   0.01689   0.00000  Uiso   1.00
H128   H     0.73078   0.32024   0.09787   0.00000  Uiso   1.00
H129   H     0.75765   0.01339   0.23717   0.00000  Uiso   1.00
H130   H     0.89000   0.24289   0.21866   0.00000  Uiso   1.00
H131   H     0.61107   0.08799   0.12194   0.00000  Uiso   1.00
H132   H     0.90978   0.03035   0.14428   0.00000  Uiso   1.00
H133   H     0.89413   0.33316   0.06537   0.00000  Uiso   1.00
H134   H     0.83131   0.03976   0.16678   0.00000  Uiso   1.00
N135   N     0.73745   0.15214   0.01284   0.00000  Uiso   1.00
N136   N     0.76256   0.18119   0.32049   0.00000  Uiso   1.00
O137   O     0.75326   0.09538   0.20659   0.00000  Uiso   1.00
O138   O     0.61976   0.25867   0.23383   0.00000  Uiso   1.00
O139   O     0.54450   0.02706   0.10760   0.00000  Uiso   1.00
O140   O     0.95518   0.30095   0.25840   0.00000  Uiso   1.00
O141   O     0.74675   0.23796   0.12674   0.00000  Uiso   1.00
O142   O     0.74480   0.08559   0.10279   0.00000  Uiso   1.00
O143   O     0.75520   0.24774   0.23055   0.00000  Uiso   1.00
O144   O     0.68936   0.17155   0.21857   0.00000  Uiso   1.00
O145   O     0.81065   0.16179   0.11476   0.00000  Uiso   1.00
O146   O     0.68090   0.16176   0.11477   0.00000  Uiso   1.00
O147   O     0.81910   0.17157   0.21857   0.00000  Uiso   1.00
O148   O     0.87964   0.07935   0.08937   0.00000  Uiso   1.00
C149   C     0.24499   0.40022   0.15151   0.00000  Uiso   1.00
C150   C     0.09311   0.45634   0.14287   0.00000  Uiso   1.00
C151   C     0.38387   0.49773   0.16139   0.00000  Uiso   1.00
C152   C     0.11694   0.50249   0.17141   0.00000  Uiso   1.00
C153   C     0.40558   0.45331   0.12768   0.00000  Uiso   1.00
C154   C     0.09514   0.54871   0.19921   0.00000  Uiso   1.00
C155   C     0.45301   0.45423   0.12948   0.00000  Uiso   1.00
C156   C     0.04809   0.54829   0.19639   0.00000  Uiso   1.00
C157   C     0.47702   0.50053   0.16270   0.00000  Uiso   1.00
C158   C     0.02394   0.50171   0.16540   0.00000  Uiso   1.00
C159   C     0.45435   0.54539   0.19383   0.00000  Uiso   1.00
C160   C     0.25015   0.60005   0.18231   0.00000  Uiso   1.00
C161   C     0.04681   0.45533   0.13984   0.00000  Uiso   1.00
C162   C     0.47723   0.40955   0.10175   0.00000  Uiso   1.00
C163   C     0.02495   0.59305   0.22486   0.00000  Uiso   1.00
C164   C     0.38460   0.36325   0.10619   0.00000  Uiso   1.00
C165   C     0.34101   0.34458   0.12492   0.00000  Uiso   1.00
C166   C     0.12666   0.62930   0.19770   0.00000  Uiso   1.00
C167   C     0.14366   0.34827   0.23934   0.00000  Uiso   1.00
C168   C     0.04520   0.66499   0.04632   0.00000  Uiso   1.00
C169   C     0.07365   0.61644   0.04500   0.00000  Uiso   1.00
C170   C     0.46889   0.35031   0.24717   0.00000  Uiso   1.00
C171   C     0.02342   0.40837   0.11148   0.00000  Uiso   1.00
C172   C     0.43376   0.39132   0.26841   0.00000  Uiso   1.00
C173   C     0.47817   0.59220   0.22441   0.00000  Uiso   1.00
C174   C     0.23950   0.34419   0.14371   0.00000  Uiso   1.00
C175   C     0.24901   0.65617   0.19129   0.00000  Uiso   1.00
C176   C     0.16478   0.50192   0.16842   0.00000  Uiso   1.00
C177   C     0.33549   0.49803   0.16483   0.00000  Uiso   1.00
C178   C     0.40800   0.54269   0.19404   0.00000  Uiso   1.00
Cu179  Cu    0.25501   0.50579   0.22813   0.00000  Uiso   1.00
Cu180  Cu    0.24500   0.49421   0.10521   0.00000  Uiso   1.00
H181   H     0.46105   0.37356   0.07615   0.00000  Uiso   1.00
H182   H     0.31550   0.34175   0.08649   0.00000  Uiso   1.00
H183   H     0.34466   0.63809   0.13538   0.00000  Uiso   1.00
H184   H     0.09533   0.63766   0.17326   0.00000  Uiso   1.00
H185   H     0.15174   0.61462   0.16356   0.00000  Uiso   1.00
H186   H     0.17407   0.34181   0.26690   0.00000  Uiso   1.00
H187   H     0.15168   0.37712   0.21123   0.00000  Uiso   1.00
H188   H     0.11771   0.36515   0.27105   0.00000  Uiso   1.00
H189   H     0.06013   0.35626   0.01725   0.00000  Uiso   1.00
H190   H     0.01115   0.65070   0.02760   0.00000  Uiso   1.00
H191   H     0.06016   0.59206   0.07519   0.00000  Uiso   1.00
H192   H     0.04342   0.62824   0.24926   0.00000  Uiso   1.00
H193   H     0.07353   0.59124   0.33134   0.00000  Uiso   1.00
H194   H     0.10859   0.62914   0.06086   0.00000  Uiso   1.00
H195   H     0.47343   0.34739   0.19751   0.00000  Uiso   1.00
H196   H     0.00056   0.36503   0.27378   0.00000  Uiso   1.00
H197   H     0.43272   0.39993   0.31903   0.00000  Uiso   1.00
H198   H     0.44191   0.42882   0.25454   0.00000  Uiso   1.00
H199   H     0.40026   0.37623   0.24815   0.00000  Uiso   1.00
H200   H     0.21545   0.45983   0.31644   0.00000  Uiso   1.00
H201   H     0.28455   0.54017   0.01689   0.00000  Uiso   1.00
H202   H     0.23078   0.65358   0.09787   0.00000  Uiso   1.00
H203   H     0.25765   0.34672   0.23717   0.00000  Uiso   1.00
H204   H     0.39000   0.57623   0.21866   0.00000  Uiso   1.00
H205   H     0.11107   0.42133   0.12194   0.00000  Uiso   1.00
H206   H     0.40978   0.36369   0.14428   0.00000  Uiso   1.00
H207   H     0.39413   0.66649   0.06537   0.00000  Uiso   1.00
H208   H     0.33131   0.37309   0.16678   0.00000  Uiso   1.00
N209   N     0.23745   0.48547   0.01284   0.00000  Uiso   1.00
N210   N     0.26256   0.51453   0.32049   0.00000  Uiso   1.00
O211   O     0.25326   0.42871   0.20659   0.00000  Uiso   1.00
O212   O     0.11976   0.59200   0.23383   0.00000  Uiso   1.00
O213   O     0.04450   0.36039   0.10760   0.00000  Uiso   1.00
O214   O     0.45518   0.63428   0.25840   0.00000  Uiso   1.00
O215   O     0.24675   0.57129   0.12674   0.00000  Uiso   1.00
O216   O     0.24480   0.41892   0.10279   0.00000  Uiso   1.00
O217   O     0.25520   0.58108   0.23055   0.00000  Uiso   1.00
O218   O     0.18936   0.50488   0.21857   0.00000  Uiso   1.00
O219   O     0.31065   0.49512   0.11476   0.00000  Uiso   1.00
O220   O     0.18090   0.49510   0.11477   0.00000  Uiso   1.00
O221   O     0.31910   0.50490   0.21857   0.00000  Uiso   1.00
O222   O     0.37964   0.41268   0.08937   0.00000  Uiso   1.00
C223   C     0.74499   0.40022   0.15151   0.00000  Uiso   1.00
C224   C     0.59311   0.45634   0.14287   0.00000  Uiso   1.00
C225   C     0.88387   0.49773   0.16139   0.00000  Uiso   1.00
C226   C     0.61694   0.50249   0.17141   0.00000  Uiso   1.00
C227   C     0.90558   0.45331   0.12768   0.00000  Uiso   1.00
C228   C     0.59514   0.54871   0.19921   0.00000  Uiso   1.00
C229   C     0.95301   0.45423   0.12948   0.00000  Uiso   1.00
C230   C     0.54809   0.54829   0.19639   0.00000  Uiso   1.00
C231   C     0.97702   0.50053   0.16270   0.00000  Uiso   1.00
C232   C     0.52394   0.50171   0.16540   0.00000  Uiso   1.00
C233   C     0.95435   0.54539   0.19383   0.00000  Uiso   1.00
C234   C     0.75015   0.60005   0.18231   0.00000  Uiso   1.00
C235   C     0.54681   0.45533   0.13984   0.00000  Uiso   1.00
C236   C     0.97723   0.40955   0.10175   0.00000  Uiso   1.00
C237   C     0.52495   0.59305   0.22486   0.00000  Uiso   1.00
C238   C     0.88460   0.36325   0.10619   0.00000  Uiso   1.00
C239   C     0.84101   0.34458   0.12492   0.00000  Uiso   1.00
C240   C     0.62666   0.62930   0.19770   0.00000  Uiso   1.00
C241   C     0.64366   0.34827   0.23934   0.00000  Uiso   1.00
C242   C     0.54520   0.66499   0.04632   0.00000  Uiso   1.00
C243   C     0.57365   0.61644   0.04500   0.00000  Uiso   1.00
C244   C     0.96889   0.35031   0.24717   0.00000  Uiso   1.00
C245   C     0.52342   0.40837   0.11148   0.00000  Uiso   1.00
C246   C     0.93376   0.39132   0.26841   0.00000  Uiso   1.00
C247   C     0.97817   0.59220   0.22441   0.00000  Uiso   1.00
C248   C     0.73950   0.34419   0.14371   0.00000  Uiso   1.00
C249   C     0.74901   0.65617   0.19129   0.00000  Uiso   1.00
C250   C     0.66478   0.50192   0.16842   0.00000  Uiso   1.00
C251   C     0.83549   0.49803   0.16483   0.00000  Uiso   1.00
C252   C     0.90800   0.54269   0.19404   0.00000  Uiso   1.00
Cu253  Cu    0.75501   0.50579   0.22813   0.00000  Uiso   1.00
Cu254  Cu    0.74500   0.49421   0.10521   0.00000  Uiso   1.00
H255   H     0.96105   0.37356   0.07615   0.00000  Uiso   1.00
H256   H     0.81550   0.34175   0.08649   0.00000  Uiso   1.00
H257   H     0.84466   0.63809   0.13538   0.00000  Uiso   1.00
H258   H     0.59533   0.63766   0.17326   0.00000  Uiso   1.00
H259   H     0.65174   0.61462   0.16356   0.00000  Uiso   1.00
H260   H     0.67407   0.34181   0.26690   0.00000  Uiso   1.00
H261   H     0.65168   0.37712   0.21123   0.00000  Uiso   1.00
H262   H     0.61771   0.36515   0.27105   0.00000  Uiso   1.00
H263   H     0.56013   0.35626   0.01725   0.00000  Uiso   1.00
H264   H     0.51115   0.65070   0.02760   0.00000  Uiso   1.00
H265   H     0.56016   0.59206   0.07519   0.00000  Uiso   1.00
H266   H     0.54342   0.62824   0.24926   0.00000  Uiso   1.00
H267   H     0.57353   0.59124   0.33134   0.00000  Uiso   1.00
H268   H     0.60859   0.62914   0.06086   0.00000  Uiso   1.00
H269   H     0.97343   0.34739   0.19751   0.00000  Uiso   1.00
H270   H     0.50056   0.36503   0.27378   0.00000  Uiso   1.00
H271   H     0.93272   0.39993   0.31903   0.00000  Uiso   1.00
H272   H     0.94191   0.42882   0.25454   0.00000  Uiso   1.00
H273   H     0.90026   0.37623   0.24815   0.00000  Uiso   1.00
H274   H     0.71545   0.45983   0.31644   0.00000  Uiso   1.00
H275   H     0.78455   0.54017   0.01689   0.00000  Uiso   1.00
H276   H     0.73078   0.65358   0.09787   0.00000  Uiso   1.00
H277   H     0.75765   0.34672   0.23717   0.00000  Uiso   1.00
H278   H     0.89000   0.57623   0.21866   0.00000  Uiso   1.00
H279   H     0.61107   0.42133   0.12194   0.00000  Uiso   1.00
H280   H     0.90978   0.36369   0.14428   0.00000  Uiso   1.00
H281   H     0.89413   0.66649   0.06537   0.00000  Uiso   1.00
H282   H     0.83131   0.37309   0.16678   0.00000  Uiso   1.00
N283   N     0.73745   0.48547   0.01284   0.00000  Uiso   1.00
N284   N     0.76256   0.51453   0.32049   0.00000  Uiso   1.00
O285   O     0.75326   0.42871   0.20659   0.00000  Uiso   1.00
O286   O     0.61976   0.59200   0.23383   0.00000  Uiso   1.00
O287   O     0.54450   0.36039   0.10760   0.00000  Uiso   1.00
O288   O     0.95518   0.63428   0.25840   0.00000  Uiso   1.00
O289   O     0.74675   0.57129   0.12674   0.00000  Uiso   1.00
O290   O     0.74480   0.41892   0.10279   0.00000  Uiso   1.00
O291   O     0.75520   0.58108   0.23055   0.00000  Uiso   1.00
O292   O     0.68936   0.50488   0.21857   0.00000  Uiso   1.00
O293   O     0.81065   0.49512   0.11476   0.00000  Uiso   1.00
O294   O     0.68090   0.49510   0.11477   0.00000  Uiso   1.00
O295   O     0.81910   0.50490   0.21857   0.00000  Uiso   1.00
O296   O     0.87964   0.41268   0.08937   0.00000  Uiso   1.00
C297   C     0.24499   0.73355   0.15151   0.00000  Uiso   1.00
C298   C     0.09311   0.78967   0.14287   0.00000  Uiso   1.00
C299   C     0.38387   0.83106   0.16139   0.00000  Uiso   1.00
C300   C     0.11694   0.83582   0.17141   0.00000  Uiso   1.00
C301   C     0.40558   0.78664   0.12768   0.00000  Uiso   1.00
C302   C     0.09514   0.88205   0.19921   0.00000  Uiso   1.00
C303   C     0.45301   0.78756   0.12948   0.00000  Uiso   1.00
C304   C     0.04809   0.88162   0.19639   0.00000  Uiso   1.00
C305   C     0.47702   0.83386   0.16270   0.00000  Uiso   1.00
C306   C     0.02394   0.83505   0.16540   0.00000  Uiso   1.00
C307   C     0.45435   0.87872   0.19383   0.00000  Uiso   1.00
C308   C     0.25015   0.93338   0.18231   0.00000  Uiso   1.00
C309   C     0.04681   0.78866   0.13984   0.00000  Uiso   1.00
C310   C     0.47723   0.74289   0.10175   0.00000  Uiso   1.00
C311   C     0.02495   0.92638   0.22486   0.00000  Uiso   1.00
C312   C     0.38460   0.69658   0.10619   0.00000  Uiso   1.00
C313   C     0.34101   0.67791   0.12492   0.00000  Uiso   1.00
C314   C     0.12666   0.96264   0.19770   0.00000  Uiso   1.00
C315   C     0.14366   0.68160   0.23934   0.00000  Uiso   1.00
C316   C     0.04520   0.99833   0.04632   0.00000  Uiso   1.00
C317   C     0.07365   0.94978   0.04500   0.00000  Uiso   1.00
C318   C     0.46889   0.68365   0.24717   0.00000  Uiso   1.00
C319   C     0.02342   0.74171   0.11148   0.00000  Uiso   1.00
C320   C     0.43376   0.72466   0.26841   0.00000  Uiso   1.00
C321   C     0.47817   0.92553   0.22441   0.00000  Uiso   1.00
C322   C     0.23950   0.67753   0.14371   0.00000  Uiso   1.00
C323   C     0.24901   0.98950   0.19129   0.00000  Uiso   1.00
C324   C     0.16478   0.83525   0.16842   0.00000  Uiso   1.00
C325   C     0.33549   0.83136   0.16483   0.00000  Uiso   1.00
C326   C     0.40800   0.87602   0.19404   0.00000  Uiso   1.00
Cu327  Cu    0.25501   0.83913   0.22813   0.00000  Uiso   1.00
Cu328  Cu    0.24500   0.82754   0.10521   0.00000  Uiso   1.00
H329   H     0.46105   0.70690   0.07615   0.00000  Uiso   1.00
H330   H     0.31550   0.67508   0.08649   0.00000  Uiso   1.00
H331   H     0.34466   0.97142   0.13538   0.00000  Uiso   1.00
H332   H     0.09533   0.97099   0.17326   0.00000  Uiso   1.00
H333   H     0.15174   0.94795   0.16356   0.00000  Uiso   1.00
H334   H     0.17407   0.67515   0.26690   0.00000  Uiso   1.00
H335   H     0.15168   0.71045   0.21123   0.00000  Uiso   1.00
H336   H     0.11771   0.69848   0.27105   0.00000  Uiso   1.00
H337   H     0.06013   0.68959   0.01725   0.00000  Uiso   1.00
H338   H     0.01115   0.98404   0.02760   0.00000  Uiso   1.00
H339   H     0.06016   0.92539   0.07519   0.00000  Uiso   1.00
H340   H     0.04342   0.96157   0.24926   0.00000  Uiso   1.00
H341   H     0.07353   0.92457   0.33134   0.00000  Uiso   1.00
H342   H     0.10859   0.96247   0.06086   0.00000  Uiso   1.00
H343   H     0.47343   0.68072   0.19751   0.00000  Uiso   1.00
H344   H     0.00056   0.69836   0.27378   0.00000  Uiso   1.00
H345   H     0.43272   0.73326   0.31903   0.00000  Uiso   1.00
H346   H     0.44191   0.76216   0.25454   0.00000  Uiso   1.00
H347   H     0.40026   0.70956   0.24815   0.00000  Uiso   1.00
H348   H     0.21545   0.79316   0.31644   0.00000  Uiso   1.00
H349   H     0.28455   0.87350   0.01689   0.00000  Uiso   1.00
H350   H     0.23078   0.98691   0.09787   0.00000  Uiso   1.00
H351   H     0.25765   0.68006   0.23717   0.00000  Uiso   1.00
H352   H     0.39000   0.90956   0.21866   0.00000  Uiso   1.00
H353   H     0.11107   0.75466   0.12194   0.00000  Uiso   1.00
H354   H     0.40978   0.69702   0.14428   0.00000  Uiso   1.00
H355   H     0.39413   0.99982   0.06537   0.00000  Uiso   1.00
H356   H     0.33131   0.70643   0.16678   0.00000  Uiso   1.00
N357   N     0.23745   0.81881   0.01284   0.00000  Uiso   1.00
N358   N     0.26256   0.84786   0.32049   0.00000  Uiso   1.00
O359   O     0.25326   0.76204   0.20659   0.00000  Uiso   1.00
O360   O     0.11976   0.92533   0.23383   0.00000  Uiso   1.00
O361   O     0.04450   0.69372   0.10760   0.00000  Uiso   1.00
O362   O     0.45518   0.96762   0.25840   0.00000  Uiso   1.00
O363   O     0.24675   0.90462   0.12674   0.00000  Uiso   1.00
O364   O     0.24480   0.75226   0.10279   0.00000  Uiso   1.00
O365   O     0.25520   0.91441   0.23055   0.00000  Uiso   1.00
O366   O     0.18936   0.83821   0.21857   0.00000  Uiso   1.00
O367   O     0.31065   0.82845   0.11476   0.00000  Uiso   1.00
O368   O     0.18090   0.82843   0.11477   0.00000  Uiso   1.00
O369   O     0.31910   0.83824   0.21857   0.00000  Uiso   1.00
O370   O     0.37964   0.74601   0.08937   0.00000  Uiso   1.00
C371   C     0.74499   0.73355   0.15151   0.00000  Uiso   1.00
C372   C     0.59311   0.78967   0.14287   0.00000  Uiso   1.00
C373   C     0.88387   0.83106   0.16139   0.00000  Uiso   1.00
C374   C     0.61694   0.83582   0.17141   0.00000  Uiso   1.00
C375   C     0.90558   0.78664   0.12768   0.00000  Uiso   1.00
C376   C     0.59514   0.88205   0.19921   0.00000  Uiso   1.00
C377   C     0.95301   0.78756   0.12948   0.00000  Uiso   1.00
C378   C     0.54809   0.88162   0.19639   0.00000  Uiso   1.00
C379   C     0.97702   0.83386   0.16270   0.00000  Uiso   1.00
C380   C     0.52394   0.83505   0.16540   0.00000  Uiso   1.00
C381   C     0.95435   0.87872   0.19383   0.00000  Uiso   1.00
C382   C     0.75015   0.93338   0.18231   0.00000  Uiso   1.00
C383   C     0.54681   0.78866   0.13984   0.00000  Uiso   1.00
C384   C     0.97723   0.74289   0.10175   0.00000  Uiso   1.00
C385   C     0.52495   0.92638   0.22486   0.00000  Uiso   1.00
C386   C     0.88460   0.69658   0.10619   0.00000  Uiso   1.00
C387   C     0.84101   0.67791   0.12492   0.00000  Uiso   1.00
C388   C     0.62666   0.96264   0.19770   0.00000  Uiso   1.00
C389   C     0.64366   0.68160   0.23934   0.00000  Uiso   1.00
C390   C     0.54520   0.99833   0.04632   0.00000  Uiso   1.00
C391   C     0.57365   0.94978   0.04500   0.00000  Uiso   1.00
C392   C     0.96889   0.68365   0.24717   0.00000  Uiso   1.00
C393   C     0.52342   0.74171   0.11148   0.00000  Uiso   1.00
C394   C     0.93376   0.72466   0.26841   0.00000  Uiso   1.00
C395   C     0.97817   0.92553   0.22441   0.00000  Uiso   1.00
C396   C     0.73950   0.67753   0.14371   0.00000  Uiso   1.00
C397   C     0.74901   0.98950   0.19129   0.00000  Uiso   1.00
C398   C     0.66478   0.83525   0.16842   0.00000  Uiso   1.00
C399   C     0.83549   0.83136   0.16483   0.00000  Uiso   1.00
C400   C     0.90800   0.87602   0.19404   0.00000  Uiso   1.00
Cu401  Cu    0.75501   0.83913   0.22813   0.00000  Uiso   1.00
Cu402  Cu    0.74500   0.82754   0.10521   0.00000  Uiso   1.00
H403   H     0.96105   0.70690   0.07615   0.00000  Uiso   1.00
H404   H     0.81550   0.67508   0.08649   0.00000  Uiso   1.00
H405   H     0.84466   0.97142   0.13538   0.00000  Uiso   1.00
H406   H     0.59533   0.97099   0.17326   0.00000  Uiso   1.00
H407   H     0.65174   0.94795   0.16356   0.00000  Uiso   1.00
H408   H     0.67407   0.67515   0.26690   0.00000  Uiso   1.00
H409   H     0.65168   0.71045   0.21123   0.00000  Uiso   1.00
H410   H     0.61771   0.69848   0.27105   0.00000  Uiso   1.00
H411   H     0.56013   0.68959   0.01725   0.00000  Uiso   1.00
H412   H     0.51115   0.98404   0.02760   0.00000  Uiso   1.00
H413   H     0.56016   0.92539   0.07519   0.00000  Uiso   1.00
H414   H     0.54342   0.96157   0.24926   0.00000  Uiso   1.00
H415   H     0.57353   0.92457   0.33134   0.00000  Uiso   1.00
H416   H     0.60859   0.96247   0.06086   0.00000  Uiso   1.00
H417   H     0.97343   0.68072   0.19751   0.00000  Uiso   1.00
H418   H     0.50056   0.69836   0.27378   0.00000  Uiso   1.00
H419   H     0.93272   0.73326   0.31903   0.00000  Uiso   1.00
H420   H     0.94191   0.76216   0.25454   0.00000  Uiso   1.00
H421   H     0.90026   0.70956   0.24815   0.00000  Uiso   1.00
H422   H     0.71545   0.79316   0.31644   0.00000  Uiso   1.00
H423   H     0.78455   0.87350   0.01689   0.00000  Uiso   1.00
H424   H     0.73078   0.98691   0.09787   0.00000  Uiso   1.00
H425   H     0.75765   0.68006   0.23717   0.00000  Uiso   1.00
H426   H     0.89000   0.90956   0.21866   0.00000  Uiso   1.00
H427   H     0.61107   0.75466   0.12194   0.00000  Uiso   1.00
H428   H     0.90978   0.69702   0.14428   0.00000  Uiso   1.00
H429   H     0.89413   0.99982   0.06537   0.00000  Uiso   1.00
H430   H     0.83131   0.70643   0.16678   0.00000  Uiso   1.00
N431   N     0.73745   0.81881   0.01284   0.00000  Uiso   1.00
N432   N     0.76256   0.84786   0.32049   0.00000  Uiso   1.00
O433   O     0.75326   0.76204   0.20659   0.00000  Uiso   1.00
O434   O     0.61976   0.92533   0.23383   0.00000  Uiso   1.00
O435   O     0.54450   0.69372   0.10760   0.00000  Uiso   1.00
O436   O     0.95518   0.96762   0.25840   0.00000  Uiso   1.00
O437   O     0.74675   0.90462   0.12674   0.00000  Uiso   1.00
O438   O     0.74480   0.75226   0.10279   0.00000  Uiso   1.00
O439   O     0.75520   0.91441   0.23055   0.00000  Uiso   1.00
O440   O     0.68936   0.83821   0.21857   0.00000  Uiso   1.00
O441   O     0.81065   0.82845   0.11476   0.00000  Uiso   1.00
O442   O     0.68090   0.82843   0.11477   0.00000  Uiso   1.00
O443   O     0.81910   0.83824   0.21857   0.00000  Uiso   1.00
O444   O     0.87964   0.74601   0.08937   0.00000  Uiso   1.00
C445   C     0.24499   0.06688   0.48484   0.00000  Uiso   1.00
C446   C     0.09311   0.12301   0.47621   0.00000  Uiso   1.00
C447   C     0.38387   0.16440   0.49472   0.00000  Uiso   1.00
C448   C     0.11694   0.16916   0.50474   0.00000  Uiso   1.00
C449   C     0.40558   0.11997   0.46101   0.00000  Uiso   1.00
C450   C     0.09514   0.21538   0.53254   0.00000  Uiso   1.00
C451   C     0.45301   0.12090   0.46281   0.00000  Uiso   1.00
C452   C     0.04809   0.21495   0.52972   0.00000  Uiso   1.00
C453   C     0.47702   0.16720   0.49604   0.00000  Uiso   1.00
C454   C     0.02394   0.16838   0.49873   0.00000  Uiso   1.00
C455   C     0.45435   0.21205   0.52716   0.00000  Uiso   1.00
C456   C     0.25015   0.26671   0.51564   0.00000  Uiso   1.00
C457   C     0.04681   0.12200   0.47317   0.00000  Uiso   1.00
C458   C     0.47723   0.07622   0.43509   0.00000  Uiso   1.00
C459   C     0.02495   0.25971   0.55819   0.00000  Uiso   1.00
C460   C     0.38460   0.02992   0.43952   0.00000  Uiso   1.00
C461   C     0.34101   0.01125   0.45826   0.00000  Uiso   1.00
C462   C     0.12666   0.29597   0.53103   0.00000  Uiso   1.00
C463   C     0.14366   0.01493   0.57267   0.00000  Uiso   1.00
C464   C     0.04520   0.33166   0.37965   0.00000  Uiso   1.00
C465   C     0.07365   0.28311   0.37833   0.00000  Uiso   1.00
C466   C     0.46889   0.01698   0.58051   0.00000  Uiso   1.00
C467   C     0.02342   0.07504   0.44482   0.00000  Uiso   1.00
C468   C     0.43376   0.05799   0.60174   0.00000  Uiso   1.00
C469   C     0.47817   0.25887   0.55774   0.00000  Uiso   1.00
C470   C     0.23950   0.01086   0.47704   0.00000  Uiso   1.00
C471   C     0.24901   0.32283   0.52462   0.00000  Uiso   1.00
C472   C     0.16478   0.16858   0.50175   0.00000  Uiso   1.00
C473   C     0.33549   0.16470   0.49816   0.00000  Uiso   1.00
C474   C     0.40800   0.20935   0.52738   0.00000  Uiso   1.00
Cu475  Cu    0.25501   0.17246   0.56146   0.00000  Uiso   1.00
Cu476  Cu    0.24500   0.16087   0.43854   0.00000  Uiso   1.00
H477   H     0.46105   0.04023   0.40948   0.00000  Uiso   1.00
H478   H     0.31550   0.00842   0.41983   0.00000  Uiso   1.00
H479   H     0.34466   0.30475   0.46871   0.00000  Uiso   1.00
H480   H     0.09533   0.30433   0.50659   0.00000  Uiso   1.00
H481   H     0.15174   0.28128   0.49690   0.00000  Uiso   1.00
H482   H     0.17407   0.00848   0.60023   0.00000  Uiso   1.00
H483   H     0.15168   0.04378   0.54456   0.00000  Uiso   1.00
H484   H     0.11771   0.03181   0.60439   0.00000  Uiso   1.00
H485   H     0.06013   0.02292   0.35058   0.00000  Uiso   1.00
H486   H     0.01115   0.31737   0.36094   0.00000  Uiso   1.00
H487   H     0.06016   0.25873   0.40853   0.00000  Uiso   1.00
H488   H     0.04342   0.29490   0.58259   0.00000  Uiso   1.00
H489   H     0.07353   0.25790   0.66467   0.00000  Uiso   1.00
H490   H     0.10859   0.29580   0.39420   0.00000  Uiso   1.00
H491   H     0.47343   0.01405   0.53085   0.00000  Uiso   1.00
H492   H     0.00056   0.03169   0.60712   0.00000  Uiso   1.00
H493   H     0.43272   0.06660   0.65236   0.00000  Uiso   1.00
H494   H     0.44191   0.09549   0.58787   0.00000  Uiso   1.00
H495   H     0.40026   0.04289   0.58149   0.00000  Uiso   1.00
H496   H     0.21545   0.12649   0.64977   0.00000  Uiso   1.00
H497   H     0.28455   0.20684   0.35023   0.00000  Uiso   1.00
H498   H     0.23078   0.32024   0.43121   0.00000  Uiso   1.00
H499   H     0.25765   0.01339   0.57051   0.00000  Uiso   1.00
H500   H     0.39000   0.24289   0.55199   0.00000  Uiso   1.00
H501   H     0.11107   0.08799   0.45528   0.00000  Uiso   1.00
H502   H     0.40978   0.03035   0.47761   0.00000  Uiso   1.00
H503   H     0.39413   0.33316   0.39871   0.00000  Uiso   1.00
H504   H     0.33131   0.03976   0.50011   0.00000  Uiso   1.00
N505   N     0.23745   0.15214   0.34617   0.00000  Uiso   1.00
N506   N     0.26256   0.18119   0.65383   0.00000  Uiso   1.00
O507   O     0.25326   0.09538   0.53992   0.00000  Uiso   1.00
O508   O     0.11976   0.25867   0.56716   0.00000  Uiso   1.00
O509   O     0.04450   0.02706   0.44093   0.00000  Uiso   1.00
O510   O     0.45518   0.30095   0.59173   0.00000  Uiso   1.00
O511   O     0.24675   0.23796   0.46008   0.00000  Uiso   1.00
O512   O     0.24480   0.08559   0.43612   0.00000  Uiso   1.00
O513   O     0.25520   0.24774   0.56388   0.00000  Uiso   1.00
O514   O     0.18936   0.17155   0.55191   0.00000  Uiso   1.00
O515   O     0.31065   0.16179   0.44809   0.00000  Uiso   1.00
O516   O     0.18090   0.16176   0.44810   0.00000  Uiso   1.00
O517   O     0.31910   0.17157   0.55190   0.00000  Uiso   1.00
O518   O     0.37964   0.07935   0.42270   0.00000  Uiso   1.00
C519   C     0.74499   0.06688   0.48484   0.00000  Uiso   1.00
C520   C     0.59311   0.12301   0.47621   0.00000  Uiso   1.00
C521   C     0.88387   0.16440   0.49472   0.00000  Uiso   1.00
C522   C     0.61694   0.16916   0.50474   0.00000  Uiso   1.00
C523   C     0.90558   0.11997   0.46101   0.00000  Uiso   1.00
C524   C     0.59514   0.21538   0.53254   0.00000  Uiso   1.00
C525   C     0.95301   0.12090   0.46281   0.00000  Uiso   1.00
C526   C     0.54809   0.21495   0.52972   0.00000  Uiso   1.00
C527   C     0.97702   0.16720   0.49604   0.00000  Uiso   1.00
C528   C     0.52394   0.16838   0.49873   0.00000  Uiso   1.00
C529   C     0.95435   0.21205   0.52716   0.00000  Uiso   1.00
C530   C     0.75015   0.26671   0.51564   0.00000  Uiso   1.00
C531   C     0.54681   0.12200   0.47317   0.00000  Uiso   1.00
C532   C     0.97723   0.07622   0.43509   0.00000  Uiso   1.00
C533   C     0.52495   0.25971   0.55819   0.00000  Uiso   1.00
C534   C     0.88460   0.02992   0.43952   0.00000  Uiso   1.00
C535   C     0.84101   0.01125   0.45826   0.00000  Uiso   1.00
C536   C     0.62666   0.29597   0.53103   0.00000  Uiso   1.00
C537   C     0.64366   0.01493   0.57267   0.00000  Uiso   1.00
C538   C     0.54520   0.33166   0.37965   0.00000  Uiso   1.00
C539   C     0.57365   0.28311   0.37833   0.00000  Uiso   1.00
C540   C     0.96889   0.01698   0.58051   0.00000  Uiso   1.00
C541   C     0.52342   0.07504   0.44482   0.00000  Uiso   1.00
C542   C     0.93376   0.05799   0.60174   0.00000  Uiso   1.00
C543   C     0.97817   0.25887   0.55774   0.00000  Uiso   1.00
C544   C     0.73950   0.01086   0.47704   0.00000  Uiso   1.00
C545   C     0.74901   0.32283   0.52462   0.00000  Uiso   1.00
C546   C     0.66478   0.16858   0.50175   0.00000  Uiso   1.00
C547   C     0.83549   0.16470   0.49816   0.00000  Uiso   1.00
C548   C     0.90800   0.20935   0.52738   0.00000  Uiso   1.00
Cu549  Cu    0.75501   0.17246   0.56146   0.00000  Uiso   1.00
Cu550  Cu    0.74500   0.16087   0.43854   0.00000  Uiso   1.00
H551   H     0.96105   0.04023   0.40948   0.00000  Uiso   1.00
H552   H     0.81550   0.00842   0.41983   0.00000  Uiso   1.00
H553   H     0.84466   0.30475   0.46871   0.00000  Uiso   1.00
H554   H     0.59533   0.30433   0.50659   0.00000  Uiso   1.00
H555   H     0.65174   0.28128   0.49690   0.00000  Uiso   1.00
H556   H     0.67407   0.00848   0.60023   0.00000  Uiso   1.00
H557   H     0.65168   0.04378   0.54456   0.00000  Uiso   1.00
H558   H     0.61771   0.03181   0.60439   0.00000  Uiso   1.00
H559   H     0.56013   0.02292   0.35058   0.00000  Uiso   1.00
H560   H     0.51115   0.31737   0.36094   0.00000  Uiso   1.00
H561   H     0.56016   0.25873   0.40853   0.00000  Uiso   1.00
H562   H     0.54342   0.29490   0.58259   0.00000  Uiso   1.00
H563   H     0.57353   0.25790   0.66467   0.00000  Uiso   1.00
H564   H     0.60859   0.29580   0.39420   0.00000  Uiso   1.00
H565   H     0.97343   0.01405   0.53085   0.00000  Uiso   1.00
H566   H     0.50056   0.03169   0.60712   0.00000  Uiso   1.00
H567   H     0.93272   0.06660   0.65236   0.00000  Uiso   1.00
H568   H     0.94191   0.09549   0.58787   0.00000  Uiso   1.00
H569   H     0.90026   0.04289   0.58149   0.00000  Uiso   1.00
H570   H     0.71545   0.12649   0.64977   0.00000  Uiso   1.00
H571   H     0.78455   0.20684   0.35023   0.00000  Uiso   1.00
H572   H     0.73078   0.32024   0.43121   0.00000  Uiso   1.00
H573   H     0.75765   0.01339   0.57051   0.00000  Uiso   1.00
H574   H     0.89000   0.24289   0.55199   0.00000  Uiso   1.00
H575   H     0.61107   0.08799   0.45528   0.00000  Uiso   1.00
H576   H     0.90978   0.03035   0.47761   0.00000  Uiso   1.00
H577   H     0.89413   0.33316   0.39871   0.00000  Uiso   1.00
H578   H     0.83131   0.03976   0.50011   0.00000  Uiso   1.00
N579   N     0.73745   0.15214   0.34617   0.00000  Uiso   1.00
N580   N     0.76256   0.18119   0.65383   0.00000  Uiso   1.00
O581   O     0.75326   0.09538   0.53992   0.00000  Uiso   1.00
O582   O     0.61976   0.25867   0.56716   0.00000  Uiso   1.00
O583   O     0.54450   0.02706   0.44093   0.00000  Uiso   1.00
O584   O     0.95518   0.30095   0.59173   0.00000  Uiso   1.00
O585   O     0.74675   0.23796   0.46008   0.00000  Uiso   1.00
O586   O     0.74480   0.08559   0.43612   0.00000  Uiso   1.00
O587   O     0.75520   0.24774   0.56388   0.00000  Uiso   1.00
O588   O     0.68936   0.17155   0.55191   0.00000  Uiso   1.00
O589   O     0.81065   0.16179   0.44809   0.00000  Uiso   1.00
O590   O     0.68090   0.16176   0.44810   0.00000  Uiso   1.00
O591   O     0.81910   0.17157   0.55190   0.00000  Uiso   1.00
O592   O     0.87964   0.07935   0.42270   0.00000  Uiso   1.00
C593   C     0.24499   0.40022   0.48484   0.00000  Uiso   1.00
C594   C     0.09311   0.45634   0.47621   0.00000  Uiso   1.00
C595   C     0.38387   0.49773   0.49472   0.00000  Uiso   1.00
C596   C     0.11694   0.50249   0.50474   0.00000  Uiso   1.00
C597   C     0.40558   0.45331   0.46101   0.00000  Uiso   1.00
C598   C     0.09514   0.54871   0.53254   0.00000  Uiso   1.00
C599   C     0.45301   0.45423   0.46281   0.00000  Uiso   1.00
C600   C     0.04809   0.54829   0.52972   0.00000  Uiso   1.00
C601   C     0.47702   0.50053   0.49604   0.00000  Uiso   1.00
C602   C     0.02394   0.50171   0.49873   0.00000  Uiso   1.00
C603   C     0.45435   0.54539   0.52716   0.00000  Uiso   1.00
C604   C     0.25015   0.60005   0.51564   0.00000  Uiso   1.00
C605   C     0.04681   0.45533   0.47317   0.00000  Uiso   1.00
C606   C     0.47723   0.40955   0.43509   0.00000  Uiso   1.00
C607   C     0.02495   0.59305   0.55819   0.00000  Uiso   1.00
C608   C     0.38460   0.36325   0.43952   0.00000  Uiso   1.00
C609   C     0.34101   0.34458   0.45826   0.00000  Uiso   1.00
C610   C     0.12666   0.62930   0.53103   0.00000  Uiso   1.00
C611   C     0.14366   0.34827   0.57267   0.00000  Uiso   1.00
C612   C     0.04520   0.66499   0.37965   0.00000  Uiso   1.00
C613   C     0.07365   0.61644   0.37833   0.00000  Uiso   1.00
C614   C     0.46889   0.35031   0.58051   0.00000  Uiso   1.00
C615   C     0.02342   0.40837   0.44482   0.00000  Uiso   1.00
C616   C     0.43376   0.39132   0.60174   0.00000  Uiso   1.00
C617   C     0.47817   0.59220   0.55774   0.00000  Uiso   1.00
C618   C     0.23950   0.34419   0.47704   0.00000  Uiso   1.00
C619   C     0.24901   0.65617   0.52462   0.00000  Uiso   1.00
C620   C     0.16478   0.50192   0.50175   0.00000  Uiso   1.00
C621   C     0.33549   0.49803   0.49816   0.00000  Uiso   1.00
C622   C     0.40800   0.54269   0.52738   0.00000  Uiso   1.00
Cu623  Cu    0.25501   0.50579   0.56146   0.00000  Uiso   1.00
Cu624  Cu    0.24500   0.49421   0.43854   0.00000  Uiso   1.00
H625   H     0.46105   0.37356   0.40948   0.00000  Uiso   1.00
H626   H     0.31550   0.34175   0.41983   0.00000  Uiso   1.00
H627   H     0.34466   0.63809   0.46871   0.00000  Uiso   1.00
H628   H     0.09533   0.63766   0.50659   0.00000  Uiso   1.00
H629   H     0.15174   0.61462   0.49690   0.00000  Uiso   1.00
H630   H     0.17407   0.34181   0.60023   0.00000  Uiso   1.00
H631   H     0.15168   0.37712   0.54456   0.00000  Uiso   1.00
H632   H     0.11771   0.36515   0.60439   0.00000  Uiso   1.00
H633   H     0.06013   0.35626   0.35058   0.00000  Uiso   1.00
H634   H     0.01115   0.65070   0.36094   0.00000  Uiso   1.00
H635   H     0.06016   0.59206   0.40853   0.00000  Uiso   1.00
H636   H     0.04342   0.62824   0.58259   0.00000  Uiso   1.00
H637   H     0.07353   0.59124   0.66467   0.00000  Uiso   1.00
H638   H     0.10859   0.62914   0.39420   0.00000  Uiso   1.00
H639   H     0.47343   0.34739   0.53085   0.00000  Uiso   1.00
H640   H     0.00056   0.36503   0.60712   0.00000  Uiso   1.00
H641   H     0.43272   0.39993   0.65236   0.00000  Uiso   1.00
H642   H     0.44191   0.42882   0.58787   0.00000  Uiso   1.00
H643   H     0.40026   0.37623   0.58149   0.00000  Uiso   1.00
H644   H     0.21545   0.45983   0.64977   0.00000  Uiso   1.00
H645   H     0.28455   0.54017   0.35023   0.00000  Uiso   1.00
H646   H     0.23078   0.65358   0.43121   0.00000  Uiso   1.00
H647   H     0.25765   0.34672   0.57051   0.00000  Uiso   1.00
H648   H     0.39000   0.57623   0.55199   0.00000  Uiso   1.00
H649   H     0.11107   0.42133   0.45528   0.00000  Uiso   1.00
H650   H     0.40978   0.36369   0.47761   0.00000  Uiso   1.00
H651   H     0.39413   0.66649   0.39871   0.00000  Uiso   1.00
H652   H     0.33131   0.37309   0.50011   0.00000  Uiso   1.00
N653   N     0.23745   0.48547   0.34617   0.00000  Uiso   1.00
N654   N     0.26256   0.51453   0.65383   0.00000  Uiso   1.00
O655   O     0.25326   0.42871   0.53992   0.00000  Uiso   1.00
O656   O     0.11976   0.59200   0.56716   0.00000  Uiso   1.00
O657   O     0.04450   0.36039   0.44093   0.00000  Uiso   1.00
O658   O     0.45518   0.63428   0.59173   0.00000  Uiso   1.00
O659   O     0.24675   0.57129   0.46008   0.00000  Uiso   1.00
O660   O     0.24480   0.41892   0.43612   0.00000  Uiso   1.00
O661   O     0.25520   0.58108   0.56388   0.00000  Uiso   1.00
O662   O     0.18936   0.50488   0.55191   0.00000  Uiso   1.00
O663   O     0.31065   0.49512   0.44809   0.00000  Uiso   1.00
O664   O     0.18090   0.49510   0.44810   0.00000  Uiso   1.00
O665   O     0.31910   0.50490   0.55190   0.00000  Uiso   1.00
O666   O     0.37964   0.41268   0.42270   0.00000  Uiso   1.00
C667   C     0.74499   0.40022   0.48484   0.00000  Uiso   1.00
C668   C     0.59311   0.45634   0.47621   0.00000  Uiso   1.00
C669   C     0.88387   0.49773   0.49472   0.00000  Uiso   1.00
C670   C     0.61694   0.50249   0.50474   0.00000  Uiso   1.00
C671   C     0.90558   0.45331   0.46101   0.00000  Uiso   1.00
C672   C     0.59514   0.54871   0.53254   0.00000  Uiso   1.00
C673   C     0.95301   0.45423   0.46281   0.00000  Uiso   1.00
C674   C     0.54809   0.54829   0.52972   0.00000  Uiso   1.00
C675   C     0.97702   0.50053   0.49604   0.00000  Uiso   1.00
C676   C     0.52394   0.50171   0.49873   0.00000  Uiso   1.00
C677   C     0.95435   0.54539   0.52716   0.00000  Uiso   1.00
C678   C     0.75015   0.60005   0.51564   0.00000  Uiso   1.00
C679   C     0.54681   0.45533   0.47317   0.00000  Uiso   1.00
C680   C     0.97723   0.40955   0.43509   0.00000  Uiso   1.00
C681   C     0.52495   0.59305   0.55819   0.00000  Uiso   1.00
C682   C     0.88460   0.36325   0.43952   0.00000  Uiso   1.00
C683   C     0.84101   0.34458   0.45826   0.00000  Uiso   1.00
C684   C     0.62666   0.62930   0.53103   0.00000  Uiso   1.00
C685   C     0.64366   0.34827   0.57267   0.00000  Uiso   1.00
C686   C     0.54520   0.66499   0.37965   0.00000  Uiso   1.00
C687   C     0.57365   0.61644   0.37833   0.00000  Uiso   1.00
C688   C     0.96889   0.35031   0.58051   0.00000  Uiso   1.00
C689   C     0.52342   0.40837   0.44482   0.00000  Uiso   1.00
C690   C     0.93376   0.39132   0.60174   0.00000  Uiso   1.00
C691   C     0.97817   0.59220   0.55774   0.00000  Uiso   1.00
C692   C     0.73950   0.34419   0.47704   0.00000  Uiso   1.00
C693   C     0.74901   0.65617   0.52462   0.00000  Uiso   1.00
C694   C     0.66478   0.50192   0.50175   0.00000  Uiso   1.00
C695   C     0.83549   0.49803   0.49816   0.00000  Uiso   1.00
C696   C     0.90800   0.54269   0.52738   0.00000  Uiso   1.00
Cu697  Cu    0.75501   0.50579   0.56146   0.00000  Uiso   1.00
Cu698  Cu    0.74500   0.49421   0.43854   0.00000  Uiso   1.00
H699   H     0.96105   0.37356   0.40948   0.00000  Uiso   1.00
H700   H     0.81550   0.34175   0.41983   0.00000  Uiso   1.00
H701   H     0.84466   0.63809   0.46871   0.00000  Uiso   1.00
H702   H     0.59533   0.63766   0.50659   0.00000  Uiso   1.00
H703   H     0.65174   0.61462   0.49690   0.00000  Uiso   1.00
H704   H     0.67407   0.34181   0.60023   0.00000  Uiso   1.00
H705   H     0.65168   0.37712   0.54456   0.00000  Uiso   1.00
H706   H     0.61771   0.36515   0.60439   0.00000  Uiso   1.00
H707   H     0.56013   0.35626   0.35058   0.00000  Uiso   1.00
H708   H     0.51115   0.65070   0.36094   0.00000  Uiso   1.00
H709   H     0.56016   0.59206   0.40853   0.00000  Uiso   1.00
H710   H     0.54342   0.62824   0.58259   0.00000  Uiso   1.00
H711   H     0.57353   0.59124   0.66467   0.00000  Uiso   1.00
H712   H     0.60859   0.62914   0.39420   0.00000  Uiso   1.00
H713   H     0.97343   0.34739   0.53085   0.00000  Uiso   1.00
H714   H     0.50056   0.36503   0.60712   0.00000  Uiso   1.00
H715   H     0.93272   0.39993   0.65236   0.00000  Uiso   1.00
H716   H     0.94191   0.42882   0.58787   0.00000  Uiso   1.00
H717   H     0.90026   0.37623   0.58149   0.00000  Uiso   1.00
H718   H     0.71545   0.45983   0.64977   0.00000  Uiso   1.00
H719   H     0.78455   0.54017   0.35023   0.00000  Uiso   1.00
H720   H     0.73078   0.65358   0.43121   0.00000  Uiso   1.00
H721   H     0.75765   0.34672   0.57051   0.00000  Uiso   1.00
H722   H     0.89000   0.57623   0.55199   0.00000  Uiso   1.00
H723   H     0.61107   0.42133   0.45528   0.00000  Uiso   1.00
H724   H     0.90978   0.36369   0.47761   0.00000  Uiso   1.00
H725   H     0.89413   0.66649   0.39871   0.00000  Uiso   1.00
H726   H     0.83131   0.37309   0.50011   0.00000  Uiso   1.00
N727   N     0.73745   0.48547   0.34617   0.00000  Uiso   1.00
N728   N     0.76256   0.51453   0.65383   0.00000  Uiso   1.00
O729   O     0.75326   0.42871   0.53992   0.00000  Uiso   1.00
O730   O     0.61976   0.59200   0.56716   0.00000  Uiso   1.00
O731   O     0.54450   0.36039   0.44093   0.00000  Uiso   1.00
O732   O     0.95518   0.63428   0.59173   0.00000  Uiso   1.00
O733   O     0.74675   0.57129   0.46008   0.00000  Uiso   1.00
O734   O     0.74480   0.41892   0.43612   0.00000  Uiso   1.00
O735   O     0.75520   0.58108   0.56388   0.00000  Uiso   1.00
O736   O     0.68936   0.50488   0.55191   0.00000  Uiso   1.00
O737   O     0.81065   0.49512   0.44809   0.00000  Uiso   1.00
O738   O     0.68090   0.49510   0.44810   0.00000  Uiso   1.00
O739   O     0.81910   0.50490   0.55190   0.00000  Uiso   1.00
O740   O     0.87964   0.41268   0.42270   0.00000  Uiso   1.00
C741   C     0.24499   0.73355   0.48484   0.00000  Uiso   1.00
C742   C     0.09311   0.78967   0.47621   0.00000  Uiso   1.00
C743   C     0.38387   0.83106   0.49472   0.00000  Uiso   1.00
C744   C     0.11694   0.83582   0.50474   0.00000  Uiso   1.00
C745   C     0.40558   0.78664   0.46101   0.00000  Uiso   1.00
C746   C     0.09514   0.88205   0.53254   0.00000  Uiso   1.00
C747   C     0.45301   0.78756   0.46281   0.00000  Uiso   1.00
C748   C     0.04809   0.88162   0.52972   0.00000  Uiso   1.00
C749   C     0.47702   0.83386   0.49604   0.00000  Uiso   1.00
C750   C     0.02394   0.83505   0.49873   0.00000  Uiso   1.00
C751   C     0.45435   0.87872   0.52716   0.00000  Uiso   1.00
C752   C     0.25015   0.93338   0.51564   0.00000  Uiso   1.00
C753   C     0.04681   0.78866   0.47317   0.00000  Uiso   1.00
C754   C     0.47723   0.74289   0.43509   0.00000  Uiso   1.00
C755   C     0.02495   0.92638   0.55819   0.00000  Uiso   1.00
C756   C     0.38460   0.69658   0.43952   0.00000  Uiso   1.00
C757   C     0.34101   0.67791   0.45826   0.00000  Uiso   1.00
C758   C     0.12666   0.96264   0.53103   0.00000  Uiso   1.00
C759   C     0.14366   0.68160   0.57267   0.00000  Uiso   1.00
C760   C     0.04520   0.99833   0.37965   0.00000  Uiso   1.00
C761   C     0.07365   0.94978   0.37833   0.00000  Uiso   1.00
C762   C     0.46889   0.68365   0.58051   0.00000  Uiso   1.00
C763   C     0.02342   0.74171   0.44482   0.00000  Uiso   1.00
C764   C     0.43376   0.72466   0.60174   0.00000  Uiso   1.00
C765   C     0.47817   0.92553   0.55774   0.00000  Uiso   1.00
C766   C     0.23950   0.67753   0.47704   0.00000  Uiso   1.00
C767   C     0.24901   0.98950   0.52462   0.00000  Uiso   1.00
C768   C     0.16478   0.83525   0.50175   0.00000  Uiso   1.00
C769   C     0.33549   0.83136   0.49816   0.00000  Uiso   1.00
C770   C     0.40800   0.87602   0.52738   0.00000  Uiso   1.00
Cu771  Cu    0.25501   0.83913   0.56146   0.00000  Uiso   1.00
Cu772  Cu    0.24500   0.82754   0.43854   0.00000  Uiso   1.00
H773   H     0.46105   0.70690   0.40948   0.00000  Uiso   1.00
H774   H     0.31550   0.67508   0.41983   0.00000  Uiso   1.00
H775   H     0.34466   0.97142   0.46871   0.00000  Uiso   1.00
H776   H     0.09533   0.97099   0.50659   0.00000  Uiso   1.00
H777   H     0.15174   0.94795   0.49690   0.00000  Uiso   1.00
H778   H     0.17407   0.67515   0.60023   0.00000  Uiso   1.00
H779   H     0.15168   0.71045   0.54456   0.00000  Uiso   1.00
H780   H     0.11771   0.69848   0.60439   0.00000  Uiso   1.00
H781   H     0.06013   0.68959   0.35058   0.00000  Uiso   1.00
H782   H     0.01115   0.98404   0.36094   0.00000  Uiso   1.00
H783   H     0.06016   0.92539   0.40853   0.00000  Uiso   1.00
H784   H     0.04342   0.96157   0.58259   0.00000  Uiso   1.00
H785   H     0.07353   0.92457   0.66467   0.00000  Uiso   1.00
H786   H     0.10859   0.96247   0.39420   0.00000  Uiso   1.00
H787   H     0.47343   0.68072   0.53085   0.00000  Uiso   1.00
H788   H     0.00056   0.69836   0.60712   0.00000  Uiso   1.00
H789   H     0.43272   0.73326   0.65236   0.00000  Uiso   1.00
H790   H     0.44191   0.76216   0.58787   0.00000  Uiso   1.00
H791   H     0.40026   0.70956   0.58149   0.00000  Uiso   1.00
H792   H     0.21545   0.79316   0.64977   0.00000  Uiso   1.00
H793   H     0.28455   0.87350   0.35023   0.00000  Uiso   1.00
H794   H     0.23078   0.98691   0.43121   0.00000  Uiso   1.00
H795   H     0.25765   0.68006   0.57051   0.00000  Uiso   1.00
H796   H     0.39000   0.90956   0.55199   0.00000  Uiso   1.00
H797   H     0.11107   0.75466   0.45528   0.00000  Uiso   1.00
H798   H     0.40978   0.69702   0.47761   0.00000  Uiso   1.00
H799   H     0.39413   0.99982   0.39871   0.00000  Uiso   1.00
H800   H     0.33131   0.70643   0.50011   0.00000  Uiso   1.00
N801   N     0.23745   0.81881   0.34617   0.00000  Uiso   1.00
N802   N     0.26256   0.84786   0.65383   0.00000  Uiso   1.00
O803   O     0.25326   0.76204   0.53992   0.00000  Uiso   1.00
O804   O     0.11976   0.92533   0.56716   0.00000  Uiso   1.00
O805   O     0.04450   0.69372   0.44093   0.00000  Uiso   1.00
O806   O     0.45518   0.96762   0.59173   0.00000  Uiso   1.00
O807   O     0.24675   0.90462   0.46008   0.00000  Uiso   1.00
O808   O     0.24480   0.75226   0.43612   0.00000  Uiso   1.00
O809   O     0.25520   0.91441   0.56388   0.00000  Uiso   1.00
O810   O     0.18936   0.83821   0.55191   0.00000  Uiso   1.00
O811   O     0.31065   0.82845   0.44809   0.00000  Uiso   1.00
O812   O     0.18090   0.82843   0.44810   0.00000  Uiso   1.00
O813   O     0.31910   0.83824   0.55190   0.00000  Uiso   1.00
O814   O     0.37964   0.74601   0.42270   0.00000  Uiso   1.00
C815   C     0.74499   0.73355   0.48484   0.00000  Uiso   1.00
C816   C     0.59311   0.78967   0.47621   0.00000  Uiso   1.00
C817   C     0.88387   0.83106   0.49472   0.00000  Uiso   1.00
C818   C     0.61694   0.83582   0.50474   0.00000  Uiso   1.00
C819   C     0.90558   0.78664   0.46101   0.00000  Uiso   1.00
C820   C     0.59514   0.88205   0.53254   0.00000  Uiso   1.00
C821   C     0.95301   0.78756   0.46281   0.00000  Uiso   1.00
C822   C     0.54809   0.88162   0.52972   0.00000  Uiso   1.00
C823   C     0.97702   0.83386   0.49604   0.00000  Uiso   1.00
C824   C     0.52394   0.83505   0.49873   0.00000  Uiso   1.00
C825   C     0.95435   0.87872   0.52716   0.00000  Uiso   1.00
C826   C     0.75015   0.93338   0.51564   0.00000  Uiso   1.00
C827   C     0.54681   0.78866   0.47317   0.00000  Uiso   1.00
C828   C     0.97723   0.74289   0.43509   0.00000  Uiso   1.00
C829   C     0.52495   0.92638   0.55819   0.00000  Uiso   1.00
C830   C     0.88460   0.69658   0.43952   0.00000  Uiso   1.00
C831   C     0.84101   0.67791   0.45826   0.00000  Uiso   1.00
C832   C     0.62666   0.96264   0.53103   0.00000  Uiso   1.00
C833   C     0.64366   0.68160   0.57267   0.00000  Uiso   1.00
C834   C     0.54520   0.99833   0.37965   0.00000  Uiso   1.00
C835   C     0.57365   0.94978   0.37833   0.00000  Uiso   1.00
C836   C     0.96889   0.68365   0.58051   0.00000  Uiso   1.00
C837   C     0.52342   0.74171   0.44482   0.00000  Uiso   1.00
C838   C     0.93376   0.72466   0.60174   0.00000  Uiso   1.00
C839   C     0.97817   0.92553   0.55774   0.00000  Uiso   1.00
C840   C     0.73950   0.67753   0.47704   0.00000  Uiso   1.00
C841   C     0.74901   0.98950   0.52462   0.00000  Uiso   1.00
C842   C     0.66478   0.83525   0.50175   0.00000  Uiso   1.00
C843   C     0.83549   0.83136   0.49816   0.00000  Uiso   1.00
C844   C     0.90800   0.87602   0.52738   0.00000  Uiso   1.00
Cu845  Cu    0.75501   0.83913   0.56146   0.00000  Uiso   1.00
Cu846  Cu    0.74500   0.82754   0.43854   0.00000  Uiso   1.00
H847   H     0.96105   0.70690   0.40948   0.00000  Uiso   1.00
H848   H     0.81550   0.67508   0.41983   0.00000  Uiso   1.00
H849   H     0.84466   0.97142   0.46871   0.00000  Uiso   1.00
H850   H     0.59533   0.97099   0.50659   0.00000  Uiso   1.00
H851   H     0.65174   0.94795   0.49690   0.00000  Uiso   1.00
H852   H     0.67407   0.67515   0.60023   0.00000  Uiso   1.00
H853   H     0.65168   0.71045   0.54456   0.00000  Uiso   1.00
H854   H     0.61771   0.69848   0.60439   0.00000  Uiso   1.00
H855   H     0.56013   0.68959   0.35058   0.00000  Uiso   1.00
H856   H     0.51115   0.98404   0.36094   0.00000  Uiso   1.00
H857   H     0.56016   0.92539   0.40853   0.00000  Uiso   1.00
H858   H     0.54342   0.96157   0.58259   0.00000  Uiso   1.00
H859   H     0.57353   0.92457   0.66467   0.00000  Uiso   1.00
H860   H     0.60859   0.96247   0.39420   0.00000  Uiso   1.00
H861   H     0.97343   0.68072   0.53085   0.00000  Uiso   1.00
H862   H     0.50056   0.69836   0.60712   0.00000  Uiso   1.00
H863   H     0.93272   0.73326   0.65236   0.00000  Uiso   1.00
H864   H     0.94191   0.76216   0.58787   0.00000  Uiso   1.00
H865   H     0.90026   0.70956   0.58149   0.00000  Uiso   1.00
H866   H     0.71545   0.79316   0.64977   0.00000  Uiso   1.00
H867   H     0.78455   0.87350   0.35023   0.00000  Uiso   1.00
H868   H     0.73078   0.98691   0.43121   0.00000  Uiso   1.00
H869   H     0.75765   0.68006   0.57051   0.00000  Uiso   1.00
H870   H     0.89000   0.90956   0.55199   0.00000  Uiso   1.00
H871   H     0.61107   0.75466   0.45528   0.00000  Uiso   1.00
H872   H     0.90978   0.69702   0.47761   0.00000  Uiso   1.00
H873   H     0.89413   0.99982   0.39871   0.00000  Uiso   1.00
H874   H     0.83131   0.70643   0.50011   0.00000  Uiso   1.00
N875   N     0.73745   0.81881   0.34617   0.00000  Uiso   1.00
N876   N     0.76256   0.84786   0.65383   0.00000  Uiso   1.00
O877   O     0.75326   0.76204   0.53992   0.00000  Uiso   1.00
O878   O     0.61976   0.92533   0.56716   0.00000  Uiso   1.00
O879   O     0.54450   0.69372   0.44093   0.00000  Uiso   1.00
O880   O     0.95518   0.96762   0.59173   0.00000  Uiso   1.00
O881   O     0.74675   0.90462   0.46008   0.00000  Uiso   1.00
O882   O     0.74480   0.75226   0.43612   0.00000  Uiso   1.00
O883   O     0.75520   0.91441   0.56388   0.00000  Uiso   1.00
O884   O     0.68936   0.83821   0.55191   0.00000  Uiso   1.00
O885   O     0.81065   0.82845   0.44809   0.00000  Uiso   1.00
O886   O     0.68090   0.82843   0.44810   0.00000  Uiso   1.00
O887   O     0.81910   0.83824   0.55190   0.00000  Uiso   1.00
O888   O     0.87964   0.74601   0.42270   0.00000  Uiso   1.00
C889   C     0.24499   0.06688   0.81818   0.00000  Uiso   1.00
C890   C     0.09311   0.12301   0.80954   0.00000  Uiso   1.00
C891   C     0.38387   0.16440   0.82806   0.00000  Uiso   1.00
C892   C     0.11694   0.16916   0.83808   0.00000  Uiso   1.00
C893   C     0.40558   0.11997   0.79434   0.00000  Uiso   1.00
C894   C     0.09514   0.21538   0.86588   0.00000  Uiso   1.00
C895   C     0.45301   0.12090   0.79614   0.00000  Uiso   1.00
C896   C     0.04809   0.21495   0.86306   0.00000  Uiso   1.00
C897   C     0.47702   0.16720   0.82937   0.00000  Uiso   1.00
C898   C     0.02394   0.16838   0.83207   0.00000  Uiso   1.00
C899   C     0.45435   0.21205   0.86050   0.00000  Uiso   1.00
C900   C     0.25015   0.26671   0.84897   0.00000  Uiso   1.00
C901   C     0.04681   0.12200   0.80651   0.00000  Uiso   1.00
C902   C     0.47723   0.07622   0.76842   0.00000  Uiso   1.00
C903   C     0.02495   0.25971   0.89153   0.00000  Uiso   1.00
C904   C     0.38460   0.02992   0.77285   0.00000  Uiso   1.00
C905   C     0.34101   0.01125   0.79159   0.00000  Uiso   1.00
C906   C     0.12666   0.29597   0.86437   0.00000  Uiso   1.00
C907   C     0.14366   0.01493   0.90601   0.00000  Uiso   1.00
C908   C     0.04520   0.33166   0.71299   0.00000  Uiso   1.00
C909   C     0.07365   0.28311   0.71167   0.00000  Uiso   1.00
C910   C     0.46889   0.01698   0.91384   0.00000  Uiso   1.00
C911   C     0.02342   0.07504   0.77815   0.00000  Uiso   1.00
C912   C     0.43376   0.05799   0.93507   0.00000  Uiso   1.00
C913   C     0.47817   0.25887   0.89107   0.00000  Uiso   1.00
C914   C     0.23950   0.01086   0.81037   0.00000  Uiso   1.00
C915   C     0.24901   0.32283   0.85795   0.00000  Uiso   1.00
C916   C     0.16478   0.16858   0.83508   0.00000  Uiso   1.00
C917   C     0.33549   0.16470   0.83150   0.00000  Uiso   1.00
C918   C     0.40800   0.20935   0.86071   0.00000  Uiso   1.00
Cu919  Cu    0.25501   0.17246   0.89479   0.00000  Uiso   1.00
Cu920  Cu    0.24500   0.16087   0.77187   0.00000  Uiso   1.00
H921   H     0.46105   0.04023   0.74282   0.00000  Uiso   1.00
H922   H     0.31550   0.00842   0.75316   0.00000  Uiso   1.00
H923   H     0.34466   0.30475   0.80204   0.00000  Uiso   1.00
H924   H     0.09533   0.30433   0.83993   0.00000  Uiso   1.00
H925   H     0.15174   0.28128   0.83023   0.00000  Uiso   1.00
H926   H     0.17407   0.00848   0.93356   0.00000  Uiso   1.00
H927   H     0.15168   0.04378   0.87790   0.00000  Uiso   1.00
H928   H     0.11771   0.03181   0.93772   0.00000  Uiso   1.00
H929   H     0.06013   0.02292   0.68392   0.00000  Uiso   1.00
H930   H     0.01115   0.31737   0.69427   0.00000  Uiso   1.00
H931   H     0.06016   0.25873   0.74186   0.00000  Uiso   1.00
H932   H     0.04342   0.29490   0.91592   0.00000  Uiso   1.00
H933   H     0.07353   0.25790   0.99801   0.00000  Uiso   1.00
H934   H     0.10859   0.29580   0.72753   0.00000  Uiso   1.00
H935   H     0.47343   0.01405   0.86418   0.00000  Uiso   1.00
H936   H     0.00056   0.03169   0.94045   0.00000  Uiso   1.00
H937   H     0.43272   0.06660   0.98570   0.00000  Uiso   1.00
H938   H     0.44191   0.09549   0.92120   0.00000  Uiso   1.00
H939   H     0.40026   0.04289   0.91482   0.00000  Uiso   1.00
H940   H     0.21545   0.12649   0.98311   0.00000  Uiso   1.00
H941   H     0.28455   0.20684   0.68356   0.00000  Uiso   1.00
H942   H     0.23078   0.32024   0.76454   0.00000  Uiso   1.00
H943   H     0.25765   0.01339   0.90384   0.00000  Uiso   1.00
H944   H     0.39000   0.24289   0.88533   0.00000  Uiso   1.00
H945   H     0.11107   0.08799   0.78861   0.00000  Uiso   1.00
H946   H     0.40978   0.03035   0.81094   0.00000  Uiso   1.00
H947   H     0.39413   0.33316   0.73204   0.00000  Uiso   1.00
H948   H     0.33131   0.03976   0.83344   0.00000  Uiso   1.00
N949   N     0.23745   0.15214   0.67951   0.00000  Uiso   1.00
N950   N     0.26256   0.18119   0.98716   0.00000  Uiso   1.00
O951   O     0.25326   0.09538   0.87326   0.00000  Uiso   1.00
O952   O     0.11976   0.25867   0.90049   0.00000  Uiso   1.00
O953   O     0.04450   0.02706   0.77427   0.00000  Uiso   1.00
O954   O     0.45518   0.30095   0.92506   0.00000  Uiso   1.00
O955   O     0.24675   0.23796   0.79341   0.00000  Uiso   1.00
O956   O     0.24480   0.08559   0.76945   0.00000  Uiso   1.00
O957   O     0.25520   0.24774   0.89721   0.00000  Uiso   1.00
O958   O     0.18936   0.17155   0.88524   0.00000  Uiso   1.00
O959   O     0.31065   0.16179   0.78143   0.00000  Uiso   1.00
O960   O     0.18090   0.16176   0.78143   0.00000  Uiso   1.00
O961   O     0.31910   0.17157   0.88523   0.00000  Uiso   1.00
O962   O     0.37964   0.07935   0.75603   0.00000  Uiso   1.00
C963   C     0.74499   0.06688   0.81818   0.00000  Uiso   1.00
C964   C     0.59311   0.12301   0.80954   0.00000  Uiso   1.00
C965   C     0.88387   0.16440   0.82806   0.00000  Uiso   1.00
C966   C     0.61694   0.16916   0.83808   0.00000  Uiso   1.00
C967   C     0.90558   0.11997   0.79434   0.00000  Uiso   1.00
C968   C     0.59514   0.21538   0.86588   0.00000  Uiso   1.00
C969   C     0.95301   0.12090   0.79614   0.00000  Uiso   1.00
C970   C     0.54809   0.21495   0.86306   0.00000  Uiso   1.00
C971   C     0.97702   0.16720   0.82937   0.00000  Uiso   1.00
C972   C     0.52394   0.16838   0.83207   0.00000  Uiso   1.00
C973   C     0.95435   0.21205   0.86050   0.00000  Uiso   1.00
C974   C     0.75015   0.26671   0.84897   0.00000  Uiso   1.00
C975   C     0.54681   0.12200   0.80651   0.00000  Uiso   1.00
C976   C     0.97723   0.07622   0.76842   0.00000  Uiso   1.00
C977   C     0.52495   0.25971   0.89153   0.00000  Uiso   1.00
C978   C     0.88460   0.02992   0.77285   0.00000  Uiso   1.00
C979   C     0.84101   0.01125   0.79159   0.00000  Uiso   1.00
C980   C     0.62666   0.29597   0.86437   0.00000  Uiso   1.00
C981   C     0.64366   0.01493   0.90601   0.00000  Uiso   1.00
C982   C     0.54520   0.33166   0.71299   0.00000  Uiso   1.00
C983   C     0.57365   0.28311   0.71167   0.00000  Uiso   1.00
C984   C     0.96889   0.01698   0.91384   0.00000  Uiso   1.00
C985   C     0.52342   0.07504   0.77815   0.00000  Uiso   1.00
C986   C     0.93376   0.05799   0.93507   0.00000  Uiso   1.00
C987   C     0.97817   0.25887   0.89107   0.00000  Uiso   1.00
C988   C     0.73950   0.01086   0.81037   0.00000  Uiso   1.00
C989   C     0.74901   0.32283   0.85795   0.00000  Uiso   1.00
C990   C     0.66478   0.16858   0.83508   0.00000  Uiso   1.00
C991   C     0.83549   0.16470   0.83150   0.00000  Uiso   1.00
C992   C     0.90800   0.20935   0.86071   0.00000  Uiso   1.00
Cu993  Cu    0.75501   0.17246   0.89479   0.00000  Uiso   1.00
Cu994  Cu    0.74500   0.16087   0.77187   0.00000  Uiso   1.00
H995   H     0.96105   0.04023   0.74282   0.00000  Uiso   1.00
H996   H     0.81550   0.00842   0.75316   0.00000  Uiso   1.00
H997   H     0.84466   0.30475   0.80204   0.00000  Uiso   1.00
H998   H     0.59533   0.30433   0.83993   0.00000  Uiso   1.00
H999   H     0.65174   0.28128   0.83023   0.00000  Uiso   1.00
H1000  H     0.67407   0.00848   0.93356   0.00000  Uiso   1.00
H1001  H     0.65168   0.04378   0.87790   0.00000  Uiso   1.00
H1002  H     0.61771   0.03181   0.93772   0.00000  Uiso   1.00
H1003  H     0.56013   0.02292   0.68392   0.00000  Uiso   1.00
H1004  H     0.51115   0.31737   0.69427   0.00000  Uiso   1.00
H1005  H     0.56016   0.25873   0.74186   0.00000  Uiso   1.00
H1006  H     0.54342   0.29490   0.91592   0.00000  Uiso   1.00
H1007  H     0.57353   0.25790   0.99801   0.00000  Uiso   1.00
H1008  H     0.60859   0.29580   0.72753   0.00000  Uiso   1.00
H1009  H     0.97343   0.01405   0.86418   0.00000  Uiso   1.00
H1010  H     0.50056   0.03169   0.94045   0.00000  Uiso   1.00
H1011  H     0.93272   0.06660   0.98570   0.00000  Uiso   1.00
H1012  H     0.94191   0.09549   0.92120   0.00000  Uiso   1.00
H1013  H     0.90026   0.04289   0.91482   0.00000  Uiso   1.00
H1014  H     0.71545   0.12649   0.98311   0.00000  Uiso   1.00
H1015  H     0.78455   0.20684   0.68356   0.00000  Uiso   1.00
H1016  H     0.73078   0.32024   0.76454   0.00000  Uiso   1.00
H1017  H     0.75765   0.01339   0.90384   0.00000  Uiso   1.00
H1018  H     0.89000   0.24289   0.88533   0.00000  Uiso   1.00
H1019  H     0.61107   0.08799   0.78861   0.00000  Uiso   1.00
H1020  H     0.90978   0.03035   0.81094   0.00000  Uiso   1.00
H1021  H     0.89413   0.33316   0.73204   0.00000  Uiso   1.00
H1022  H     0.83131   0.03976   0.83344   0.00000  Uiso   1.00
N1023  N     0.73745   0.15214   0.67951   0.00000  Uiso   1.00
N1024  N     0.76256   0.18119   0.98716   0.00000  Uiso   1.00
O1025  O     0.75326   0.09538   0.87326   0.00000  Uiso   1.00
O1026  O     0.61976   0.25867   0.90049   0.00000  Uiso   1.00
O1027  O     0.54450   0.02706   0.77427   0.00000  Uiso   1.00
O1028  O     0.95518   0.30095   0.92506   0.00000  Uiso   1.00
O1029  O     0.74675   0.23796   0.79341   0.00000  Uiso   1.00
O1030  O     0.74480   0.08559   0.76945   0.00000  Uiso   1.00
O1031  O     0.75520   0.24774   0.89721   0.00000  Uiso   1.00
O1032  O     0.68936   0.17155   0.88524   0.00000  Uiso   1.00
O1033  O     0.81065   0.16179   0.78143   0.00000  Uiso   1.00
O1034  O     0.68090   0.16176   0.78143   0.00000  Uiso   1.00
O1035  O     0.81910   0.17157   0.88523   0.00000  Uiso   1.00
O1036  O     0.87964   0.07935   0.75603   0.00000  Uiso   1.00
C1037  C     0.24499   0.40022   0.81818   0.00000  Uiso   1.00
C1038  C     0.09311   0.45634   0.80954   0.00000  Uiso   1.00
C1039  C     0.38387   0.49773   0.82806   0.00000  Uiso   1.00
C1040  C     0.11694   0.50249   0.83808   0.00000  Uiso   1.00
C1041  C     0.40558   0.45331   0.79434   0.00000  Uiso   1.00
C1042  C     0.09514   0.54871   0.86588   0.00000  Uiso   1.00
C1043  C     0.45301   0.45423   0.79614   0.00000  Uiso   1.00
C1044  C     0.04809   0.54829   0.86306   0.00000  Uiso   1.00
C1045  C     0.47702   0.50053   0.82937   0.00000  Uiso   1.00
C1046  C     0.02394   0.50171   0.83207   0.00000  Uiso   1.00
C1047  C     0.45435   0.54539   0.86050   0.00000  Uiso   1.00
C1048  C     0.25015   0.60005   0.84897   0.00000  Uiso   1.00
C1049  C     0.04681   0.45533   0.80651   0.00000  Uiso   1.00
C1050  C     0.47723   0.40955   0.76842   0.00000  Uiso   1.00
C1051  C     0.02495   0.59305   0.89153   0.00000  Uiso   1.00
C1052  C     0.38460   0.36325   0.77285   0.00000  Uiso   1.00
C1053  C     0.34101   0.34458   0.79159   0.00000  Uiso   1.00
C1054  C     0.12666   0.62930   0.86437   0.00000  Uiso   1.00
C1055  C     0.14366   0.34827   0.90601   0.00000  Uiso   1.00
C1056  C     0.04520   0.66499   0.71299   0.00000  Uiso   1.00
C1057  C     0.07365   0.61644   0.71167   0.00000  Uiso   1.00
C1058  C     0.46889   0.35031   0.91384   0.00000  Uiso   1.00
C1059  C     0.02342   0.40837   0.77815   0.00000  Uiso   1.00
C1060  C     0.43376   0.39132   0.93507   0.00000  Uiso   1.00
C1061  C     0.47817   0.59220   0.89107   0.00000  Uiso   1.00
C1062  C     0.23950   0.34419   0.81037   0.00000  Uiso   1.00
C1063  C     0.24901   0.65617   0.85795   0.00000  Uiso   1.00
C1064  C     0.16478   0.50192   0.83508   0.00000  Uiso   1.00
C1065  C     0.33549   0.49803   0.83150   0.00000  Uiso   1.00
C1066  C     0.40800   0.54269   0.86071   0.00000  Uiso   1.00
Cu1067 Cu    0.25501   0.50579   0.89479   0.00000  Uiso   1.00
Cu1068 Cu    0.24500   0.49421   0.77187   0.00000  Uiso   1.00
H1069  H     0.46105   0.37356   0.74282   0.00000  Uiso   1.00
H1070  H     0.31550   0.34175   0.75316   0.00000  Uiso   1.00
H1071  H     0.34466   0.63809   0.80204   0.00000  Uiso   1.00
H1072  H     0.09533   0.63766   0.83993   0.00000  Uiso   1.00
H1073  H     0.15174   0.61462   0.83023   0.00000  Uiso   1.00
H1074  H     0.17407   0.34181   0.93356   0.00000  Uiso   1.00
H1075  H     0.15168   0.37712   0.87790   0.00000  Uiso   1.00
H1076  H     0.11771   0.36515   0.93772   0.00000  Uiso   1.00
H1077  H     0.06013   0.35626   0.68392   0.00000  Uiso   1.00
H1078  H     0.01115   0.65070   0.69427   0.00000  Uiso   1.00
H1079  H     0.06016   0.59206   0.74186   0.00000  Uiso   1.00
H1080  H     0.04342   0.62824   0.91592   0.00000  Uiso   1.00
H1081  H     0.07353   0.59124   0.99801   0.00000  Uiso   1.00
H1082  H     0.10859   0.62914   0.72753   0.00000  Uiso   1.00
H1083  H     0.47343   0.34739   0.86418   0.00000  Uiso   1.00
H1084  H     0.00056   0.36503   0.94045   0.00000  Uiso   1.00
H1085  H     0.43272   0.39993   0.98570   0.00000  Uiso   1.00
H1086  H     0.44191   0.42882   0.92120   0.00000  Uiso   1.00
H1087  H     0.40026   0.37623   0.91482   0.00000  Uiso   1.00
H1088  H     0.21545   0.45983   0.98311   0.00000  Uiso   1.00
H1089  H     0.28455   0.54017   0.68356   0.00000  Uiso   1.00
H1090  H     0.23078   0.65358   0.76454   0.00000  Uiso   1.00
H1091  H     0.25765   0.34672   0.90384   0.00000  Uiso   1.00
H1092  H     0.39000   0.57623   0.88533   0.00000  Uiso   1.00
H1093  H     0.11107   0.42133   0.78861   0.00000  Uiso   1.00
H1094  H     0.40978   0.36369   0.81094   0.00000  Uiso   1.00
H1095  H     0.39413   0.66649   0.73204   0.00000  Uiso   1.00
H1096  H     0.33131   0.37309   0.83344   0.00000  Uiso   1.00
N1097  N     0.23745   0.48547   0.67951   0.00000  Uiso   1.00
N1098  N     0.26256   0.51453   0.98716   0.00000  Uiso   1.00
O1099  O     0.25326   0.42871   0.87326   0.00000  Uiso   1.00
O1100  O     0.11976   0.59200   0.90049   0.00000  Uiso   1.00
O1101  O     0.04450   0.36039   0.77427   0.00000  Uiso   1.00
O1102  O     0.45518   0.63428   0.92506   0.00000  Uiso   1.00
O1103  O     0.24675   0.57129   0.79341   0.00000  Uiso   1.00
O1104  O     0.24480   0.41892   0.76945   0.00000  Uiso   1.00
O1105  O     0.25520   0.58108   0.89721   0.00000  Uiso   1.00
O1106  O     0.18936   0.50488   0.88524   0.00000  Uiso   1.00
O1107  O     0.31065   0.49512   0.78143   0.00000  Uiso   1.00
O1108  O     0.18090   0.49510   0.78143   0.00000  Uiso   1.00
O1109  O     0.31910   0.50490   0.88523   0.00000  Uiso   1.00
O1110  O     0.37964   0.41268   0.75603   0.00000  Uiso   1.00
C1111  C     0.74499   0.40022   0.81818   0.00000  Uiso   1.00
C1112  C     0.59311   0.45634   0.80954   0.00000  Uiso   1.00
C1113  C     0.88387   0.49773   0.82806   0.00000  Uiso   1.00
C1114  C     0.61694   0.50249   0.83808   0.00000  Uiso   1.00
C1115  C     0.90558   0.45331   0.79434   0.00000  Uiso   1.00
C1116  C     0.59514   0.54871   0.86588   0.00000  Uiso   1.00
C1117  C     0.95301   0.45423   0.79614   0.00000  Uiso   1.00
C1118  C     0.54809   0.54829   0.86306   0.00000  Uiso   1.00
C1119  C     0.97702   0.50053   0.82937   0.00000  Uiso   1.00
C1120  C     0.52394   0.50171   0.83207   0.00000  Uiso   1.00
C1121  C     0.95435   0.54539   0.86050   0.00000  Uiso   1.00
C1122  C     0.75015   0.60005   0.84897   0.00000  Uiso   1.00
C1123  C     0.54681   0.45533   0.80651   0.00000  Uiso   1.00
C1124  C     0.97723   0.40955   0.76842   0.00000  Uiso   1.00
C1125  C     0.52495   0.59305   0.89153   0.00000  Uiso   1.00
C1126  C     0.88460   0.36325   0.77285   0.00000  Uiso   1.00
C1127  C     0.84101   0.34458   0.79159   0.00000  Uiso   1.00
C1128  C     0.62666   0.62930   0.86437   0.00000  Uiso   1.00
C1129  C     0.64366   0.34827   0.90601   0.00000  Uiso   1.00
C1130  C     0.54520   0.66499   0.71299   0.00000  Uiso   1.00
C1131  C     0.57365   0.61644   0.71167   0.00000  Uiso   1.00
C1132  C     0.96889   0.35031   0.91384   0.00000  Uiso   1.00
C1133  C     0.52342   0.40837   0.77815   0.00000  Uiso   1.00
C1134  C     0.93376   0.39132   0.93507   0.00000  Uiso   1.00
C1135  C     0.97817   0.59220   0.89107   0.00000  Uiso   1.00
C1136  C     0.73950   0.34419   0.81037   0.00000  Uiso   1.00
C1137  C     0.74901   0.65617   0.85795   0.00000  Uiso   1.00
C1138  C     0.66478   0.50192   0.83508   0.00000  Uiso   1.00
C1139  C     0.83549   0.49803   0.83150   0.00000  Uiso   1.00
C1140  C     0.90800   0.54269   0.86071   0.00000  Uiso   1.00
Cu1141 Cu    0.75501   0.50579   0.89479   0.00000  Uiso   1.00
Cu1142 Cu    0.74500   0.49421   0.77187   0.00000  Uiso   1.00
H1143  H     0.96105   0.37356   0.74282   0.00000  Uiso   1.00
H1144  H     0.81550   0.34175   0.75316   0.00000  Uiso   1.00
H1145  H     0.84466   0.63809   0.80204   0.00000  Uiso   1.00
H1146  H     0.59533   0.63766   0.83993   0.00000  Uiso   1.00
H1147  H     0.65174   0.61462   0.83023   0.00000  Uiso   1.00
H1148  H     0.67407   0.34181   0.93356   0.00000  Uiso   1.00
H1149  H     0.65168   0.37712   0.87790   0.00000  Uiso   1.00
H1150  H     0.61771   0.36515   0.93772   0.00000  Uiso   1.00
H1151  H     0.56013   0.35626   0.68392   0.00000  Uiso   1.00
H1152  H     0.51115   0.65070   0.69427   0.00000  Uiso   1.00
H1153  H     0.56016   0.59206   0.74186   0.00000  Uiso   1.00
H1154  H     0.54342   0.62824   0.91592   0.00000  Uiso   1.00
H1155  H     0.57353   0.59124   0.99801   0.00000  Uiso   1.00
H1156  H     0.60859   0.62914   0.72753   0.00000  Uiso   1.00
H1157  H     0.97343   0.34739   0.86418   0.00000  Uiso   1.00
H1158  H     0.50056   0.36503   0.94045   0.00000  Uiso   1.00
H1159  H     0.93272   0.39993   0.98570   0.00000  Uiso   1.00
H1160  H     0.94191   0.42882   0.92120   0.00000  Uiso   1.00
H1161  H     0.90026   0.37623   0.91482   0.00000  Uiso   1.00
H1162  H     0.71545   0.45983   0.98311   0.00000  Uiso   1.00
H1163  H     0.78455   0.54017   0.68356   0.00000  Uiso   1.00
H1164  H     0.73078   0.65358   0.76454   0.00000  Uiso   1.00
H1165  H     0.75765   0.34672   0.90384   0.00000  Uiso   1.00
H1166  H     0.89000   0.57623   0.88533   0.00000  Uiso   1.00
H1167  H     0.61107   0.42133   0.78861   0.00000  Uiso   1.00
H1168  H     0.90978   0.36369   0.81094   0.00000  Uiso   1.00
H1169  H     0.89413   0.66649   0.73204   0.00000  Uiso   1.00
H1170  H     0.83131   0.37309   0.83344   0.00000  Uiso   1.00
N1171  N     0.73745   0.48547   0.67951   0.00000  Uiso   1.00
N1172  N     0.76256   0.51453   0.98716   0.00000  Uiso   1.00
O1173  O     0.75326   0.42871   0.87326   0.00000  Uiso   1.00
O1174  O     0.61976   0.59200   0.90049   0.00000  Uiso   1.00
O1175  O     0.54450   0.36039   0.77427   0.00000  Uiso   1.00
O1176  O     0.95518   0.63428   0.92506   0.00000  Uiso   1.00
O1177  O     0.74675   0.57129   0.79341   0.00000  Uiso   1.00
O1178  O     0.74480   0.41892   0.76945   0.00000  Uiso   1.00
O1179  O     0.75520   0.58108   0.89721   0.00000  Uiso   1.00
O1180  O     0.68936   0.50488   0.88524   0.00000  Uiso   1.00
O1181  O     0.81065   0.49512   0.78143   0.00000  Uiso   1.00
O1182  O     0.68090   0.49510   0.78143   0.00000  Uiso   1.00
O1183  O     0.81910   0.50490   0.88523   0.00000  Uiso   1.00
O1184  O     0.87964   0.41268   0.75603   0.00000  Uiso   1.00
C1185  C     0.24499   0.73355   0.81818   0.00000  Uiso   1.00
C1186  C     0.09311   0.78967   0.80954   0.00000  Uiso   1.00
C1187  C     0.38387   0.83106   0.82806   0.00000  Uiso   1.00
C1188  C     0.11694   0.83582   0.83808   0.00000  Uiso   1.00
C1189  C     0.40558   0.78664   0.79434   0.00000  Uiso   1.00
C1190  C     0.09514   0.88205   0.86588   0.00000  Uiso   1.00
C1191  C     0.45301   0.78756   0.79614   0.00000  Uiso   1.00
C1192  C     0.04809   0.88162   0.86306   0.00000  Uiso   1.00
C1193  C     0.47702   0.83386   0.82937   0.00000  Uiso   1.00
C1194  C     0.02394   0.83505   0.83207   0.00000  Uiso   1.00
C1195  C     0.45435   0.87872   0.86050   0.00000  Uiso   1.00
C1196  C     0.25015   0.93338   0.84897   0.00000  Uiso   1.00
C1197  C     0.04681   0.78866   0.80651   0.00000  Uiso   1.00
C1198  C     0.47723   0.74289   0.76842   0.00000  Uiso   1.00
C1199  C     0.02495   0.92638   0.89153   0.00000  Uiso   1.00
C1200  C     0.38460   0.69658   0.77285   0.00000  Uiso   1.00
C1201  C     0.34101   0.67791   0.79159   0.00000  Uiso   1.00
C1202  C     0.12666   0.96264   0.86437   0.00000  Uiso   1.00
C1203  C     0.14366   0.68160   0.90601   0.00000  Uiso   1.00
C1204  C     0.04520   0.99833   0.71299   0.00000  Uiso   1.00
C1205  C     0.07365   0.94978   0.71167   0.00000  Uiso   1.00
C1206  C     0.46889   0.68365   0.91384   0.00000  Uiso   1.00
C1207  C     0.02342   0.74171   0.77815   0.00000  Uiso   1.00
C1208  C     0.43376   0.72466   0.93507   0.00000  Uiso   1.00
C1209  C     0.47817   0.92553   0.89107   0.00000  Uiso   1.00
C1210  C     0.23950   0.67753   0.81037   0.00000  Uiso   1.00
C1211  C     0.24901   0.98950   0.85795   0.00000  Uiso   1.00
C1212  C     0.16478   0.83525   0.83508   0.00000  Uiso   1.00
C1213  C     0.33549   0.83136   0.83150   0.00000  Uiso   1.00
C1214  C     0.40800   0.87602   0.86071   0.00000  Uiso   1.00
Cu1215 Cu    0.25501   0.83913   0.89479   0.00000  Uiso   1.00
Cu1216 Cu    0.24500   0.82754   0.77187   0.00000  Uiso   1.00
H1217  H     0.46105   0.70690   0.74282   0.00000  Uiso   1.00
H1218  H     0.31550   0.67508   0.75316   0.00000  Uiso   1.00
H1219  H     0.34466   0.97142   0.80204   0.00000  Uiso   1.00
H1220  H     0.09533   0.97099   0.83993   0.00000  Uiso   1.00
H1221  H     0.15174   0.94795   0.83023   0.00000  Uiso   1.00
H1222  H     0.17407   0.67515   0.93356   0.00000  Uiso   1.00
H1223  H     0.15168   0.71045   0.87790   0.00000  Uiso   1.00
H1224  H     0.11771   0.69848   0.93772   0.00000  Uiso   1.00
H1225  H     0.06013   0.68959   0.68392   0.00000  Uiso   1.00
H1226  H     0.01115   0.98404   0.69427   0.00000  Uiso   1.00
H1227  H     0.06016   0.92539   0.74186   0.00000  Uiso   1.00
H1228  H     0.04342   0.96157   0.91592   0.00000  Uiso   1.00
H1229  H     0.07353   0.92457   0.99801   0.00000  Uiso   1.00
H1230  H     0.10859   0.96247   0.72753   0.00000  Uiso   1.00
H1231  H     0.47343   0.68072   0.86418   0.00000  Uiso   1.00
H1232  H     0.00056   0.69836   0.94045   0.00000  Uiso   1.00
H1233  H     0.43272   0.73326   0.98570   0.00000  Uiso   1.00
H1234  H     0.44191   0.76216   0.92120   0.00000  Uiso   1.00
H1235  H     0.40026   0.70956   0.91482   0.00000  Uiso   1.00
H1236  H     0.21545   0.79316   0.98311   0.00000  Uiso   1.00
H1237  H     0.28455   0.87350   0.68356   0.00000  Uiso   1.00
H1238  H     0.23078   0.98691   0.76454   0.00000  Uiso   1.00
H1239  H     0.25765   0.68006   0.90384   0.00000  Uiso   1.00
H1240  H     0.39000   0.90956   0.88533   0.00000  Uiso   1.00
H1241  H     0.11107   0.75466   0.78861   0.00000  Uiso   1.00
H1242  H     0.40978   0.69702   0.81094   0.00000  Uiso   1.00
H1243  H     0.39413   0.99982   0.73204   0.00000  Uiso   1.00
H1244  H     0.33131   0.70643   0.83344   0.00000  Uiso   1.00
N1245  N     0.23745   0.81881   0.67951   0.00000  Uiso   1.00
N1246  N     0.26256   0.84786   0.98716   0.00000  Uiso   1.00
O1247  O     0.25326   0.76204   0.87326   0.00000  Uiso   1.00
O1248  O     0.11976   0.92533   0.90049   0.00000  Uiso   1.00
O1249  O     0.04450   0.69372   0.77427   0.00000  Uiso   1.00
O1250  O     0.45518   0.96762   0.92506   0.00000  Uiso   1.00
O1251  O     0.24675   0.90462   0.79341   0.00000  Uiso   1.00
O1252  O     0.24480   0.75226   0.76945   0.00000  Uiso   1.00
O1253  O     0.25520   0.91441   0.89721   0.00000  Uiso   1.00
O1254  O     0.18936   0.83821   0.88524   0.00000  Uiso   1.00
O1255  O     0.31065   0.82845   0.78143   0.00000  Uiso   1.00
O1256  O     0.18090   0.82843   0.78143   0.00000  Uiso   1.00
O1257  O     0.31910   0.83824   0.88523   0.00000  Uiso   1.00
O1258  O     0.37964   0.74601   0.75603   0.00000  Uiso   1.00
C1259  C     0.74499   0.73355   0.81818   0.00000  Uiso   1.00
C1260  C     0.59311   0.78967   0.80954   0.00000  Uiso   1.00
C1261  C     0.88387   0.83106   0.82806   0.00000  Uiso   1.00
C1262  C     0.61694   0.83582   0.83808   0.00000  Uiso   1.00
C1263  C     0.90558   0.78664   0.79434   0.00000  Uiso   1.00
C1264  C     0.59514   0.88205   0.86588   0.00000  Uiso   1.00
C1265  C     0.95301   0.78756   0.79614   0.00000  Uiso   1.00
C1266  C     0.54809   0.88162   0.86306   0.00000  Uiso   1.00
C1267  C     0.97702   0.83386   0.82937   0.00000  Uiso   1.00
C1268  C     0.52394   0.83505   0.83207   0.00000  Uiso   1.00
C1269  C     0.95435   0.87872   0.86050   0.00000  Uiso   1.00
C1270  C     0.75015   0.93338   0.84897   0.00000  Uiso   1.00
C1271  C     0.54681   0.78866   0.80651   0.00000  Uiso   1.00
C1272  C     0.97723   0.74289   0.76842   0.00000  Uiso   1.00
C1273  C     0.52495   0.92638   0.89153   0.00000  Uiso   1.00
C1274  C     0.88460   0.69658   0.77285   0.00000  Uiso   1.00
C1275  C     0.84101   0.67791   0.79159   0.00000  Uiso   1.00
C1276  C     0.62666   0.96264   0.86437   0.00000  Uiso   1.00
C1277  C     0.64366   0.68160   0.90601   0.00000  Uiso   1.00
C1278  C     0.54520   0.99833   0.71299   0.00000  Uiso   1.00
C1279  C     0.57365   0.94978   0.71167   0.00000  Uiso   1.00
C1280  C     0.96889   0.68365   0.91384   0.00000  Uiso   1.00
C1281  C     0.52342   0.74171   0.77815   0.00000  Uiso   1.00
C1282  C     0.93376   0.72466   0.93507   0.00000  Uiso   1.00
C1283  C     0.97817   0.92553   0.89107   0.00000  Uiso   1.00
C1284  C     0.73950   0.67753   0.81037   0.00000  Uiso   1.00
C1285  C     0.74901   0.98950   0.85795   0.00000  Uiso   1.00
C1286  C     0.66478   0.83525   0.83508   0.00000  Uiso   1.00
C1287  C     0.83549   0.83136   0.83150   0.00000  Uiso   1.00
C1288  C     0.90800   0.87602   0.86071   0.00000  Uiso   1.00
Cu1289 Cu    0.75501   0.83913   0.89479   0.00000  Uiso   1.00
Cu1290 Cu    0.74500   0.82754   0.77187   0.00000  Uiso   1.00
H1291  H     0.96105   0.70690   0.74282   0.00000  Uiso   1.00
H1292  H     0.81550   0.67508   0.75316   0.00000  Uiso   1.00
H1293  H     0.84466   0.97142   0.80204   0.00000  Uiso   1.00
H1294  H     0.59533   0.97099   0.83993   0.00000  Uiso   1.00
H1295  H     0.65174   0.94795   0.83023   0.00000  Uiso   1.00
H1296  H     0.67407   0.67515   0.93356   0.00000  Uiso   1.00
H1297  H     0.65168   0.71045   0.87790   0.00000  Uiso   1.00
H1298  H     0.61771   0.69848   0.93772   0.00000  Uiso   1.00
H1299  H     0.56013   0.68959   0.68392   0.00000  Uiso   1.00
H1300  H     0.51115   0.98404   0.69427   0.00000  Uiso   1.00
H1301  H     0.56016   0.92539   0.74186   0.00000  Uiso   1.00
H1302  H     0.54342   0.96157   0.91592   0.00000  Uiso   1.00
H1303  H     0.57353   0.92457   0.99801   0.00000  Uiso   1.00
H1304  H     0.60859   0.96247   0.72753   0.00000  Uiso   1.00
H1305  H     0.97343   0.68072   0.86418   0.00000  Uiso   1.00
H1306  H     0.50056   0.69836   0.94045   0.00000  Uiso   1.00
H1307  H     0.93272   0.73326   0.98570   0.00000  Uiso   1.00
H1308  H     0.94191   0.76216   0.92120   0.00000  Uiso   1.00
H1309  H     0.90026   0.70956   0.91482   0.00000  Uiso   1.00
H1310  H     0.71545   0.79316   0.98311   0.00000  Uiso   1.00
H1311  H     0.78455   0.87350   0.68356   0.00000  Uiso   1.00
H1312  H     0.73078   0.98691   0.76454   0.00000  Uiso   1.00
H1313  H     0.75765   0.68006   0.90384   0.00000  Uiso   1.00
H1314  H     0.89000   0.90956   0.88533   0.00000  Uiso   1.00
H1315  H     0.61107   0.75466   0.78861   0.00000  Uiso   1.00
H1316  H     0.90978   0.69702   0.81094   0.00000  Uiso   1.00
H1317  H     0.89413   0.99982   0.73204   0.00000  Uiso   1.00
H1318  H     0.83131   0.70643   0.83344   0.00000  Uiso   1.00
N1319  N     0.73745   0.81881   0.67951   0.00000  Uiso   1.00
N1320  N     0.76256   0.84786   0.98716   0.00000  Uiso   1.00
O1321  O     0.75326   0.76204   0.87326   0.00000  Uiso   1.00
O1322  O     0.61976   0.92533   0.90049   0.00000  Uiso   1.00
O1323  O     0.54450   0.69372   0.77427   0.00000  Uiso   1.00
O1324  O     0.95518   0.96762   0.92506   0.00000  Uiso   1.00
O1325  O     0.74675   0.90462   0.79341   0.00000  Uiso   1.00
O1326  O     0.74480   0.75226   0.76945   0.00000  Uiso   1.00
O1327  O     0.75520   0.91441   0.89721   0.00000  Uiso   1.00
O1328  O     0.68936   0.83821   0.88524   0.00000  Uiso   1.00
O1329  O     0.81065   0.82845   0.78143   0.00000  Uiso   1.00
O1330  O     0.68090   0.82843   0.78143   0.00000  Uiso   1.00
O1331  O     0.81910   0.83824   0.88523   0.00000  Uiso   1.00
O1332  O     0.87964   0.74601   0.75603   0.00000  Uiso   1.00
loop_
_geom_bond_atom_site_label_1
_geom_bond_atom_site_label_2
_geom_bond_distance
_geom_bond_site_symmetry_2
_ccdc_geom_bond_type
C1     O63     1.294   .     A
C1     C26     1.424   .     S
C1     O68     1.289   .     A
C2     C4      1.387   .     A
C2     H57     1.086   .     S
C2     C13     1.389   .     A
C3     C30     1.394   .     A
C3     C29     1.460   .     S
C3     C5      1.413   .     A
C4     C28     1.443   .     S
C4     C6      1.405   .     A
C5     O74     1.394   .     S
C5     C7      1.424   .     A
C6     O64     1.386   .     S
C6     C8      1.412   .     A
C7     C9      1.421   .     A
C7     C14     1.413   .     A
C8     C15     1.402   .     A
C8     C10     1.414   .     A
C9     C11     1.415   .     A
C9     C84     1.408   .     S
C10    C13     1.411   .     A
C10    C83     1.408   1_455 S
C11    C25     1.412   .     A
C11    C30     1.394   .     A
C12    O69     1.286   .     A
C12    O67     1.295   .     A
C12    C27     1.419   .     S
C13    C23     1.396   .     A
C14    H33     1.070   .     S
C14    C97     1.395   .     S
C15    H44     1.078   .     S
C15    C99     1.405   1_455 S
C16    H58     1.106   .     S
C16    O74     1.418   .     S
C16    C17     1.503   .     S
C16    H355    1.111   1_545 S
C17    H34     1.109   .     S
C17    H60     1.109   .     S
C17    H331    1.111   1_545 S
C18    O64     1.411   .     S
C18    H37     1.112   .     S
C18    H36     1.111   .     S
C18    C167    1.522   .     S
C19    H38     1.110   .     S
C19    H39     1.111   .     S
C19    H40     1.110   .     S
C19    C314    1.522   1_545 S
C20    H42     1.110   .     S
C20    C21     1.523   .     S
C20    H189    1.114   .     S
C20    O213    1.406   .     S
C21    H46     1.111   .     S
C21    H43     1.111   .     S
C21    H933    1.105   1_554 S
C22    H47     1.113   .     S
C22    C24     1.524   .     S
C22    H122    1.109   .     S
C22    O362    1.415   1_545 S
C23    O65     1.387   .     S
C23    C88     1.395   1_455 S
C24    H51     1.109   .     S
C24    H50     1.110   .     S
C24    H49     1.107   .     S
C25    O66     1.394   .     S
C25    C89     1.405   .     S
C26    C323    1.326   1_545 S
C26    H350    1.088   1_545 S
C27    C174    1.326   .     S
C27    H203    1.088   .     S
C28    O72     1.296   .     A
C28    O70     1.296   .     A
C29    O73     1.301   .     A
C29    O71     1.299   .     A
C30    H56     1.085   .     S
Cu31   O73     1.950   .     S
Cu31   Cu32    2.699   .     S
Cu31   N62     2.028   .     S
Cu31   O70     1.972   .     S
Cu31   O63     1.939   .     S
Cu31   O69     1.933   .     S
Cu32   N61     2.028   .     S
Cu32   O68     1.933   .     S
Cu32   O72     1.950   .     S
Cu32   O67     1.939   .     S
Cu32   O71     1.972   .     S
H35    C165    1.111   .     S
H41    C316    1.114   1_545 S
H45    C465    1.105   .     S
H48    C96     1.109   1_455 S
H52    N505    1.029   .     S
H53    N950    1.029   1_554 S
H54    C174    1.088   .     S
H55    C323    1.088   1_545 S
H59    C164    1.111   .     S
N61    H940    1.029   1_554 S
N61    N950    1.300   1_554 S
N62    N505    1.300   .     S
N62    H497    1.029   .     S
O65    C316    1.406   1_545 S
O66    C170    1.415   .     S
C75    O137    1.294   .     A
C75    C100    1.424   .     S
C75    O142    1.289   .     A
C76    C78     1.387   .     A
C76    H131    1.086   .     S
C76    C87     1.389   .     A
C77    C104    1.394   .     A
C77    C103    1.460   .     S
C77    C79     1.413   .     A
C78    C102    1.443   .     S
C78    C80     1.405   .     A
C79    O148    1.394   .     S
C79    C81     1.424   .     A
C80    O138    1.386   .     S
C80    C82     1.412   .     A
C81    C83     1.421   .     A
C81    C88     1.413   .     A
C82    C89     1.402   .     A
C82    C84     1.414   .     A
C83    C85     1.415   .     A
C83    C10     1.408   1_655 S
C84    C87     1.411   .     A
C85    C99     1.412   .     A
C85    C104    1.394   .     A
C86    O143    1.286   .     A
C86    O141    1.295   .     A
C86    C101    1.419   .     S
C87    C97     1.396   .     A
C88    H107    1.070   .     S
C88    C23     1.395   1_655 S
C89    H118    1.078   .     S
C90    H132    1.106   .     S
C90    O148    1.418   .     S
C90    C91     1.503   .     S
C90    H429    1.111   1_545 S
C91    H108    1.109   .     S
C91    H134    1.109   .     S
C91    H405    1.111   1_545 S
C92    O138    1.411   .     S
C92    H111    1.112   .     S
C92    H110    1.111   .     S
C92    C241    1.522   .     S
C93    H112    1.110   .     S
C93    H113    1.111   .     S
C93    H114    1.110   .     S
C93    C388    1.522   1_545 S
C94    H116    1.110   .     S
C94    C95     1.523   .     S
C94    H263    1.114   .     S
C94    O287    1.406   .     S
C95    H120    1.111   .     S
C95    H117    1.111   .     S
C95    H1007   1.105   1_554 S
C96    H121    1.113   .     S
C96    C98     1.524   .     S
C96    H48     1.109   1_655 S
C96    O436    1.415   1_545 S
C97    O139    1.387   .     S
C98    H125    1.109   .     S
C98    H124    1.110   .     S
C98    H123    1.107   .     S
C99    O140    1.394   .     S
C99    C15     1.405   1_655 S
C100   C397    1.326   1_545 S
C100   H424    1.088   1_545 S
C101   C248    1.326   .     S
C101   H277    1.088   .     S
C102   O146    1.296   .     A
C102   O144    1.296   .     A
C103   O147    1.301   .     A
C103   O145    1.299   .     A
C104   H130    1.085   .     S
Cu105  O147    1.950   .     S
Cu105  Cu106   2.699   .     S
Cu105  N136    2.028   .     S
Cu105  O144    1.972   .     S
Cu105  O137    1.939   .     S
Cu105  O143    1.933   .     S
Cu106  N135    2.028   .     S
Cu106  O142    1.933   .     S
Cu106  O146    1.950   .     S
Cu106  O141    1.939   .     S
Cu106  O145    1.972   .     S
H109   C239    1.111   .     S
H115   C390    1.114   1_545 S
H119   C539    1.105   .     S
H126   N579    1.029   .     S
H127   N1024   1.029   1_554 S
H128   C248    1.088   .     S
H129   C397    1.088   1_545 S
H133   C238    1.111   .     S
N135   H1014   1.029   1_554 S
N135   N1024   1.300   1_554 S
N136   N579    1.300   .     S
N136   H571    1.029   .     S
O139   C390    1.406   1_545 S
O140   C244    1.415   .     S
C149   O211    1.294   .     A
C149   C174    1.424   .     S
C149   O216    1.289   .     A
C150   C152    1.387   .     A
C150   H205    1.086   .     S
C150   C161    1.389   .     A
C151   C178    1.394   .     A
C151   C177    1.460   .     S
C151   C153    1.413   .     A
C152   C176    1.443   .     S
C152   C154    1.405   .     A
C153   O222    1.394   .     S
C153   C155    1.424   .     A
C154   O212    1.386   .     S
C154   C156    1.412   .     A
C155   C157    1.421   .     A
C155   C162    1.413   .     A
C156   C163    1.402   .     A
C156   C158    1.414   .     A
C157   C159    1.415   .     A
C157   C232    1.408   .     S
C158   C161    1.411   .     A
C158   C231    1.408   1_455 S
C159   C173    1.412   .     A
C159   C178    1.394   .     A
C160   O217    1.286   .     A
C160   O215    1.295   .     A
C160   C175    1.419   .     S
C161   C171    1.396   .     A
C162   H181    1.070   .     S
C162   C245    1.395   .     S
C163   H192    1.078   .     S
C163   C247    1.405   1_455 S
C164   H206    1.106   .     S
C164   O222    1.418   .     S
C164   C165    1.503   .     S
C165   H182    1.109   .     S
C165   H208    1.109   .     S
C166   O212    1.411   .     S
C166   H185    1.112   .     S
C166   H184    1.111   .     S
C166   C315    1.522   .     S
C167   H186    1.110   .     S
C167   H187    1.111   .     S
C167   H188    1.110   .     S
C168   H190    1.110   .     S
C168   C169    1.523   .     S
C168   H337    1.114   .     S
C168   O361    1.406   .     S
C169   H194    1.111   .     S
C169   H191    1.111   .     S
C169   H1081   1.105   1_554 S
C170   H195    1.113   .     S
C170   C172    1.524   .     S
C170   H270    1.109   .     S
C171   O213    1.387   .     S
C171   C236    1.395   1_455 S
C172   H199    1.109   .     S
C172   H198    1.110   .     S
C172   H197    1.107   .     S
C173   O214    1.394   .     S
C173   C237    1.405   .     S
C175   C322    1.326   .     S
C175   H351    1.088   .     S
C176   O220    1.296   .     A
C176   O218    1.296   .     A
C177   O221    1.301   .     A
C177   O219    1.299   .     A
C178   H204    1.085   .     S
Cu179  O221    1.950   .     S
Cu179  Cu180   2.699   .     S
Cu179  N210    2.028   .     S
Cu179  O218    1.972   .     S
Cu179  O211    1.939   .     S
Cu179  O217    1.933   .     S
Cu180  N209    2.028   .     S
Cu180  O216    1.933   .     S
Cu180  O220    1.950   .     S
Cu180  O215    1.939   .     S
Cu180  O219    1.972   .     S
H183   C313    1.111   .     S
H193   C613    1.105   .     S
H196   C244    1.109   1_455 S
H200   N653    1.029   .     S
H201   N1098   1.029   1_554 S
H202   C322    1.088   .     S
H207   C312    1.111   .     S
N209   H1088   1.029   1_554 S
N209   N1098   1.300   1_554 S
N210   N653    1.300   .     S
N210   H645    1.029   .     S
O214   C318    1.415   .     S
C223   O285    1.294   .     A
C223   C248    1.424   .     S
C223   O290    1.289   .     A
C224   C226    1.387   .     A
C224   H279    1.086   .     S
C224   C235    1.389   .     A
C225   C252    1.394   .     A
C225   C251    1.460   .     S
C225   C227    1.413   .     A
C226   C250    1.443   .     S
C226   C228    1.405   .     A
C227   O296    1.394   .     S
C227   C229    1.424   .     A
C228   O286    1.386   .     S
C228   C230    1.412   .     A
C229   C231    1.421   .     A
C229   C236    1.413   .     A
C230   C237    1.402   .     A
C230   C232    1.414   .     A
C231   C233    1.415   .     A
C231   C158    1.408   1_655 S
C232   C235    1.411   .     A
C233   C247    1.412   .     A
C233   C252    1.394   .     A
C234   O291    1.286   .     A
C234   O289    1.295   .     A
C234   C249    1.419   .     S
C235   C245    1.396   .     A
C236   H255    1.070   .     S
C236   C171    1.395   1_655 S
C237   H266    1.078   .     S
C238   H280    1.106   .     S
C238   O296    1.418   .     S
C238   C239    1.503   .     S
C239   H256    1.109   .     S
C239   H282    1.109   .     S
C240   O286    1.411   .     S
C240   H259    1.112   .     S
C240   H258    1.111   .     S
C240   C389    1.522   .     S
C241   H260    1.110   .     S
C241   H261    1.111   .     S
C241   H262    1.110   .     S
C242   H264    1.110   .     S
C242   C243    1.523   .     S
C242   H411    1.114   .     S
C242   O435    1.406   .     S
C243   H268    1.111   .     S
C243   H265    1.111   .     S
C243   H1155   1.105   1_554 S
C244   H269    1.113   .     S
C244   C246    1.524   .     S
C244   H196    1.109   1_655 S
C245   O287    1.387   .     S
C246   H273    1.109   .     S
C246   H272    1.110   .     S
C246   H271    1.107   .     S
C247   O288    1.394   .     S
C247   C163    1.405   1_655 S
C249   C396    1.326   .     S
C249   H425    1.088   .     S
C250   O294    1.296   .     A
C250   O292    1.296   .     A
C251   O295    1.301   .     A
C251   O293    1.299   .     A
C252   H278    1.085   .     S
Cu253  O295    1.950   .     S
Cu253  Cu254   2.699   .     S
Cu253  N284    2.028   .     S
Cu253  O292    1.972   .     S
Cu253  O285    1.939   .     S
Cu253  O291    1.933   .     S
Cu254  N283    2.028   .     S
Cu254  O290    1.933   .     S
Cu254  O294    1.950   .     S
Cu254  O289    1.939   .     S
Cu254  O293    1.972   .     S
H257   C387    1.111   .     S
H267   C687    1.105   .     S
H274   N727    1.029   .     S
H275   N1172   1.029   1_554 S
H276   C396    1.088   .     S
H281   C386    1.111   .     S
N283   H1162   1.029   1_554 S
N283   N1172   1.300   1_554 S
N284   N727    1.300   .     S
N284   H719    1.029   .     S
O288   C392    1.415   .     S
C297   O359    1.294   .     A
C297   C322    1.424   .     S
C297   O364    1.289   .     A
C298   C300    1.387   .     A
C298   H353    1.086   .     S
C298   C309    1.389   .     A
C299   C326    1.394   .     A
C299   C325    1.460   .     S
C299   C301    1.413   .     A
C300   C324    1.443   .     S
C300   C302    1.405   .     A
C301   O370    1.394   .     S
C301   C303    1.424   .     A
C302   O360    1.386   .     S
C302   C304    1.412   .     A
C303   C305    1.421   .     A
C303   C310    1.413   .     A
C304   C311    1.402   .     A
C304   C306    1.414   .     A
C305   C307    1.415   .     A
C305   C380    1.408   .     S
C306   C309    1.411   .     A
C306   C379    1.408   1_455 S
C307   C321    1.412   .     A
C307   C326    1.394   .     A
C308   O365    1.286   .     A
C308   O363    1.295   .     A
C308   C323    1.419   .     S
C309   C319    1.396   .     A
C310   H329    1.070   .     S
C310   C393    1.395   .     S
C311   H340    1.078   .     S
C311   C395    1.405   1_455 S
C312   H354    1.106   .     S
C312   O370    1.418   .     S
C312   C313    1.503   .     S
C313   H330    1.109   .     S
C313   H356    1.109   .     S
C314   O360    1.411   .     S
C314   H333    1.112   .     S
C314   H332    1.111   .     S
C314   C19     1.522   1_565 S
C315   H334    1.110   .     S
C315   H335    1.111   .     S
C315   H336    1.110   .     S
C316   H338    1.110   .     S
C316   C317    1.523   .     S
C316   H41     1.114   1_565 S
C316   O65     1.406   1_565 S
C317   H342    1.111   .     S
C317   H339    1.111   .     S
C317   H1229   1.105   1_554 S
C318   H343    1.113   .     S
C318   C320    1.524   .     S
C318   H418    1.109   .     S
C319   O361    1.387   .     S
C319   C384    1.395   1_455 S
C320   H347    1.109   .     S
C320   H346    1.110   .     S
C320   H345    1.107   .     S
C321   O362    1.394   .     S
C321   C385    1.405   .     S
C323   C26     1.326   1_565 S
C323   H55     1.088   1_565 S
C324   O368    1.296   .     A
C324   O366    1.296   .     A
C325   O369    1.301   .     A
C325   O367    1.299   .     A
C326   H352    1.085   .     S
Cu327  O369    1.950   .     S
Cu327  Cu328   2.699   .     S
Cu327  N358    2.028   .     S
Cu327  O366    1.972   .     S
Cu327  O359    1.939   .     S
Cu327  O365    1.933   .     S
Cu328  N357    2.028   .     S
Cu328  O364    1.933   .     S
Cu328  O368    1.950   .     S
Cu328  O363    1.939   .     S
Cu328  O367    1.972   .     S
H331   C17     1.111   1_565 S
H341   C761    1.105   .     S
H344   C392    1.109   1_455 S
H348   N801    1.029   .     S
H349   N1246   1.029   1_554 S
H350   C26     1.088   1_565 S
H355   C16     1.111   1_565 S
N357   H1236   1.029   1_554 S
N357   N1246   1.300   1_554 S
N358   N801    1.300   .     S
N358   H793    1.029   .     S
O362   C22     1.415   1_565 S
C371   O433    1.294   .     A
C371   C396    1.424   .     S
C371   O438    1.289   .     A
C372   C374    1.387   .     A
C372   H427    1.086   .     S
C372   C383    1.389   .     A
C373   C400    1.394   .     A
C373   C399    1.460   .     S
C373   C375    1.413   .     A
C374   C398    1.443   .     S
C374   C376    1.405   .     A
C375   O444    1.394   .     S
C375   C377    1.424   .     A
C376   O434    1.386   .     S
C376   C378    1.412   .     A
C377   C379    1.421   .     A
C377   C384    1.413   .     A
C378   C385    1.402   .     A
C378   C380    1.414   .     A
C379   C381    1.415   .     A
C379   C306    1.408   1_655 S
C380   C383    1.411   .     A
C381   C395    1.412   .     A
C381   C400    1.394   .     A
C382   O439    1.286   .     A
C382   O437    1.295   .     A
C382   C397    1.419   .     S
C383   C393    1.396   .     A
C384   H403    1.070   .     S
C384   C319    1.395   1_655 S
C385   H414    1.078   .     S
C386   H428    1.106   .     S
C386   O444    1.418   .     S
C386   C387    1.503   .     S
C387   H404    1.109   .     S
C387   H430    1.109   .     S
C388   O434    1.411   .     S
C388   H407    1.112   .     S
C388   H406    1.111   .     S
C388   C93     1.522   1_565 S
C389   H408    1.110   .     S
C389   H409    1.111   .     S
C389   H410    1.110   .     S
C390   H412    1.110   .     S
C390   C391    1.523   .     S
C390   H115    1.114   1_565 S
C390   O139    1.406   1_565 S
C391   H416    1.111   .     S
C391   H413    1.111   .     S
C391   H1303   1.105   1_554 S
C392   H417    1.113   .     S
C392   C394    1.524   .     S
C392   H344    1.109   1_655 S
C393   O435    1.387   .     S
C394   H421    1.109   .     S
C394   H420    1.110   .     S
C394   H419    1.107   .     S
C395   O436    1.394   .     S
C395   C311    1.405   1_655 S
C397   C100    1.326   1_565 S
C397   H129    1.088   1_565 S
C398   O442    1.296   .     A
C398   O440    1.296   .     A
C399   O443    1.301   .     A
C399   O441    1.299   .     A
C400   H426    1.085   .     S
Cu401  O443    1.950   .     S
Cu401  Cu402   2.699   .     S
Cu401  N432    2.028   .     S
Cu401  O440    1.972   .     S
Cu401  O433    1.939   .     S
Cu401  O439    1.933   .     S
Cu402  N431    2.028   .     S
Cu402  O438    1.933   .     S
Cu402  O442    1.950   .     S
Cu402  O437    1.939   .     S
Cu402  O441    1.972   .     S
H405   C91     1.111   1_565 S
H415   C835    1.105   .     S
H422   N875    1.029   .     S
H423   N1320   1.029   1_554 S
H424   C100    1.088   1_565 S
H429   C90     1.111   1_565 S
N431   H1310   1.029   1_554 S
N431   N1320   1.300   1_554 S
N432   N875    1.300   .     S
N432   H867    1.029   .     S
O436   C96     1.415   1_565 S
C445   O507    1.294   .     A
C445   C470    1.424   .     S
C445   O512    1.289   .     A
C446   C448    1.387   .     A
C446   H501    1.086   .     S
C446   C457    1.389   .     A
C447   C474    1.394   .     A
C447   C473    1.460   .     S
C447   C449    1.413   .     A
C448   C472    1.443   .     S
C448   C450    1.405   .     A
C449   O518    1.394   .     S
C449   C451    1.424   .     A
C450   O508    1.386   .     S
C450   C452    1.412   .     A
C451   C453    1.421   .     A
C451   C458    1.413   .     A
C452   C459    1.402   .     A
C452   C454    1.414   .     A
C453   C455    1.415   .     A
C453   C528    1.408   .     S
C454   C457    1.411   .     A
C454   C527    1.408   1_455 S
C455   C469    1.412   .     A
C455   C474    1.394   .     A
C456   O513    1.286   .     A
C456   O511    1.295   .     A
C456   C471    1.419   .     S
C457   C467    1.396   .     A
C458   H477    1.070   .     S
C458   C541    1.395   .     S
C459   H488    1.078   .     S
C459   C543    1.405   1_455 S
C460   H502    1.106   .     S
C460   O518    1.418   .     S
C460   C461    1.503   .     S
C460   H799    1.111   1_545 S
C461   H478    1.109   .     S
C461   H504    1.109   .     S
C461   H775    1.111   1_545 S
C462   O508    1.411   .     S
C462   H481    1.112   .     S
C462   H480    1.111   .     S
C462   C611    1.522   .     S
C463   H482    1.110   .     S
C463   H483    1.111   .     S
C463   H484    1.110   .     S
C463   C758    1.522   1_545 S
C464   H486    1.110   .     S
C464   C465    1.523   .     S
C464   H633    1.114   .     S
C464   O657    1.406   .     S
C465   H490    1.111   .     S
C465   H487    1.111   .     S
C466   H491    1.113   .     S
C466   C468    1.524   .     S
C466   H566    1.109   .     S
C466   O806    1.415   1_545 S
C467   O509    1.387   .     S
C467   C532    1.395   1_455 S
C468   H495    1.109   .     S
C468   H494    1.110   .     S
C468   H493    1.107   .     S
C469   O510    1.394   .     S
C469   C533    1.405   .     S
C470   C767    1.326   1_545 S
C470   H794    1.088   1_545 S
C471   C618    1.326   .     S
C471   H647    1.088   .     S
C472   O516    1.296   .     A
C472   O514    1.296   .     A
C473   O517    1.301   .     A
C473   O515    1.299   .     A
C474   H500    1.085   .     S
Cu475  O517    1.950   .     S
Cu475  Cu476   2.699   .     S
Cu475  N506    2.028   .     S
Cu475  O514    1.972   .     S
Cu475  O507    1.939   .     S
Cu475  O513    1.933   .     S
Cu476  N505    2.028   .     S
Cu476  O512    1.933   .     S
Cu476  O516    1.950   .     S
Cu476  O511    1.939   .     S
Cu476  O515    1.972   .     S
H479   C609    1.111   .     S
H485   C760    1.114   1_545 S
H489   C909    1.105   .     S
H492   C540    1.109   1_455 S
H496   N949    1.029   .     S
H498   C618    1.088   .     S
H499   C767    1.088   1_545 S
H503   C608    1.111   .     S
N506   N949    1.300   .     S
N506   H941    1.029   .     S
O509   C760    1.406   1_545 S
O510   C614    1.415   .     S
C519   O581    1.294   .     A
C519   C544    1.424   .     S
C519   O586    1.289   .     A
C520   C522    1.387   .     A
C520   H575    1.086   .     S
C520   C531    1.389   .     A
C521   C548    1.394   .     A
C521   C547    1.460   .     S
C521   C523    1.413   .     A
C522   C546    1.443   .     S
C522   C524    1.405   .     A
C523   O592    1.394   .     S
C523   C525    1.424   .     A
C524   O582    1.386   .     S
C524   C526    1.412   .     A
C525   C527    1.421   .     A
C525   C532    1.413   .     A
C526   C533    1.402   .     A
C526   C528    1.414   .     A
C527   C529    1.415   .     A
C527   C454    1.408   1_655 S
C528   C531    1.411   .     A
C529   C543    1.412   .     A
C529   C548    1.394   .     A
C530   O587    1.286   .     A
C530   O585    1.295   .     A
C530   C545    1.419   .     S
C531   C541    1.396   .     A
C532   H551    1.070   .     S
C532   C467    1.395   1_655 S
C533   H562    1.078   .     S
C534   H576    1.106   .     S
C534   O592    1.418   .     S
C534   C535    1.503   .     S
C534   H873    1.111   1_545 S
C535   H552    1.109   .     S
C535   H578    1.109   .     S
C535   H849    1.111   1_545 S
C536   O582    1.411   .     S
C536   H555    1.112   .     S
C536   H554    1.111   .     S
C536   C685    1.522   .     S
C537   H556    1.110   .     S
C537   H557    1.111   .     S
C537   H558    1.110   .     S
C537   C832    1.522   1_545 S
C538   H560    1.110   .     S
C538   C539    1.523   .     S
C538   H707    1.114   .     S
C538   O731    1.406   .     S
C539   H564    1.111   .     S
C539   H561    1.111   .     S
C540   H565    1.113   .     S
C540   C542    1.524   .     S
C540   H492    1.109   1_655 S
C540   O880    1.415   1_545 S
C541   O583    1.387   .     S
C542   H569    1.109   .     S
C542   H568    1.110   .     S
C542   H567    1.107   .     S
C543   O584    1.394   .     S
C543   C459    1.405   1_655 S
C544   C841    1.326   1_545 S
C544   H868    1.088   1_545 S
C545   C692    1.326   .     S
C545   H721    1.088   .     S
C546   O590    1.296   .     A
C546   O588    1.296   .     A
C547   O591    1.301   .     A
C547   O589    1.299   .     A
C548   H574    1.085   .     S
Cu549  O591    1.950   .     S
Cu549  Cu550   2.699   .     S
Cu549  N580    2.028   .     S
Cu549  O588    1.972   .     S
Cu549  O581    1.939   .     S
Cu549  O587    1.933   .     S
Cu550  N579    2.028   .     S
Cu550  O586    1.933   .     S
Cu550  O590    1.950   .     S
Cu550  O585    1.939   .     S
Cu550  O589    1.972   .     S
H553   C683    1.111   .     S
H559   C834    1.114   1_545 S
H563   C983    1.105   .     S
H570   N1023   1.029   .     S
H572   C692    1.088   .     S
H573   C841    1.088   1_545 S
H577   C682    1.111   .     S
N580   N1023   1.300   .     S
N580   H1015   1.029   .     S
O583   C834    1.406   1_545 S
O584   C688    1.415   .     S
C593   O655    1.294   .     A
C593   C618    1.424   .     S
C593   O660    1.289   .     A
C594   C596    1.387   .     A
C594   H649    1.086   .     S
C594   C605    1.389   .     A
C595   C622    1.394   .     A
C595   C621    1.460   .     S
C595   C597    1.413   .     A
C596   C620    1.443   .     S
C596   C598    1.405   .     A
C597   O666    1.394   .     S
C597   C599    1.424   .     A
C598   O656    1.386   .     S
C598   C600    1.412   .     A
C599   C601    1.421   .     A
C599   C606    1.413   .     A
C600   C607    1.402   .     A
C600   C602    1.414   .     A
C601   C603    1.415   .     A
C601   C676    1.408   .     S
C602   C605    1.411   .     A
C602   C675    1.408   1_455 S
C603   C617    1.412   .     A
C603   C622    1.394   .     A
C604   O661    1.286   .     A
C604   O659    1.295   .     A
C604   C619    1.419   .     S
C605   C615    1.396   .     A
C606   H625    1.070   .     S
C606   C689    1.395   .     S
C607   H636    1.078   .     S
C607   C691    1.405   1_455 S
C608   H650    1.106   .     S
C608   O666    1.418   .     S
C608   C609    1.503   .     S
C609   H626    1.109   .     S
C609   H652    1.109   .     S
C610   O656    1.411   .     S
C610   H629    1.112   .     S
C610   H628    1.111   .     S
C610   C759    1.522   .     S
C611   H630    1.110   .     S
C611   H631    1.111   .     S
C611   H632    1.110   .     S
C612   H634    1.110   .     S
C612   C613    1.523   .     S
C612   H781    1.114   .     S
C612   O805    1.406   .     S
C613   H638    1.111   .     S
C613   H635    1.111   .     S
C614   H639    1.113   .     S
C614   C616    1.524   .     S
C614   H714    1.109   .     S
C615   O657    1.387   .     S
C615   C680    1.395   1_455 S
C616   H643    1.109   .     S
C616   H642    1.110   .     S
C616   H641    1.107   .     S
C617   O658    1.394   .     S
C617   C681    1.405   .     S
C619   C766    1.326   .     S
C619   H795    1.088   .     S
C620   O664    1.296   .     A
C620   O662    1.296   .     A
C621   O665    1.301   .     A
C621   O663    1.299   .     A
C622   H648    1.085   .     S
Cu623  O665    1.950   .     S
Cu623  Cu624   2.699   .     S
Cu623  N654    2.028   .     S
Cu623  O662    1.972   .     S
Cu623  O655    1.939   .     S
Cu623  O661    1.933   .     S
Cu624  N653    2.028   .     S
Cu624  O660    1.933   .     S
Cu624  O664    1.950   .     S
Cu624  O659    1.939   .     S
Cu624  O663    1.972   .     S
H627   C757    1.111   .     S
H637   C1057   1.105   .     S
H640   C688    1.109   1_455 S
H644   N1097   1.029   .     S
H646   C766    1.088   .     S
H651   C756    1.111   .     S
N654   N1097   1.300   .     S
N654   H1089   1.029   .     S
O658   C762    1.415   .     S
C667   O729    1.294   .     A
C667   C692    1.424   .     S
C667   O734    1.289   .     A
C668   C670    1.387   .     A
C668   H723    1.086   .     S
C668   C679    1.389   .     A
C669   C696    1.394   .     A
C669   C695    1.460   .     S
C669   C671    1.413   .     A
C670   C694    1.443   .     S
C670   C672    1.405   .     A
C671   O740    1.394   .     S
C671   C673    1.424   .     A
C672   O730    1.386   .     S
C672   C674    1.412   .     A
C673   C675    1.421   .     A
C673   C680    1.413   .     A
C674   C681    1.402   .     A
C674   C676    1.414   .     A
C675   C677    1.415   .     A
C675   C602    1.408   1_655 S
C676   C679    1.411   .     A
C677   C691    1.412   .     A
C677   C696    1.394   .     A
C678   O735    1.286   .     A
C678   O733    1.295   .     A
C678   C693    1.419   .     S
C679   C689    1.396   .     A
C680   H699    1.070   .     S
C680   C615    1.395   1_655 S
C681   H710    1.078   .     S
C682   H724    1.106   .     S
C682   O740    1.418   .     S
C682   C683    1.503   .     S
C683   H700    1.109   .     S
C683   H726    1.109   .     S
C684   O730    1.411   .     S
C684   H703    1.112   .     S
C684   H702    1.111   .     S
C684   C833    1.522   .     S
C685   H704    1.110   .     S
C685   H705    1.111   .     S
C685   H706    1.110   .     S
C686   H708    1.110   .     S
C686   C687    1.523   .     S
C686   H855    1.114   .     S
C686   O879    1.406   .     S
C687   H712    1.111   .     S
C687   H709    1.111   .     S
C688   H713    1.113   .     S
C688   C690    1.524   .     S
C688   H640    1.109   1_655 S
C689   O731    1.387   .     S
C690   H717    1.109   .     S
C690   H716    1.110   .     S
C690   H715    1.107   .     S
C691   O732    1.394   .     S
C691   C607    1.405   1_655 S
C693   C840    1.326   .     S
C693   H869    1.088   .     S
C694   O738    1.296   .     A
C694   O736    1.296   .     A
C695   O739    1.301   .     A
C695   O737    1.299   .     A
C696   H722    1.085   .     S
Cu697  O739    1.950   .     S
Cu697  Cu698   2.699   .     S
Cu697  N728    2.028   .     S
Cu697  O736    1.972   .     S
Cu697  O729    1.939   .     S
Cu697  O735    1.933   .     S
Cu698  N727    2.028   .     S
Cu698  O734    1.933   .     S
Cu698  O738    1.950   .     S
Cu698  O733    1.939   .     S
Cu698  O737    1.972   .     S
H701   C831    1.111   .     S
H711   C1131   1.105   .     S
H718   N1171   1.029   .     S
H720   C840    1.088   .     S
H725   C830    1.111   .     S
N728   N1171   1.300   .     S
N728   H1163   1.029   .     S
O732   C836    1.415   .     S
C741   O803    1.294   .     A
C741   C766    1.424   .     S
C741   O808    1.289   .     A
C742   C744    1.387   .     A
C742   H797    1.086   .     S
C742   C753    1.389   .     A
C743   C770    1.394   .     A
C743   C769    1.460   .     S
C743   C745    1.413   .     A
C744   C768    1.443   .     S
C744   C746    1.405   .     A
C745   O814    1.394   .     S
C745   C747    1.424   .     A
C746   O804    1.386   .     S
C746   C748    1.412   .     A
C747   C749    1.421   .     A
C747   C754    1.413   .     A
C748   C755    1.402   .     A
C748   C750    1.414   .     A
C749   C751    1.415   .     A
C749   C824    1.408   .     S
C750   C753    1.411   .     A
C750   C823    1.408   1_455 S
C751   C765    1.412   .     A
C751   C770    1.394   .     A
C752   O809    1.286   .     A
C752   O807    1.295   .     A
C752   C767    1.419   .     S
C753   C763    1.396   .     A
C754   H773    1.070   .     S
C754   C837    1.395   .     S
C755   H784    1.078   .     S
C755   C839    1.405   1_455 S
C756   H798    1.106   .     S
C756   O814    1.418   .     S
C756   C757    1.503   .     S
C757   H774    1.109   .     S
C757   H800    1.109   .     S
C758   O804    1.411   .     S
C758   H777    1.112   .     S
C758   H776    1.111   .     S
C758   C463    1.522   1_565 S
C759   H778    1.110   .     S
C759   H779    1.111   .     S
C759   H780    1.110   .     S
C760   H782    1.110   .     S
C760   C761    1.523   .     S
C760   H485    1.114   1_565 S
C760   O509    1.406   1_565 S
C761   H786    1.111   .     S
C761   H783    1.111   .     S
C762   H787    1.113   .     S
C762   C764    1.524   .     S
C762   H862    1.109   .     S
C763   O805    1.387   .     S
C763   C828    1.395   1_455 S
C764   H791    1.109   .     S
C764   H790    1.110   .     S
C764   H789    1.107   .     S
C765   O806    1.394   .     S
C765   C829    1.405   .     S
C767   C470    1.326   1_565 S
C767   H499    1.088   1_565 S
C768   O812    1.296   .     A
C768   O810    1.296   .     A
C769   O813    1.301   .     A
C769   O811    1.299   .     A
C770   H796    1.085   .     S
Cu771  O813    1.950   .     S
Cu771  Cu772   2.699   .     S
Cu771  N802    2.028   .     S
Cu771  O810    1.972   .     S
Cu771  O803    1.939   .     S
Cu771  O809    1.933   .     S
Cu772  N801    2.028   .     S
Cu772  O808    1.933   .     S
Cu772  O812    1.950   .     S
Cu772  O807    1.939   .     S
Cu772  O811    1.972   .     S
H775   C461    1.111   1_565 S
H785   C1205   1.105   .     S
H788   C836    1.109   1_455 S
H792   N1245   1.029   .     S
H794   C470    1.088   1_565 S
H799   C460    1.111   1_565 S
N802   N1245   1.300   .     S
N802   H1237   1.029   .     S
O806   C466    1.415   1_565 S
C815   O877    1.294   .     A
C815   C840    1.424   .     S
C815   O882    1.289   .     A
C816   C818    1.387   .     A
C816   H871    1.086   .     S
C816   C827    1.389   .     A
C817   C844    1.394   .     A
C817   C843    1.460   .     S
C817   C819    1.413   .     A
C818   C842    1.443   .     S
C818   C820    1.405   .     A
C819   O888    1.394   .     S
C819   C821    1.424   .     A
C820   O878    1.386   .     S
C820   C822    1.412   .     A
C821   C823    1.421   .     A
C821   C828    1.413   .     A
C822   C829    1.402   .     A
C822   C824    1.414   .     A
C823   C825    1.415   .     A
C823   C750    1.408   1_655 S
C824   C827    1.411   .     A
C825   C839    1.412   .     A
C825   C844    1.394   .     A
C826   O883    1.286   .     A
C826   O881    1.295   .     A
C826   C841    1.419   .     S
C827   C837    1.396   .     A
C828   H847    1.070   .     S
C828   C763    1.395   1_655 S
C829   H858    1.078   .     S
C830   H872    1.106   .     S
C830   O888    1.418   .     S
C830   C831    1.503   .     S
C831   H848    1.109   .     S
C831   H874    1.109   .     S
C832   O878    1.411   .     S
C832   H851    1.112   .     S
C832   H850    1.111   .     S
C832   C537    1.522   1_565 S
C833   H852    1.110   .     S
C833   H853    1.111   .     S
C833   H854    1.110   .     S
C834   H856    1.110   .     S
C834   C835    1.523   .     S
C834   H559    1.114   1_565 S
C834   O583    1.406   1_565 S
C835   H860    1.111   .     S
C835   H857    1.111   .     S
C836   H861    1.113   .     S
C836   C838    1.524   .     S
C836   H788    1.109   1_655 S
C837   O879    1.387   .     S
C838   H865    1.109   .     S
C838   H864    1.110   .     S
C838   H863    1.107   .     S
C839   O880    1.394   .     S
C839   C755    1.405   1_655 S
C841   C544    1.326   1_565 S
C841   H573    1.088   1_565 S
C842   O886    1.296   .     A
C842   O884    1.296   .     A
C843   O887    1.301   .     A
C843   O885    1.299   .     A
C844   H870    1.085   .     S
Cu845  O887    1.950   .     S
Cu845  Cu846   2.699   .     S
Cu845  N876    2.028   .     S
Cu845  O884    1.972   .     S
Cu845  O877    1.939   .     S
Cu845  O883    1.933   .     S
Cu846  N875    2.028   .     S
Cu846  O882    1.933   .     S
Cu846  O886    1.950   .     S
Cu846  O881    1.939   .     S
Cu846  O885    1.972   .     S
H849   C535    1.111   1_565 S
H859   C1279   1.105   .     S
H866   N1319   1.029   .     S
H868   C544    1.088   1_565 S
H873   C534    1.111   1_565 S
N876   N1319   1.300   .     S
N876   H1311   1.029   .     S
O880   C540    1.415   1_565 S
C889   O951    1.294   .     A
C889   C914    1.424   .     S
C889   O956    1.289   .     A
C890   C892    1.387   .     A
C890   H945    1.086   .     S
C890   C901    1.389   .     A
C891   C918    1.394   .     A
C891   C917    1.460   .     S
C891   C893    1.413   .     A
C892   C916    1.443   .     S
C892   C894    1.405   .     A
C893   O962    1.394   .     S
C893   C895    1.424   .     A
C894   O952    1.386   .     S
C894   C896    1.412   .     A
C895   C897    1.421   .     A
C895   C902    1.413   .     A
C896   C903    1.402   .     A
C896   C898    1.414   .     A
C897   C899    1.415   .     A
C897   C972    1.408   .     S
C898   C901    1.411   .     A
C898   C971    1.408   1_455 S
C899   C913    1.412   .     A
C899   C918    1.394   .     A
C900   O957    1.286   .     A
C900   O955    1.295   .     A
C900   C915    1.419   .     S
C901   C911    1.396   .     A
C902   H921    1.070   .     S
C902   C985    1.395   .     S
C903   H932    1.078   .     S
C903   C987    1.405   1_455 S
C904   H946    1.106   .     S
C904   O962    1.418   .     S
C904   C905    1.503   .     S
C904   H1243   1.111   1_545 S
C905   H922    1.109   .     S
C905   H948    1.109   .     S
C905   H1219   1.111   1_545 S
C906   O952    1.411   .     S
C906   H925    1.112   .     S
C906   H924    1.111   .     S
C906   C1055   1.522   .     S
C907   H926    1.110   .     S
C907   H927    1.111   .     S
C907   H928    1.110   .     S
C907   C1202   1.522   1_545 S
C908   H930    1.110   .     S
C908   C909    1.523   .     S
C908   H1077   1.114   .     S
C908   O1101   1.406   .     S
C909   H934    1.111   .     S
C909   H931    1.111   .     S
C910   H935    1.113   .     S
C910   C912    1.524   .     S
C910   H1010   1.109   .     S
C910   O1250   1.415   1_545 S
C911   O953    1.387   .     S
C911   C976    1.395   1_455 S
C912   H939    1.109   .     S
C912   H938    1.110   .     S
C912   H937    1.107   .     S
C913   O954    1.394   .     S
C913   C977    1.405   .     S
C914   C1211   1.326   1_545 S
C914   H1238   1.088   1_545 S
C915   C1062   1.326   .     S
C915   H1091   1.088   .     S
C916   O960    1.296   .     A
C916   O958    1.296   .     A
C917   O961    1.301   .     A
C917   O959    1.299   .     A
C918   H944    1.085   .     S
Cu919  O961    1.950   .     S
Cu919  Cu920   2.699   .     S
Cu919  N950    2.028   .     S
Cu919  O958    1.972   .     S
Cu919  O951    1.939   .     S
Cu919  O957    1.933   .     S
Cu920  N949    2.028   .     S
Cu920  O956    1.933   .     S
Cu920  O960    1.950   .     S
Cu920  O955    1.939   .     S
Cu920  O959    1.972   .     S
H923   C1053   1.111   .     S
H929   C1204   1.114   1_545 S
H933   C21     1.105   1_556 S
H936   C984    1.109   1_455 S
H940   N61     1.029   1_556 S
H942   C1062   1.088   .     S
H943   C1211   1.088   1_545 S
H947   C1052   1.111   .     S
N950   N61     1.300   1_556 S
N950   H53     1.029   1_556 S
O953   C1204   1.406   1_545 S
O954   C1058   1.415   .     S
C963   O1025   1.294   .     A
C963   C988    1.424   .     S
C963   O1030   1.289   .     A
C964   C966    1.387   .     A
C964   H1019   1.086   .     S
C964   C975    1.389   .     A
C965   C992    1.394   .     A
C965   C991    1.460   .     S
C965   C967    1.413   .     A
C966   C990    1.443   .     S
C966   C968    1.405   .     A
C967   O1036   1.394   .     S
C967   C969    1.424   .     A
C968   O1026   1.386   .     S
C968   C970    1.412   .     A
C969   C971    1.421   .     A
C969   C976    1.413   .     A
C970   C977    1.402   .     A
C970   C972    1.414   .     A
C971   C973    1.415   .     A
C971   C898    1.408   1_655 S
C972   C975    1.411   .     A
C973   C987    1.412   .     A
C973   C992    1.394   .     A
C974   O1031   1.286   .     A
C974   O1029   1.295   .     A
C974   C989    1.419   .     S
C975   C985    1.396   .     A
C976   H995    1.070   .     S
C976   C911    1.395   1_655 S
C977   H1006   1.078   .     S
C978   H1020   1.106   .     S
C978   O1036   1.418   .     S
C978   C979    1.503   .     S
C978   H1317   1.111   1_545 S
C979   H996    1.109   .     S
C979   H1022   1.109   .     S
C979   H1293   1.111   1_545 S
C980   O1026   1.411   .     S
C980   H999    1.112   .     S
C980   H998    1.111   .     S
C980   C1129   1.522   .     S
C981   H1000   1.110   .     S
C981   H1001   1.111   .     S
C981   H1002   1.110   .     S
C981   C1276   1.522   1_545 S
C982   H1004   1.110   .     S
C982   C983    1.523   .     S
C982   H1151   1.114   .     S
C982   O1175   1.406   .     S
C983   H1008   1.111   .     S
C983   H1005   1.111   .     S
C984   H1009   1.113   .     S
C984   C986    1.524   .     S
C984   H936    1.109   1_655 S
C984   O1324   1.415   1_545 S
C985   O1027   1.387   .     S
C986   H1013   1.109   .     S
C986   H1012   1.110   .     S
C986   H1011   1.107   .     S
C987   O1028   1.394   .     S
C987   C903    1.405   1_655 S
C988   C1285   1.326   1_545 S
C988   H1312   1.088   1_545 S
C989   C1136   1.326   .     S
C989   H1165   1.088   .     S
C990   O1034   1.296   .     A
C990   O1032   1.296   .     A
C991   O1035   1.301   .     A
C991   O1033   1.299   .     A
C992   H1018   1.085   .     S
Cu993  O1035   1.950   .     S
Cu993  Cu994   2.699   .     S
Cu993  N1024   2.028   .     S
Cu993  O1032   1.972   .     S
Cu993  O1025   1.939   .     S
Cu993  O1031   1.933   .     S
Cu994  N1023   2.028   .     S
Cu994  O1030   1.933   .     S
Cu994  O1034   1.950   .     S
Cu994  O1029   1.939   .     S
Cu994  O1033   1.972   .     S
H997   C1127   1.111   .     S
H1003  C1278   1.114   1_545 S
H1007  C95     1.105   1_556 S
H1014  N135    1.029   1_556 S
H1016  C1136   1.088   .     S
H1017  C1285   1.088   1_545 S
H1021  C1126   1.111   .     S
N1024  N135    1.300   1_556 S
N1024  H127    1.029   1_556 S
O1027  C1278   1.406   1_545 S
O1028  C1132   1.415   .     S
C1037  O1099   1.294   .     A
C1037  C1062   1.424   .     S
C1037  O1104   1.289   .     A
C1038  C1040   1.387   .     A
C1038  H1093   1.086   .     S
C1038  C1049   1.389   .     A
C1039  C1066   1.394   .     A
C1039  C1065   1.460   .     S
C1039  C1041   1.413   .     A
C1040  C1064   1.443   .     S
C1040  C1042   1.405   .     A
C1041  O1110   1.394   .     S
C1041  C1043   1.424   .     A
C1042  O1100   1.386   .     S
C1042  C1044   1.412   .     A
C1043  C1045   1.421   .     A
C1043  C1050   1.413   .     A
C1044  C1051   1.402   .     A
C1044  C1046   1.414   .     A
C1045  C1047   1.415   .     A
C1045  C1120   1.408   .     S
C1046  C1049   1.411   .     A
C1046  C1119   1.408   1_455 S
C1047  C1061   1.412   .     A
C1047  C1066   1.394   .     A
C1048  O1105   1.286   .     A
C1048  O1103   1.295   .     A
C1048  C1063   1.419   .     S
C1049  C1059   1.396   .     A
C1050  H1069   1.070   .     S
C1050  C1133   1.395   .     S
C1051  H1080   1.078   .     S
C1051  C1135   1.405   1_455 S
C1052  H1094   1.106   .     S
C1052  O1110   1.418   .     S
C1052  C1053   1.503   .     S
C1053  H1070   1.109   .     S
C1053  H1096   1.109   .     S
C1054  O1100   1.411   .     S
C1054  H1073   1.112   .     S
C1054  H1072   1.111   .     S
C1054  C1203   1.522   .     S
C1055  H1074   1.110   .     S
C1055  H1075   1.111   .     S
C1055  H1076   1.110   .     S
C1056  H1078   1.110   .     S
C1056  C1057   1.523   .     S
C1056  H1225   1.114   .     S
C1056  O1249   1.406   .     S
C1057  H1082   1.111   .     S
C1057  H1079   1.111   .     S
C1058  H1083   1.113   .     S
C1058  C1060   1.524   .     S
C1058  H1158   1.109   .     S
C1059  O1101   1.387   .     S
C1059  C1124   1.395   1_455 S
C1060  H1087   1.109   .     S
C1060  H1086   1.110   .     S
C1060  H1085   1.107   .     S
C1061  O1102   1.394   .     S
C1061  C1125   1.405   .     S
C1063  C1210   1.326   .     S
C1063  H1239   1.088   .     S
C1064  O1108   1.296   .     A
C1064  O1106   1.296   .     A
C1065  O1109   1.301   .     A
C1065  O1107   1.299   .     A
C1066  H1092   1.085   .     S
Cu1067 O1109   1.950   .     S
Cu1067 Cu1068  2.699   .     S
Cu1067 N1098   2.028   .     S
Cu1067 O1106   1.972   .     S
Cu1067 O1099   1.939   .     S
Cu1067 O1105   1.933   .     S
Cu1068 N1097   2.028   .     S
Cu1068 O1104   1.933   .     S
Cu1068 O1108   1.950   .     S
Cu1068 O1103   1.939   .     S
Cu1068 O1107   1.972   .     S
H1071  C1201   1.111   .     S
H1081  C169    1.105   1_556 S
H1084  C1132   1.109   1_455 S
H1088  N209    1.029   1_556 S
H1090  C1210   1.088   .     S
H1095  C1200   1.111   .     S
N1098  N209    1.300   1_556 S
N1098  H201    1.029   1_556 S
O1102  C1206   1.415   .     S
C1111  O1173   1.294   .     A
C1111  C1136   1.424   .     S
C1111  O1178   1.289   .     A
C1112  C1114   1.387   .     A
C1112  H1167   1.086   .     S
C1112  C1123   1.389   .     A
C1113  C1140   1.394   .     A
C1113  C1139   1.460   .     S
C1113  C1115   1.413   .     A
C1114  C1138   1.443   .     S
C1114  C1116   1.405   .     A
C1115  O1184   1.394   .     S
C1115  C1117   1.424   .     A
C1116  O1174   1.386   .     S
C1116  C1118   1.412   .     A
C1117  C1119   1.421   .     A
C1117  C1124   1.413   .     A
C1118  C1125   1.402   .     A
C1118  C1120   1.414   .     A
C1119  C1121   1.415   .     A
C1119  C1046   1.408   1_655 S
C1120  C1123   1.411   .     A
C1121  C1135   1.412   .     A
C1121  C1140   1.394   .     A
C1122  O1179   1.286   .     A
C1122  O1177   1.295   .     A
C1122  C1137   1.419   .     S
C1123  C1133   1.396   .     A
C1124  H1143   1.070   .     S
C1124  C1059   1.395   1_655 S
C1125  H1154   1.078   .     S
C1126  H1168   1.106   .     S
C1126  O1184   1.418   .     S
C1126  C1127   1.503   .     S
C1127  H1144   1.109   .     S
C1127  H1170   1.109   .     S
C1128  O1174   1.411   .     S
C1128  H1147   1.112   .     S
C1128  H1146   1.111   .     S
C1128  C1277   1.522   .     S
C1129  H1148   1.110   .     S
C1129  H1149   1.111   .     S
C1129  H1150   1.110   .     S
C1130  H1152   1.110   .     S
C1130  C1131   1.523   .     S
C1130  H1299   1.114   .     S
C1130  O1323   1.406   .     S
C1131  H1156   1.111   .     S
C1131  H1153   1.111   .     S
C1132  H1157   1.113   .     S
C1132  C1134   1.524   .     S
C1132  H1084   1.109   1_655 S
C1133  O1175   1.387   .     S
C1134  H1161   1.109   .     S
C1134  H1160   1.110   .     S
C1134  H1159   1.107   .     S
C1135  O1176   1.394   .     S
C1135  C1051   1.405   1_655 S
C1137  C1284   1.326   .     S
C1137  H1313   1.088   .     S
C1138  O1182   1.296   .     A
C1138  O1180   1.296   .     A
C1139  O1183   1.301   .     A
C1139  O1181   1.299   .     A
C1140  H1166   1.085   .     S
Cu1141 O1183   1.950   .     S
Cu1141 Cu1142  2.699   .     S
Cu1141 N1172   2.028   .     S
Cu1141 O1180   1.972   .     S
Cu1141 O1173   1.939   .     S
Cu1141 O1179   1.933   .     S
Cu1142 N1171   2.028   .     S
Cu1142 O1178   1.933   .     S
Cu1142 O1182   1.950   .     S
Cu1142 O1177   1.939   .     S
Cu1142 O1181   1.972   .     S
H1145  C1275   1.111   .     S
H1155  C243    1.105   1_556 S
H1162  N283    1.029   1_556 S
H1164  C1284   1.088   .     S
H1169  C1274   1.111   .     S
N1172  N283    1.300   1_556 S
N1172  H275    1.029   1_556 S
O1176  C1280   1.415   .     S
C1185  O1247   1.294   .     A
C1185  C1210   1.424   .     S
C1185  O1252   1.289   .     A
C1186  C1188   1.387   .     A
C1186  H1241   1.086   .     S
C1186  C1197   1.389   .     A
C1187  C1214   1.394   .     A
C1187  C1213   1.460   .     S
C1187  C1189   1.413   .     A
C1188  C1212   1.443   .     S
C1188  C1190   1.405   .     A
C1189  O1258   1.394   .     S
C1189  C1191   1.424   .     A
C1190  O1248   1.386   .     S
C1190  C1192   1.412   .     A
C1191  C1193   1.421   .     A
C1191  C1198   1.413   .     A
C1192  C1199   1.402   .     A
C1192  C1194   1.414   .     A
C1193  C1195   1.415   .     A
C1193  C1268   1.408   .     S
C1194  C1197   1.411   .     A
C1194  C1267   1.408   1_455 S
C1195  C1209   1.412   .     A
C1195  C1214   1.394   .     A
C1196  O1253   1.286   .     A
C1196  O1251   1.295   .     A
C1196  C1211   1.419   .     S
C1197  C1207   1.396   .     A
C1198  H1217   1.070   .     S
C1198  C1281   1.395   .     S
C1199  H1228   1.078   .     S
C1199  C1283   1.405   1_455 S
C1200  H1242   1.106   .     S
C1200  O1258   1.418   .     S
C1200  C1201   1.503   .     S
C1201  H1218   1.109   .     S
C1201  H1244   1.109   .     S
C1202  O1248   1.411   .     S
C1202  H1221   1.112   .     S
C1202  H1220   1.111   .     S
C1202  C907    1.522   1_565 S
C1203  H1222   1.110   .     S
C1203  H1223   1.111   .     S
C1203  H1224   1.110   .     S
C1204  H1226   1.110   .     S
C1204  C1205   1.523   .     S
C1204  H929    1.114   1_565 S
C1204  O953    1.406   1_565 S
C1205  H1230   1.111   .     S
C1205  H1227   1.111   .     S
C1206  H1231   1.113   .     S
C1206  C1208   1.524   .     S
C1206  H1306   1.109   .     S
C1207  O1249   1.387   .     S
C1207  C1272   1.395   1_455 S
C1208  H1235   1.109   .     S
C1208  H1234   1.110   .     S
C1208  H1233   1.107   .     S
C1209  O1250   1.394   .     S
C1209  C1273   1.405   .     S
C1211  C914    1.326   1_565 S
C1211  H943    1.088   1_565 S
C1212  O1256   1.296   .     A
C1212  O1254   1.296   .     A
C1213  O1257   1.301   .     A
C1213  O1255   1.299   .     A
C1214  H1240   1.085   .     S
Cu1215 O1257   1.950   .     S
Cu1215 Cu1216  2.699   .     S
Cu1215 N1246   2.028   .     S
Cu1215 O1254   1.972   .     S
Cu1215 O1247   1.939   .     S
Cu1215 O1253   1.933   .     S
Cu1216 N1245   2.028   .     S
Cu1216 O1252   1.933   .     S
Cu1216 O1256   1.950   .     S
Cu1216 O1251   1.939   .     S
Cu1216 O1255   1.972   .     S
H1219  C905    1.111   1_565 S
H1229  C317    1.105   1_556 S
H1232  C1280   1.109   1_455 S
H1236  N357    1.029   1_556 S
H1238  C914    1.088   1_565 S
H1243  C904    1.111   1_565 S
N1246  N357    1.300   1_556 S
N1246  H349    1.029   1_556 S
O1250  C910    1.415   1_565 S
C1259  O1321   1.294   .     A
C1259  C1284   1.424   .     S
C1259  O1326   1.289   .     A
C1260  C1262   1.387   .     A
C1260  H1315   1.086   .     S
C1260  C1271   1.389   .     A
C1261  C1288   1.394   .     A
C1261  C1287   1.460   .     S
C1261  C1263   1.413   .     A
C1262  C1286   1.443   .     S
C1262  C1264   1.405   .     A
C1263  O1332   1.394   .     S
C1263  C1265   1.424   .     A
C1264  O1322   1.386   .     S
C1264  C1266   1.412   .     A
C1265  C1267   1.421   .     A
C1265  C1272   1.413   .     A
C1266  C1273   1.402   .     A
C1266  C1268   1.414   .     A
C1267  C1269   1.415   .     A
C1267  C1194   1.408   1_655 S
C1268  C1271   1.411   .     A
C1269  C1283   1.412   .     A
C1269  C1288   1.394   .     A
C1270  O1327   1.286   .     A
C1270  O1325   1.295   .     A
C1270  C1285   1.419   .     S
C1271  C1281   1.396   .     A
C1272  H1291   1.070   .     S
C1272  C1207   1.395   1_655 S
C1273  H1302   1.078   .     S
C1274  H1316   1.106   .     S
C1274  O1332   1.418   .     S
C1274  C1275   1.503   .     S
C1275  H1292   1.109   .     S
C1275  H1318   1.109   .     S
C1276  O1322   1.411   .     S
C1276  H1295   1.112   .     S
C1276  H1294   1.111   .     S
C1276  C981    1.522   1_565 S
C1277  H1296   1.110   .     S
C1277  H1297   1.111   .     S
C1277  H1298   1.110   .     S
C1278  H1300   1.110   .     S
C1278  C1279   1.523   .     S
C1278  H1003   1.114   1_565 S
C1278  O1027   1.406   1_565 S
C1279  H1304   1.111   .     S
C1279  H1301   1.111   .     S
C1280  H1305   1.113   .     S
C1280  C1282   1.524   .     S
C1280  H1232   1.109   1_655 S
C1281  O1323   1.387   .     S
C1282  H1309   1.109   .     S
C1282  H1308   1.110   .     S
C1282  H1307   1.107   .     S
C1283  O1324   1.394   .     S
C1283  C1199   1.405   1_655 S
C1285  C988    1.326   1_565 S
C1285  H1017   1.088   1_565 S
C1286  O1330   1.296   .     A
C1286  O1328   1.296   .     A
C1287  O1331   1.301   .     A
C1287  O1329   1.299   .     A
C1288  H1314   1.085   .     S
Cu1289 O1331   1.950   .     S
Cu1289 Cu1290  2.699   .     S
Cu1289 N1320   2.028   .     S
Cu1289 O1328   1.972   .     S
Cu1289 O1321   1.939   .     S
Cu1289 O1327   1.933   .     S
Cu1290 N1319   2.028   .     S
Cu1290 O1326   1.933   .     S
Cu1290 O1330   1.950   .     S
Cu1290 O1325   1.939   .     S
Cu1290 O1329   1.972   .     S
H1293  C979    1.111   1_565 S
H1303  C391    1.105   1_556 S
H1310  N431    1.029   1_556 S
H1312  C988    1.088   1_565 S
H1317  C978    1.111   1_565 S
N1320  N431    1.300   1_556 S
N1320  H423    1.029   1_556 S
O1324  C984    1.415   1_565 S
