data_str_m1_o1_o17_pcu_sym.138
_audit_creation_date              2020-01-03
_audit_creation_method            'Materials Studio'
_symmetry_space_group_name_H-M    'P1'
_symmetry_Int_Tables_number       1
_symmetry_cell_setting            triclinic
loop_
_symmetry_equiv_pos_as_xyz
  x,y,z
_cell_length_a                    36.5502
_cell_length_b                    36.5279
_cell_length_c                    34.3681
_cell_angle_alpha                 89.9535
_cell_angle_beta                  90.0346
_cell_angle_gamma                 89.9365
loop_
_atom_site_label
_atom_site_type_symbol
_atom_site_fract_x
_atom_site_fract_y
_atom_site_fract_z
_atom_site_U_iso_or_equiv
_atom_site_adp_type
_atom_site_occupancy
C1     C     0.01245   0.28104   0.41829   0.00000  Uiso   1.00
C2     C     0.24555   0.46659   0.08215   0.00000  Uiso   1.00
C3     C     0.21586   0.00188   0.54118   0.00000  Uiso   1.00
C4     C     0.00908   0.28244   0.45919   0.00000  Uiso   1.00
C5     C     0.49901   0.21606   0.54128   0.00000  Uiso   1.00
C6     C     0.21665   0.00819   0.45906   0.00000  Uiso   1.00
C7     C     0.28329   0.49889   0.54114   0.00000  Uiso   1.00
C8     C     0.23454   0.47008   0.95943   0.00000  Uiso   1.00
C9     C     0.25741   0.03291   0.04117   0.00000  Uiso   1.00
C10    C     0.02853   0.23226   0.95962   0.00000  Uiso   1.00
C11    C     0.46772   0.26010   0.04129   0.00000  Uiso   1.00
C12    C     0.26544   0.02991   0.95940   0.00000  Uiso   1.00
C13    C     0.47492   0.27212   0.91892   0.00000  Uiso   1.00
C14    C     0.24254   0.46708   0.04121   0.00000  Uiso   1.00
C15    C     0.47141   0.26771   0.95955   0.00000  Uiso   1.00
C16    C     0.03228   0.23994   0.04133   0.00000  Uiso   1.00
C17    C     0.09808   0.34800   0.24996   0.00000  Uiso   1.00
C18    C     0.40197   0.15191   0.74992   0.00000  Uiso   1.00
C19    C     0.15200   0.09807   0.24999   0.00000  Uiso   1.00
C20    C     0.34808   0.40198   0.74990   0.00000  Uiso   1.00
C21    C     0.40192   0.15200   0.24996   0.00000  Uiso   1.00
C22    C     0.09803   0.34808   0.74991   0.00000  Uiso   1.00
C23    C     0.34799   0.40192   0.24999   0.00000  Uiso   1.00
C24    C     0.03287   0.24248   0.08232   0.00000  Uiso   1.00
C25    C     0.15193   0.09804   0.74983   0.00000  Uiso   1.00
C26    C     0.09800   0.15194   0.74984   0.00000  Uiso   1.00
C27    C     0.40193   0.34804   0.24986   0.00000  Uiso   1.00
C28    C     0.15194   0.40198   0.74982   0.00000  Uiso   1.00
C29    C     0.34802   0.09810   0.24993   0.00000  Uiso   1.00
C30    C     0.40198   0.34805   0.74980   0.00000  Uiso   1.00
C31    C     0.09808   0.15197   0.24994   0.00000  Uiso   1.00
C32    C     0.34806   0.09803   0.74981   0.00000  Uiso   1.00
C33    C     0.15197   0.40190   0.24995   0.00000  Uiso   1.00
C34    C     0.00058   0.24975   0.47970   0.00000  Uiso   1.00
C35    C     0.23040   0.47289   0.91871   0.00000  Uiso   1.00
C36    C     0.00054   0.24977   0.52075   0.00000  Uiso   1.00
C37    C     0.24949   0.00021   0.47961   0.00000  Uiso   1.00
C38    C     0.24954   0.00038   0.52066   0.00000  Uiso   1.00
C39    C     0.24999   0.49999   0.97986   0.00000  Uiso   1.00
C40    C     0.24998   0.49999   0.02085   0.00000  Uiso   1.00
C41    C     0.49998   0.25000   0.98006   0.00000  Uiso   1.00
C42    C     0.49999   0.25002   0.02101   0.00000  Uiso   1.00
C43    C     0.44401   0.13931   0.46938   0.00000  Uiso   1.00
C44    C     0.43687   0.10339   0.44785   0.00000  Uiso   1.00
C45    C     0.39660   0.09253   0.45006   0.00000  Uiso   1.00
C46    C     0.25437   0.03340   0.08210   0.00000  Uiso   1.00
C47    C     0.47700   0.37085   0.53159   0.00000  Uiso   1.00
C48    C     0.47765   0.40541   0.55673   0.00000  Uiso   1.00
C49    C     0.43975   0.42257   0.56056   0.00000  Uiso   1.00
C50    C     0.35961   0.44282   0.47000   0.00000  Uiso   1.00
C51    C     0.39598   0.43547   0.44943   0.00000  Uiso   1.00
C52    C     0.40662   0.39510   0.45188   0.00000  Uiso   1.00
C53    C     0.12835   0.47747   0.53297   0.00000  Uiso   1.00
C54    C     0.09383   0.47926   0.55805   0.00000  Uiso   1.00
C55    C     0.07494   0.44213   0.56075   0.00000  Uiso   1.00
C56    C     0.05781   0.35998   0.46985   0.00000  Uiso   1.00
C57    C     0.02499   0.22780   0.91901   0.00000  Uiso   1.00
C58    C     0.06489   0.39645   0.44933   0.00000  Uiso   1.00
C59    C     0.10499   0.40770   0.45259   0.00000  Uiso   1.00
C60    C     0.02407   0.12876   0.53314   0.00000  Uiso   1.00
C61    C     0.02289   0.09450   0.55890   0.00000  Uiso   1.00
C62    C     0.06102   0.07933   0.56726   0.00000  Uiso   1.00
C63    C     0.13617   0.05467   0.46952   0.00000  Uiso   1.00
C64    C     0.09493   0.05460   0.46164   0.00000  Uiso   1.00
C65    C     0.08592   0.04883   0.41870   0.00000  Uiso   1.00
C66    C     0.37089   0.02333   0.53175   0.00000  Uiso   1.00
C67    C     0.40584   0.02174   0.55622   0.00000  Uiso   1.00
C68    C     0.46714   0.25758   0.08228   0.00000  Uiso   1.00
C69    C     0.42478   0.05887   0.55838   0.00000  Uiso   1.00
C70    C     0.17330   0.40111   0.97344   0.00000  Uiso   1.00
C71    C     0.15857   0.36766   0.95174   0.00000  Uiso   1.00
C72    C     0.11968   0.35834   0.96451   0.00000  Uiso   1.00
C73    C     0.23829   0.11962   0.03065   0.00000  Uiso   1.00
C74    C     0.24645   0.15091   0.00225   0.00000  Uiso   1.00
C75    C     0.22038   0.18308   0.00801   0.00000  Uiso   1.00
C76    C     0.09490   0.16751   0.97324   0.00000  Uiso   1.00
C77    C     0.12599   0.15075   0.94935   0.00000  Uiso   1.00
C78    C     0.13564   0.11231   0.96354   0.00000  Uiso   1.00
C79    C     0.00013   0.24987   0.39823   0.00000  Uiso   1.00
C80    C     0.37701   0.25132   0.02216   0.00000  Uiso   1.00
C81    C     0.34465   0.24756   0.04997   0.00000  Uiso   1.00
C82    C     0.31540   0.22232   0.03332   0.00000  Uiso   1.00
C83    C     0.32660   0.09894   0.97335   0.00000  Uiso   1.00
C84    C     0.34131   0.13238   0.95156   0.00000  Uiso   1.00
C85    C     0.38019   0.14174   0.96434   0.00000  Uiso   1.00
C86    C     0.26166   0.38038   0.03085   0.00000  Uiso   1.00
C87    C     0.25352   0.34914   0.00241   0.00000  Uiso   1.00
C88    C     0.27963   0.31698   0.00816   0.00000  Uiso   1.00
C89    C     0.40508   0.33250   0.97304   0.00000  Uiso   1.00
C90    C     0.00005   0.24987   0.60213   0.00000  Uiso   1.00
C91    C     0.37390   0.34924   0.94920   0.00000  Uiso   1.00
C92    C     0.36428   0.38768   0.96332   0.00000  Uiso   1.00
C93    C     0.12298   0.24867   0.02230   0.00000  Uiso   1.00
C94    C     0.15537   0.25236   0.05011   0.00000  Uiso   1.00
C95    C     0.18460   0.27765   0.03350   0.00000  Uiso   1.00
C96    C     0.06106   0.30972   0.38467   0.00000  Uiso   1.00
C97    C     0.08643   0.28040   0.40321   0.00000  Uiso   1.00
C98    C     0.12584   0.28529   0.38958   0.00000  Uiso   1.00
C99    C     0.03825   0.17716   0.62212   0.00000  Uiso   1.00
C100   C     0.07294   0.19517   0.60463   0.00000  Uiso   1.00
C101   C     0.24954   0.49985   0.39814   0.00000  Uiso   1.00
C102   C     0.10743   0.18127   0.62492   0.00000  Uiso   1.00
C103   C     0.18674   0.05678   0.38220   0.00000  Uiso   1.00
C104   C     0.21298   0.08482   0.40136   0.00000  Uiso   1.00
C105   C     0.20629   0.12325   0.38540   0.00000  Uiso   1.00
C106   C     0.32254   0.03880   0.62081   0.00000  Uiso   1.00
C107   C     0.30432   0.07314   0.60264   0.00000  Uiso   1.00
C108   C     0.31905   0.10808   0.62124   0.00000  Uiso   1.00
C109   C     0.43913   0.19036   0.38497   0.00000  Uiso   1.00
C110   C     0.41402   0.21965   0.40388   0.00000  Uiso   1.00
C111   C     0.37451   0.21510   0.39039   0.00000  Uiso   1.00
C112   C     0.00262   0.21633   0.58219   0.00000  Uiso   1.00
C113   C     0.24971   0.00014   0.60209   0.00000  Uiso   1.00
C114   C     0.46150   0.32264   0.62092   0.00000  Uiso   1.00
C115   C     0.42718   0.30451   0.60278   0.00000  Uiso   1.00
C116   C     0.39228   0.31888   0.62181   0.00000  Uiso   1.00
C117   C     0.30989   0.43961   0.38478   0.00000  Uiso   1.00
C118   C     0.28066   0.41410   0.40316   0.00000  Uiso   1.00
C119   C     0.28596   0.37465   0.38972   0.00000  Uiso   1.00
C120   C     0.17727   0.46136   0.62109   0.00000  Uiso   1.00
C121   C     0.19555   0.42713   0.60283   0.00000  Uiso   1.00
C122   C     0.18116   0.39209   0.62156   0.00000  Uiso   1.00
C123   C     0.32721   0.04153   0.89177   0.00000  Uiso   1.00
C124   C     0.25002   0.49999   0.89843   0.00000  Uiso   1.00
C125   C     0.34197   0.00780   0.91435   0.00000  Uiso   1.00
C126   C     0.38236   0.00129   0.90553   0.00000  Uiso   1.00
C127   C     0.27009   0.42157   0.12450   0.00000  Uiso   1.00
C128   C     0.30844   0.42927   0.10727   0.00000  Uiso   1.00
C129   C     0.33807   0.40838   0.12941   0.00000  Uiso   1.00
C130   C     0.46668   0.33176   0.89410   0.00000  Uiso   1.00
C131   C     0.00012   0.34281   0.91931   0.00000  Uiso   1.00
C132   C     0.01084   0.38258   0.91196   0.00000  Uiso   1.00
C133   C     0.07945   0.26237   0.12521   0.00000  Uiso   1.00
C134   C     0.07807   0.30070   0.10619   0.00000  Uiso   1.00
C135   C     0.24997   0.49999   0.10216   0.00000  Uiso   1.00
C136   C     0.10061   0.32831   0.12931   0.00000  Uiso   1.00
C137   C     0.17282   0.45843   0.89171   0.00000  Uiso   1.00
C138   C     0.15807   0.49220   0.91416   0.00000  Uiso   1.00
C139   C     0.11768   0.49871   0.90527   0.00000  Uiso   1.00
C140   C     0.22969   0.07837   0.12428   0.00000  Uiso   1.00
C141   C     0.19138   0.07059   0.10694   0.00000  Uiso   1.00
C142   C     0.16166   0.09135   0.12901   0.00000  Uiso   1.00
C143   C     0.03308   0.16813   0.89437   0.00000  Uiso   1.00
C144   C     0.49977   0.15711   0.91974   0.00000  Uiso   1.00
C145   C     0.48898   0.11735   0.91253   0.00000  Uiso   1.00
C146   C     0.49996   0.24996   0.89857   0.00000  Uiso   1.00
C147   C     0.42057   0.23766   0.12513   0.00000  Uiso   1.00
C148   C     0.42199   0.19933   0.10617   0.00000  Uiso   1.00
C149   C     0.39943   0.17170   0.12927   0.00000  Uiso   1.00
C150   C     0.00001   0.25004   0.10226   0.00000  Uiso   1.00
C151   C     0.48707   0.18394   0.48018   0.00000  Uiso   1.00
C152   C     0.00679   0.31661   0.52024   0.00000  Uiso   1.00
C153   C     0.31529   0.48648   0.48013   0.00000  Uiso   1.00
C154   C     0.18269   0.00657   0.52032   0.00000  Uiso   1.00
C155   C     0.01441   0.31549   0.48006   0.00000  Uiso   1.00
C156   C     0.21785   0.01103   0.41807   0.00000  Uiso   1.00
C157   C     0.49442   0.18291   0.52042   0.00000  Uiso   1.00
C158   C     0.18358   0.01355   0.47993   0.00000  Uiso   1.00
C159   C     0.31638   0.49411   0.52029   0.00000  Uiso   1.00
C160   C     0.22355   0.43846   0.98015   0.00000  Uiso   1.00
C161   C     0.26727   0.06460   0.01978   0.00000  Uiso   1.00
C162   C     0.05954   0.21935   0.98009   0.00000  Uiso   1.00
C163   C     0.43656   0.27166   0.01985   0.00000  Uiso   1.00
C164   C     0.27640   0.06154   0.98009   0.00000  Uiso   1.00
C165   C     0.23267   0.43539   0.01986   0.00000  Uiso   1.00
C166   C     0.44042   0.28065   0.97998   0.00000  Uiso   1.00
C167   C     0.28311   0.00261   0.58201   0.00000  Uiso   1.00
C168   C     0.06342   0.22835   0.01994   0.00000  Uiso   1.00
C169   C     0.24983   0.49997   0.35584   0.00000  Uiso   1.00
C170   C     0.24987   0.00003   0.64424   0.00000  Uiso   1.00
C171   C     0.00002   0.24993   0.35587   0.00000  Uiso   1.00
C172   C    -0.00000   0.24998   0.64426   0.00000  Uiso   1.00
C173   C     0.49999   0.24999   0.85601   0.00000  Uiso   1.00
C174   C     0.00001   0.25001   0.14428   0.00000  Uiso   1.00
C175   C     0.25001  -0.00000   0.85595   0.00000  Uiso   1.00
C176   C     0.24999  -0.00000   0.14426   0.00000  Uiso   1.00
C177   C     0.18003   0.07000   0.24998   0.00000  Uiso   1.00
C178   C     0.48815   0.21858   0.41839   0.00000  Uiso   1.00
C179   C     0.32001   0.43002   0.74997   0.00000  Uiso   1.00
C180   C     0.42999   0.18003   0.24997   0.00000  Uiso   1.00
C181   C     0.06998   0.32002   0.74997   0.00000  Uiso   1.00
C182   C     0.31996   0.42999   0.24999   0.00000  Uiso   1.00
C183   C     0.17999   0.06998   0.74994   0.00000  Uiso   1.00
C184   C     0.07002   0.31998   0.24997   0.00000  Uiso   1.00
C185   C     0.43001   0.17998   0.74998   0.00000  Uiso   1.00
C186   C     0.17998   0.43003   0.74993   0.00000  Uiso   1.00
C187   C     0.31998   0.07003   0.24997   0.00000  Uiso   1.00
C188   C     0.43004   0.32001   0.74993   0.00000  Uiso   1.00
C189   C     0.49780   0.28334   0.58200   0.00000  Uiso   1.00
C190   C     0.07001   0.18003   0.24997   0.00000  Uiso   1.00
C191   C     0.32002   0.06998   0.74993   0.00000  Uiso   1.00
C192   C     0.18002   0.42997   0.24997   0.00000  Uiso   1.00
C193   C     0.06996   0.17998   0.74994   0.00000  Uiso   1.00
C194   C     0.42999   0.31998   0.24994   0.00000  Uiso   1.00
C195   C     0.11546   0.41147   0.25844   0.00000  Uiso   1.00
C196   C     0.38455   0.08846   0.74127   0.00000  Uiso   1.00
C197   C     0.08915   0.11605   0.26151   0.00000  Uiso   1.00
C198   C     0.41139   0.38444   0.74057   0.00000  Uiso   1.00
C199   C     0.38454   0.08852   0.25848   0.00000  Uiso   1.00
C200   C     0.28089   0.48815   0.41833   0.00000  Uiso   1.00
C201   C     0.11546   0.41154   0.74116   0.00000  Uiso   1.00
C202   C     0.41103   0.38410   0.26070   0.00000  Uiso   1.00
C203   C     0.08862   0.11559   0.74041   0.00000  Uiso   1.00
C204   C     0.11557   0.08862   0.74049   0.00000  Uiso   1.00
C205   C     0.38404   0.41104   0.26080   0.00000  Uiso   1.00
C206   C     0.08849   0.38462   0.74128   0.00000  Uiso   1.00
C207   C     0.41147   0.11546   0.25851   0.00000  Uiso   1.00
C208   C     0.38445   0.41143   0.74070   0.00000  Uiso   1.00
C209   C     0.11614   0.08910   0.26160   0.00000  Uiso   1.00
C210   C     0.41152   0.11537   0.74139   0.00000  Uiso   1.00
C211   C     0.21619   0.49790   0.58206   0.00000  Uiso   1.00
C212   C     0.08853   0.38453   0.25846   0.00000  Uiso   1.00
C213   C     0.36542   0.16151   0.75821   0.00000  Uiso   1.00
C214   C     0.13459   0.33841   0.24148   0.00000  Uiso   1.00
C215   C     0.33864   0.36552   0.75886   0.00000  Uiso   1.00
C216   C     0.16094   0.13398   0.23840   0.00000  Uiso   1.00
C217   C     0.13457   0.33849   0.75831   0.00000  Uiso   1.00
C218   C     0.36541   0.16159   0.24141   0.00000  Uiso   1.00
C219   C     0.16135   0.13444   0.75896   0.00000  Uiso   1.00
C220   C     0.33890   0.36588   0.23905   0.00000  Uiso   1.00
C221   C     0.36588   0.33892   0.23899   0.00000  Uiso   1.00
C222   C     0.26963   0.02709   0.91870   0.00000  Uiso   1.00
C223   C     0.13439   0.16139   0.75897   0.00000  Uiso   1.00
C224   C     0.33848   0.13464   0.24136   0.00000  Uiso   1.00
C225   C     0.16151   0.36542   0.75829   0.00000  Uiso   1.00
C226   C     0.13396   0.16095   0.23837   0.00000  Uiso   1.00
C227   C     0.36559   0.33857   0.75883   0.00000  Uiso   1.00
C228   C     0.16152   0.36536   0.24143   0.00000  Uiso   1.00
C229   C     0.33849   0.13458   0.75818   0.00000  Uiso   1.00
C230   C     0.49204   0.21706   0.45926   0.00000  Uiso   1.00
C231   C     0.00192   0.28351   0.54116   0.00000  Uiso   1.00
C232   C     0.28222   0.49171   0.45920   0.00000  Uiso   1.00
H233   H     0.42350   0.15999   0.46019   0.00000  Uiso   1.00
H234   H     0.48807   0.39879   0.58628   0.00000  Uiso   1.00
H235   H     0.39673   0.33285   0.00409   0.00000  Uiso   1.00
H236   H     0.38180   0.35054   0.91804   0.00000  Uiso   1.00
H237   H     0.34931   0.33153   0.95154   0.00000  Uiso   1.00
H238   H     0.35537   0.38689   0.99421   0.00000  Uiso   1.00
H239   H     0.34155   0.39892   0.94547   0.00000  Uiso   1.00
H240   H     0.38832   0.40607   0.96049   0.00000  Uiso   1.00
H241   H     0.11106   0.27638   0.01704   0.00000  Uiso   1.00
H242   H     0.13371   0.23781   0.99441   0.00000  Uiso   1.00
H243   H     0.14605   0.26376   0.07823   0.00000  Uiso   1.00
H244   H     0.16738   0.22492   0.05571   0.00000  Uiso   1.00
H245   H     0.49649   0.42569   0.54345   0.00000  Uiso   1.00
H246   H     0.19494   0.26696   0.00533   0.00000  Uiso   1.00
H247   H     0.20786   0.27956   0.05420   0.00000  Uiso   1.00
H248   H     0.17302   0.30547   0.02903   0.00000  Uiso   1.00
H249   H     0.12150   0.45734   0.29118   0.00000  Uiso   1.00
H250   H     0.11007   0.46504   0.24390   0.00000  Uiso   1.00
H251   H     0.37844   0.04284   0.70818   0.00000  Uiso   1.00
H252   H     0.38979   0.03479   0.75543   0.00000  Uiso   1.00
H253   H     0.04547   0.12389   0.29697   0.00000  Uiso   1.00
H254   H     0.03485   0.11066   0.25095   0.00000  Uiso   1.00
H255   H     0.45650   0.37794   0.70682   0.00000  Uiso   1.00
H256   H     0.42977   0.43183   0.53171   0.00000  Uiso   1.00
H257   H     0.46522   0.38965   0.75379   0.00000  Uiso   1.00
H258   H     0.37851   0.04262   0.29123   0.00000  Uiso   1.00
H259   H     0.38994   0.03497   0.24397   0.00000  Uiso   1.00
H260   H     0.12159   0.45714   0.70797   0.00000  Uiso   1.00
H261   H     0.11022   0.46522   0.75518   0.00000  Uiso   1.00
H262   H     0.45533   0.37667   0.29547   0.00000  Uiso   1.00
H263   H     0.46514   0.38953   0.24912   0.00000  Uiso   1.00
H264   H     0.04358   0.12224   0.70653   0.00000  Uiso   1.00
H265   H     0.03476   0.11037   0.75344   0.00000  Uiso   1.00
H266   H     0.12213   0.04329   0.70704   0.00000  Uiso   1.00
H267   H     0.44127   0.44654   0.58031   0.00000  Uiso   1.00
H268   H     0.11025   0.03484   0.75402   0.00000  Uiso   1.00
H269   H     0.37656   0.45510   0.29587   0.00000  Uiso   1.00
H270   H     0.38928   0.46528   0.24956   0.00000  Uiso   1.00
H271   H     0.04262   0.37858   0.70854   0.00000  Uiso   1.00
H272   H     0.03498   0.39003   0.75579   0.00000  Uiso   1.00
H273   H     0.45721   0.12150   0.29145   0.00000  Uiso   1.00
H274   H     0.46505   0.11010   0.24420   0.00000  Uiso   1.00
H275   H     0.37795   0.45695   0.70743   0.00000  Uiso   1.00
H276   H     0.38981   0.46513   0.75447   0.00000  Uiso   1.00
H277   H     0.12413   0.04564   0.29744   0.00000  Uiso   1.00
H278   H     0.42009   0.40261   0.57306   0.00000  Uiso   1.00
H279   H     0.11095   0.03468   0.25148   0.00000  Uiso   1.00
H280   H     0.45742   0.12141   0.70875   0.00000  Uiso   1.00
H281   H     0.46501   0.10996   0.75605   0.00000  Uiso   1.00
H282   H     0.04279   0.37848   0.29135   0.00000  Uiso   1.00
H283   H     0.03496   0.38990   0.24408   0.00000  Uiso   1.00
H284   H     0.37135   0.20748   0.79081   0.00000  Uiso   1.00
H285   H     0.36005   0.21503   0.74346   0.00000  Uiso   1.00
H286   H     0.12855   0.29235   0.20899   0.00000  Uiso   1.00
H287   H     0.14002   0.28493   0.25630   0.00000  Uiso   1.00
H288   H     0.29313   0.37182   0.79208   0.00000  Uiso   1.00
H289   H     0.33914   0.42233   0.46043   0.00000  Uiso   1.00
H290   H     0.28496   0.36016   0.74498   0.00000  Uiso   1.00
H291   H     0.20466   0.12611   0.20297   0.00000  Uiso   1.00
H292   H     0.21524   0.13934   0.24899   0.00000  Uiso   1.00
H293   H     0.12862   0.29253   0.79099   0.00000  Uiso   1.00
H294   H     0.13995   0.28497   0.74368   0.00000  Uiso   1.00
H295   H     0.37145   0.20766   0.20888   0.00000  Uiso   1.00
H296   H     0.35998   0.21507   0.25616   0.00000  Uiso   1.00
H297   H     0.20683   0.12802   0.79227   0.00000  Uiso   1.00
H298   H     0.21504   0.13984   0.74522   0.00000  Uiso   1.00
H299   H     0.29468   0.37339   0.20416   0.00000  Uiso   1.00
H300   H     0.36407   0.43899   0.50171   0.00000  Uiso   1.00
H301   H     0.28475   0.36052   0.25048   0.00000  Uiso   1.00
H302   H     0.37336   0.29483   0.20396   0.00000  Uiso   1.00
H303   H     0.36063   0.28469   0.25027   0.00000  Uiso   1.00
H304   H     0.12795   0.20685   0.79226   0.00000  Uiso   1.00
H305   H     0.13974   0.21512   0.74521   0.00000  Uiso   1.00
H306   H     0.29268   0.12863   0.20850   0.00000  Uiso   1.00
H307   H     0.28492   0.13999   0.25576   0.00000  Uiso   1.00
H308   H     0.20746   0.37139   0.79092   0.00000  Uiso   1.00
H309   H     0.21498   0.36001   0.74362   0.00000  Uiso   1.00
H310   H     0.12601   0.20460   0.20277   0.00000  Uiso   1.00
H311   H     0.39398   0.44349   0.41832   0.00000  Uiso   1.00
H312   H     0.13922   0.21532   0.24877   0.00000  Uiso   1.00
H313   H     0.37199   0.29295   0.79196   0.00000  Uiso   1.00
H314   H     0.36021   0.28491   0.74486   0.00000  Uiso   1.00
H315   H     0.20733   0.37139   0.20863   0.00000  Uiso   1.00
H316   H     0.21507   0.36001   0.25592   0.00000  Uiso   1.00
H317   H     0.29250   0.12863   0.79072   0.00000  Uiso   1.00
H318   H     0.28502   0.14000   0.74337   0.00000  Uiso   1.00
H319   H     0.07350   0.33693   0.38989   0.00000  Uiso   1.00
H320   H     0.06129   0.30676   0.35258   0.00000  Uiso   1.00
H321   H     0.08578   0.28228   0.43542   0.00000  Uiso   1.00
H322   H     0.41774   0.45239   0.46307   0.00000  Uiso   1.00
H323   H     0.07736   0.25251   0.39483   0.00000  Uiso   1.00
H324   H     0.12743   0.28299   0.35738   0.00000  Uiso   1.00
H325   H     0.14335   0.26370   0.40272   0.00000  Uiso   1.00
H326   H     0.13641   0.31247   0.39869   0.00000  Uiso   1.00
H327   H     0.04275   0.14714   0.62228   0.00000  Uiso   1.00
H328   H     0.03536   0.18438   0.65327   0.00000  Uiso   1.00
H329   H     0.07511   0.18927   0.57313   0.00000  Uiso   1.00
H330   H     0.07192   0.22533   0.60810   0.00000  Uiso   1.00
H331   H     0.10632   0.18753   0.65652   0.00000  Uiso   1.00
H332   H     0.13183   0.19490   0.61227   0.00000  Uiso   1.00
H333   H     0.40758   0.38594   0.48267   0.00000  Uiso   1.00
H334   H     0.11032   0.15124   0.62092   0.00000  Uiso   1.00
H335   H     0.15852   0.06749   0.38495   0.00000  Uiso   1.00
H336   H     0.19135   0.05584   0.35038   0.00000  Uiso   1.00
H337   H     0.20908   0.08523   0.43337   0.00000  Uiso   1.00
H338   H     0.24188   0.07737   0.39534   0.00000  Uiso   1.00
H339   H     0.22574   0.14272   0.39907   0.00000  Uiso   1.00
H340   H     0.17795   0.13228   0.39208   0.00000  Uiso   1.00
H341   H     0.21051   0.12370   0.35339   0.00000  Uiso   1.00
H342   H     0.35254   0.04324   0.62040   0.00000  Uiso   1.00
H343   H     0.31559   0.03667   0.65211   0.00000  Uiso   1.00
H344   H     0.44011   0.13412   0.50094   0.00000  Uiso   1.00
H345   H     0.43401   0.39102   0.43862   0.00000  Uiso   1.00
H346   H     0.30937   0.07427   0.57089   0.00000  Uiso   1.00
H347   H     0.27428   0.07246   0.60717   0.00000  Uiso   1.00
H348   H     0.30510   0.13224   0.60836   0.00000  Uiso   1.00
H349   H     0.34892   0.11060   0.61592   0.00000  Uiso   1.00
H350   H     0.31391   0.10786   0.65310   0.00000  Uiso   1.00
H351   H     0.42651   0.16320   0.38997   0.00000  Uiso   1.00
H352   H     0.43880   0.19359   0.35292   0.00000  Uiso   1.00
H353   H     0.41484   0.21748   0.43607   0.00000  Uiso   1.00
H354   H     0.42319   0.24757   0.39567   0.00000  Uiso   1.00
H355   H     0.37276   0.21769   0.35823   0.00000  Uiso   1.00
H356   H     0.38646   0.37811   0.43581   0.00000  Uiso   1.00
H357   H     0.35719   0.23668   0.40379   0.00000  Uiso   1.00
H358   H     0.36383   0.18791   0.39934   0.00000  Uiso   1.00
H359   H     0.45694   0.35266   0.62071   0.00000  Uiso   1.00
H360   H     0.46377   0.31555   0.65218   0.00000  Uiso   1.00
H361   H     0.42582   0.30994   0.57111   0.00000  Uiso   1.00
H362   H     0.42803   0.27440   0.60691   0.00000  Uiso   1.00
H363   H     0.36814   0.30504   0.60887   0.00000  Uiso   1.00
H364   H     0.38958   0.34883   0.61694   0.00000  Uiso   1.00
H365   H     0.39270   0.31329   0.65358   0.00000  Uiso   1.00
H366   H     0.33712   0.42722   0.39010   0.00000  Uiso   1.00
H367   H     0.14396   0.45234   0.54030   0.00000  Uiso   1.00
H368   H     0.30705   0.43939   0.35267   0.00000  Uiso   1.00
H369   H     0.28226   0.41485   0.43538   0.00000  Uiso   1.00
H370   H     0.25276   0.42296   0.39449   0.00000  Uiso   1.00
H371   H     0.26442   0.35705   0.40271   0.00000  Uiso   1.00
H372   H     0.31313   0.36425   0.39914   0.00000  Uiso   1.00
H373   H     0.28391   0.37295   0.35751   0.00000  Uiso   1.00
H374   H     0.14730   0.45668   0.62099   0.00000  Uiso   1.00
H375   H     0.18445   0.46357   0.65232   0.00000  Uiso   1.00
H376   H     0.19030   0.42597   0.57111   0.00000  Uiso   1.00
H377   H     0.22562   0.42796   0.60713   0.00000  Uiso   1.00
H378   H     0.11975   0.47574   0.50205   0.00000  Uiso   1.00
H379   H     0.18653   0.39232   0.65338   0.00000  Uiso   1.00
H380   H     0.19516   0.36802   0.60861   0.00000  Uiso   1.00
H381   H     0.15127   0.38939   0.61644   0.00000  Uiso   1.00
H382   H     0.34500   0.06518   0.89871   0.00000  Uiso   1.00
H383   H     0.33118   0.03702   0.86015   0.00000  Uiso   1.00
H384   H     0.33890   0.01203   0.94617   0.00000  Uiso   1.00
H385   H     0.32655   0.48285   0.90583   0.00000  Uiso   1.00
H386   H     0.38635   0.49638   0.87392   0.00000  Uiso   1.00
H387   H     0.39211   0.47687   0.92180   0.00000  Uiso   1.00
H388   H     0.39886   0.02534   0.91460   0.00000  Uiso   1.00
H389   H     0.10089   0.48858   0.58787   0.00000  Uiso   1.00
H390   H     0.26707   0.39143   0.12731   0.00000  Uiso   1.00
H391   H     0.26825   0.43194   0.15474   0.00000  Uiso   1.00
H392   H     0.30948   0.42111   0.07630   0.00000  Uiso   1.00
H393   H     0.31481   0.45892   0.10899   0.00000  Uiso   1.00
H394   H     0.36526   0.41460   0.11664   0.00000  Uiso   1.00
H395   H     0.33328   0.37841   0.12740   0.00000  Uiso   1.00
H396   H     0.33825   0.41666   0.16047   0.00000  Uiso   1.00
H397   H     0.44435   0.35148   0.90016   0.00000  Uiso   1.00
H398   H     0.47346   0.33611   0.86300   0.00000  Uiso   1.00
H399   H     0.49362   0.33964   0.95068   0.00000  Uiso   1.00
H400   H     0.07451   0.49948   0.54532   0.00000  Uiso   1.00
H401   H     0.02401   0.32523   0.91212   0.00000  Uiso   1.00
H402   H     0.03484   0.38975   0.93024   0.00000  Uiso   1.00
H403   H     0.48785   0.40115   0.91960   0.00000  Uiso   1.00
H404   H     0.01823   0.38661   0.88091   0.00000  Uiso   1.00
H405   H     0.10852   0.25537   0.13083   0.00000  Uiso   1.00
H406   H     0.06711   0.26297   0.15462   0.00000  Uiso   1.00
H407   H     0.08877   0.29940   0.07609   0.00000  Uiso   1.00
H408   H     0.04939   0.31072   0.10496   0.00000  Uiso   1.00
H409   H     0.09911   0.35553   0.11498   0.00000  Uiso   1.00
H410   H     0.12973   0.31965   0.13058   0.00000  Uiso   1.00
H411   H     0.06563   0.43320   0.53153   0.00000  Uiso   1.00
H412   H     0.08972   0.33086   0.15934   0.00000  Uiso   1.00
H413   H     0.15504   0.43479   0.89872   0.00000  Uiso   1.00
H414   H     0.16884   0.46290   0.86008   0.00000  Uiso   1.00
H415   H     0.16112   0.48801   0.94600   0.00000  Uiso   1.00
H416   H     0.17349   0.01714   0.90559   0.00000  Uiso   1.00
H417   H     0.11369   0.00358   0.87364   0.00000  Uiso   1.00
H418   H     0.10793   0.02315   0.92144   0.00000  Uiso   1.00
H419   H     0.10117   0.47467   0.91439   0.00000  Uiso   1.00
H420   H     0.23263   0.10852   0.12705   0.00000  Uiso   1.00
H421   H     0.23150   0.06802   0.15454   0.00000  Uiso   1.00
H422   H     0.05084   0.44437   0.58022   0.00000  Uiso   1.00
H423   H     0.19036   0.07881   0.07597   0.00000  Uiso   1.00
H424   H     0.18509   0.04092   0.10863   0.00000  Uiso   1.00
H425   H     0.16143   0.08295   0.16006   0.00000  Uiso   1.00
H426   H     0.13451   0.08511   0.11613   0.00000  Uiso   1.00
H427   H     0.16639   0.12133   0.12709   0.00000  Uiso   1.00
H428   H     0.05542   0.14836   0.90033   0.00000  Uiso   1.00
H429   H     0.02613   0.16381   0.86331   0.00000  Uiso   1.00
H430   H     0.00642   0.16029   0.95108   0.00000  Uiso   1.00
H431   H     0.47585   0.17471   0.91263   0.00000  Uiso   1.00
H432   H     0.46507   0.11020   0.93094   0.00000  Uiso   1.00
H433   H     0.09385   0.42127   0.57303   0.00000  Uiso   1.00
H434   H     0.01199   0.09877   0.92010   0.00000  Uiso   1.00
H435   H     0.48141   0.11332   0.88152   0.00000  Uiso   1.00
H436   H     0.39150   0.24464   0.13068   0.00000  Uiso   1.00
H437   H     0.43289   0.23705   0.15456   0.00000  Uiso   1.00
H438   H     0.41132   0.20063   0.07604   0.00000  Uiso   1.00
H439   H     0.45067   0.18933   0.10502   0.00000  Uiso   1.00
H440   H     0.41029   0.16915   0.15933   0.00000  Uiso   1.00
H441   H     0.40096   0.14449   0.11499   0.00000  Uiso   1.00
H442   H     0.37031   0.18036   0.13046   0.00000  Uiso   1.00
H443   H     0.07843   0.33962   0.46021   0.00000  Uiso   1.00
H444   H     0.44482   0.10616   0.41680   0.00000  Uiso   1.00
H445   H     0.06159   0.36439   0.50157   0.00000  Uiso   1.00
H446   H     0.05748   0.39428   0.41806   0.00000  Uiso   1.00
H447   H     0.04738   0.41798   0.46257   0.00000  Uiso   1.00
H448   H     0.11352   0.40880   0.48357   0.00000  Uiso   1.00
H449   H     0.10883   0.43518   0.43937   0.00000  Uiso   1.00
H450   H     0.12262   0.38779   0.43693   0.00000  Uiso   1.00
H451   H     0.04898   0.14486   0.53989   0.00000  Uiso   1.00
H452   H     0.02580   0.11984   0.50228   0.00000  Uiso   1.00
H453   H     0.00951   0.10099   0.58710   0.00000  Uiso   1.00
H454   H     0.00633   0.07308   0.54422   0.00000  Uiso   1.00
H455   H     0.45394   0.08137   0.46090   0.00000  Uiso   1.00
H456   H     0.07482   0.07143   0.53985   0.00000  Uiso   1.00
H457   H     0.05873   0.05478   0.58617   0.00000  Uiso   1.00
H458   H     0.07794   0.10002   0.58257   0.00000  Uiso   1.00
H459   H     0.14910   0.07621   0.45155   0.00000  Uiso   1.00
H460   H     0.14028   0.06275   0.50039   0.00000  Uiso   1.00
H461   H     0.08183   0.03259   0.47906   0.00000  Uiso   1.00
H462   H     0.08317   0.08127   0.47092   0.00000  Uiso   1.00
H463   H     0.09596   0.07229   0.40118   0.00000  Uiso   1.00
H464   H     0.05580   0.04704   0.41501   0.00000  Uiso   1.00
H465   H     0.09838   0.02305   0.40782   0.00000  Uiso   1.00
H466   H     0.38747   0.09103   0.48082   0.00000  Uiso   1.00
H467   H     0.35552   0.04866   0.53885   0.00000  Uiso   1.00
H468   H     0.37898   0.02448   0.50063   0.00000  Uiso   1.00
H469   H     0.39930   0.01253   0.58622   0.00000  Uiso   1.00
H470   H     0.42495   0.00154   0.54319   0.00000  Uiso   1.00
H471   H     0.43415   0.06741   0.52907   0.00000  Uiso   1.00
H472   H     0.44890   0.05680   0.57789   0.00000  Uiso   1.00
H473   H     0.40595   0.07992   0.57035   0.00000  Uiso   1.00
H474   H     0.15512   0.42495   0.96773   0.00000  Uiso   1.00
H475   H     0.17235   0.39490   0.00506   0.00000  Uiso   1.00
H476   H     0.15874   0.37297   0.91992   0.00000  Uiso   1.00
H477   H     0.39269   0.06531   0.43631   0.00000  Uiso   1.00
H478   H     0.17655   0.34372   0.95749   0.00000  Uiso   1.00
H479   H     0.11908   0.35179   0.99608   0.00000  Uiso   1.00
H480   H     0.10977   0.33412   0.94811   0.00000  Uiso   1.00
H481   H     0.10104   0.38173   0.95861   0.00000  Uiso   1.00
H482   H     0.22980   0.13150   0.05897   0.00000  Uiso   1.00
H483   H     0.21443   0.10363   0.01952   0.00000  Uiso   1.00
H484   H     0.27486   0.16064   0.00655   0.00000  Uiso   1.00
H485   H     0.24363   0.14092   0.97190   0.00000  Uiso   1.00
H486   H     0.19153   0.17375   0.00646   0.00000  Uiso   1.00
H487   H     0.22512   0.20389   0.98499   0.00000  Uiso   1.00
H488   H     0.37948   0.11289   0.43435   0.00000  Uiso   1.00
H489   H     0.22537   0.19599   0.03677   0.00000  Uiso   1.00
H490   H     0.06998   0.15031   0.96995   0.00000  Uiso   1.00
H491   H     0.10335   0.16717   0.00427   0.00000  Uiso   1.00
H492   H     0.11797   0.14943   0.91822   0.00000  Uiso   1.00
H493   H     0.15059   0.16845   0.95158   0.00000  Uiso   1.00
H494   H     0.14465   0.11311   0.99441   0.00000  Uiso   1.00
H495   H     0.15832   0.10106   0.94566   0.00000  Uiso   1.00
H496   H     0.11159   0.09392   0.96081   0.00000  Uiso   1.00
H497   H     0.38894   0.22363   0.01689   0.00000  Uiso   1.00
H498   H     0.36623   0.26223   0.99427   0.00000  Uiso   1.00
H499   H     0.45187   0.35494   0.53795   0.00000  Uiso   1.00
H500   H     0.35400   0.23608   0.07807   0.00000  Uiso   1.00
H501   H     0.33265   0.27498   0.05561   0.00000  Uiso   1.00
H502   H     0.30501   0.23309   0.00517   0.00000  Uiso   1.00
H503   H     0.29217   0.22034   0.05403   0.00000  Uiso   1.00
H504   H     0.32698   0.19451   0.02881   0.00000  Uiso   1.00
H505   H     0.34480   0.07511   0.96771   0.00000  Uiso   1.00
H506   H     0.32756   0.10518   0.00494   0.00000  Uiso   1.00
H507   H     0.34112   0.12704   0.91975   0.00000  Uiso   1.00
H508   H     0.32331   0.15632   0.95723   0.00000  Uiso   1.00
H509   H     0.38080   0.14832   0.99589   0.00000  Uiso   1.00
H510   H     0.47612   0.37947   0.50060   0.00000  Uiso   1.00
H511   H     0.39008   0.16595   0.94787   0.00000  Uiso   1.00
H512   H     0.39884   0.11835   0.95852   0.00000  Uiso   1.00
H513   H     0.27012   0.36844   0.05918   0.00000  Uiso   1.00
H514   H     0.28553   0.39637   0.01978   0.00000  Uiso   1.00
H515   H     0.22512   0.33936   0.00669   0.00000  Uiso   1.00
H516   H     0.25632   0.35919   0.97207   0.00000  Uiso   1.00
H517   H     0.30847   0.32635   0.00661   0.00000  Uiso   1.00
H518   H     0.27489   0.29622   0.98513   0.00000  Uiso   1.00
H519   H     0.27469   0.30402   0.03692   0.00000  Uiso   1.00
H520   H     0.42997   0.34971   0.96965   0.00000  Uiso   1.00
N521   N     0.10526   0.44834   0.26804   0.00000  Uiso   1.00
N522   N     0.39362   0.44741   0.27286   0.00000  Uiso   1.00
N523   N     0.05164   0.39484   0.73165   0.00000  Uiso   1.00
N524   N     0.44830   0.10526   0.26827   0.00000  Uiso   1.00
N525   N     0.39446   0.44820   0.73050   0.00000  Uiso   1.00
N526   N     0.10679   0.05290   0.27447   0.00000  Uiso   1.00
N527   N     0.44838   0.10515   0.73187   0.00000  Uiso   1.00
N528   N     0.05171   0.39473   0.26817   0.00000  Uiso   1.00
N529   N     0.35518   0.19841   0.76765   0.00000  Uiso   1.00
N530   N     0.14481   0.30151   0.23205   0.00000  Uiso   1.00
N531   N     0.30189   0.35543   0.76896   0.00000  Uiso   1.00
N532   N     0.39469   0.05163   0.73142   0.00000  Uiso   1.00
N533   N     0.19717   0.14344   0.22583   0.00000  Uiso   1.00
N534   N     0.14481   0.30160   0.76784   0.00000  Uiso   1.00
N535   N     0.35519   0.19850   0.23193   0.00000  Uiso   1.00
N536   N     0.19809   0.14450   0.76917   0.00000  Uiso   1.00
N537   N     0.30251   0.35627   0.22711   0.00000  Uiso   1.00
N538   N     0.35630   0.30254   0.22696   0.00000  Uiso   1.00
N539   N     0.14442   0.19814   0.76918   0.00000  Uiso   1.00
N540   N     0.30164   0.14485   0.23167   0.00000  Uiso   1.00
N541   N     0.19838   0.35517   0.76780   0.00000  Uiso   1.00
N542   N     0.14335   0.19719   0.22568   0.00000  Uiso   1.00
N543   N     0.05293   0.10657   0.27410   0.00000  Uiso   1.00
N544   N     0.35554   0.30177   0.76888   0.00000  Uiso   1.00
N545   N     0.19836   0.35515   0.23180   0.00000  Uiso   1.00
N546   N     0.30161   0.14484   0.76758   0.00000  Uiso   1.00
N547   N     0.44805   0.39442   0.73002   0.00000  Uiso   1.00
N548   N     0.39475   0.05165   0.26810   0.00000  Uiso   1.00
N549   N     0.10533   0.44836   0.73120   0.00000  Uiso   1.00
N550   N     0.44743   0.39376   0.27253   0.00000  Uiso   1.00
N551   N     0.05198   0.10567   0.72971   0.00000  Uiso   1.00
N552   N     0.10559   0.05190   0.73011   0.00000  Uiso   1.00
O553   O     0.25000   0.00000   0.25000   0.00000  Uiso   1.00
O554   O     0.25000   0.46964   0.66245   0.00000  Uiso   1.00
O555   O     0.46964   0.25000   0.33755   0.00000  Uiso   1.00
O556   O     0.03037   0.25000   0.66245   0.00000  Uiso   1.00
O557   O     0.00000   0.21963   0.83755   0.00000  Uiso   1.00
O558   O     0.00000   0.28036   0.16245   0.00000  Uiso   1.00
O559   O     0.28037   0.00000   0.83755   0.00000  Uiso   1.00
O560   O     0.21964   0.00000   0.16245   0.00000  Uiso   1.00
O561   O     0.00000   0.28036   0.83755   0.00000  Uiso   1.00
O562   O     0.00000   0.21963   0.16245   0.00000  Uiso   1.00
O563   O     0.21964  -0.00000   0.83755   0.00000  Uiso   1.00
O564   O     0.25000   0.00000   0.75000   0.00000  Uiso   1.00
O565   O     0.28037   0.00000   0.16245   0.00000  Uiso   1.00
O566   O     0.20725   0.07308   0.27302   0.00000  Uiso   1.00
O567   O     0.29276   0.42693   0.72698   0.00000  Uiso   1.00
O568   O     0.42693   0.20725   0.27302   0.00000  Uiso   1.00
O569   O     0.07308   0.29275   0.72698   0.00000  Uiso   1.00
O570   O     0.29276   0.42693   0.27302   0.00000  Uiso   1.00
O571   O     0.20725   0.07308   0.72698   0.00000  Uiso   1.00
O572   O     0.07308   0.29275   0.27302   0.00000  Uiso   1.00
O573   O     0.42693   0.20725   0.72698   0.00000  Uiso   1.00
O574   O     0.20725   0.42693   0.72698   0.00000  Uiso   1.00
O575   O     0.00000   0.25000   0.25000   0.00000  Uiso   1.00
O576   O     0.29276   0.07308   0.27302   0.00000  Uiso   1.00
O577   O     0.42693   0.29276   0.72698   0.00000  Uiso   1.00
O578   O     0.07308   0.20724   0.27302   0.00000  Uiso   1.00
O579   O     0.29276   0.07308   0.72698   0.00000  Uiso   1.00
O580   O     0.20725   0.42693   0.27302   0.00000  Uiso   1.00
O581   O     0.07308   0.20724   0.72698   0.00000  Uiso   1.00
O582   O     0.42693   0.29276   0.27302   0.00000  Uiso   1.00
O583   O     0.45725   0.32308   0.77302   0.00000  Uiso   1.00
O584   O     0.04276   0.17692   0.22698   0.00000  Uiso   1.00
O585   O     0.17693   0.45724   0.77302   0.00000  Uiso   1.00
O586   O     0.00000   0.25000   0.75000   0.00000  Uiso   1.00
O587   O     0.32308   0.04276   0.22698   0.00000  Uiso   1.00
O588   O     0.04276   0.17692   0.77302   0.00000  Uiso   1.00
O589   O     0.45725   0.32308   0.22698   0.00000  Uiso   1.00
O590   O     0.32308   0.04276   0.77302   0.00000  Uiso   1.00
O591   O     0.17693   0.45724   0.22698   0.00000  Uiso   1.00
O592   O     0.45725   0.17693   0.22698   0.00000  Uiso   1.00
O593   O     0.04276   0.32307   0.77302   0.00000  Uiso   1.00
O594   O     0.17693   0.04276   0.22698   0.00000  Uiso   1.00
O595   O     0.32308   0.45725   0.77302   0.00000  Uiso   1.00
O596   O     0.04276   0.32307   0.22698   0.00000  Uiso   1.00
O597   O     0.25000   0.46964   0.33755   0.00000  Uiso   1.00
O598   O     0.45725   0.17693   0.77302   0.00000  Uiso   1.00
O599   O     0.32308   0.45725   0.22698   0.00000  Uiso   1.00
O600   O     0.17693   0.04276   0.77302   0.00000  Uiso   1.00
O601   O     0.47986   0.15146   0.46070   0.00000  Uiso   1.00
O602   O     0.00863   0.34983   0.53967   0.00000  Uiso   1.00
O603   O     0.34766   0.47867   0.46073   0.00000  Uiso   1.00
O604   O     0.14963   0.00908   0.53999   0.00000  Uiso   1.00
O605   O     0.02207   0.34788   0.46055   0.00000  Uiso   1.00
O606   O     0.49217   0.14975   0.53996   0.00000  Uiso   1.00
O607   O     0.15101   0.01986   0.46014   0.00000  Uiso   1.00
O608   O     0.25000   0.03037   0.66245   0.00000  Uiso   1.00
O609   O     0.34955   0.49197   0.53984   0.00000  Uiso   1.00
O610   O     0.20935   0.40848   0.96051   0.00000  Uiso   1.00
O611   O     0.27017   0.09841   0.03775   0.00000  Uiso   1.00
O612   O     0.08835   0.20356   0.95979   0.00000  Uiso   1.00
O613   O     0.40299   0.27576   0.03832   0.00000  Uiso   1.00
O614   O     0.29055   0.09154   0.96040   0.00000  Uiso   1.00
O615   O     0.22978   0.40158   0.03787   0.00000  Uiso   1.00
O616   O     0.41161   0.29646   0.95963   0.00000  Uiso   1.00
O617   O     0.09700   0.22423   0.03845   0.00000  Uiso   1.00
O618   O     0.02395   0.31165   0.39768   0.00000  Uiso   1.00
O619   O     0.03037   0.25000   0.33755   0.00000  Uiso   1.00
O620   O     0.00440   0.18339   0.60244   0.00000  Uiso   1.00
O621   O     0.18653   0.02037   0.39737   0.00000  Uiso   1.00
O622   O     0.31605   0.00448   0.60220   0.00000  Uiso   1.00
O623   O     0.47625   0.18806   0.39793   0.00000  Uiso   1.00
O624   O     0.49573   0.31633   0.60208   0.00000  Uiso   1.00
O625   O     0.31159   0.47673   0.39785   0.00000  Uiso   1.00
O626   O     0.18332   0.49569   0.60229   0.00000  Uiso   1.00
O627   O     0.29016   0.05266   0.89837   0.00000  Uiso   1.00
O628   O     0.23958   0.43396   0.10216   0.00000  Uiso   1.00
O629   O     0.45192   0.29573   0.89881   0.00000  Uiso   1.00
O630   O     0.46964   0.25000   0.66245   0.00000  Uiso   1.00
O631   O     0.06471   0.23327   0.10246   0.00000  Uiso   1.00
O632   O     0.20988   0.44732   0.89838   0.00000  Uiso   1.00
O633   O     0.26026   0.06604   0.10206   0.00000  Uiso   1.00
O634   O     0.04794   0.20413   0.89899   0.00000  Uiso   1.00
O635   O     0.43531   0.26678   0.10237   0.00000  Uiso   1.00
O636   O     0.25000   0.03037   0.33755   0.00000  Uiso   1.00
Zn637  Zn    0.20660   0.00000   0.21735   0.00000  Uiso   1.00
Zn638  Zn    0.04341   0.25000   0.28265   0.00000  Uiso   1.00
Zn639  Zn    0.25000   0.45660   0.71735   0.00000  Uiso   1.00
Zn640  Zn    0.25000   0.04341   0.28265   0.00000  Uiso   1.00
Zn641  Zn    0.04341   0.25000   0.71735   0.00000  Uiso   1.00
Zn642  Zn    0.45660   0.25000   0.28265   0.00000  Uiso   1.00
Zn643  Zn    0.25000   0.04341   0.71735   0.00000  Uiso   1.00
Zn644  Zn    0.25000   0.45660   0.28265   0.00000  Uiso   1.00
Zn645  Zn    0.29341   0.00000   0.78265   0.00000  Uiso   1.00
Zn646  Zn    0.00000   0.20659   0.21735   0.00000  Uiso   1.00
Zn647  Zn    0.00000   0.29340   0.78265   0.00000  Uiso   1.00
Zn648  Zn    0.29341   0.00000   0.21735   0.00000  Uiso   1.00
Zn649  Zn    0.20660   0.00000   0.78265   0.00000  Uiso   1.00
Zn650  Zn    0.00000   0.29340   0.21735   0.00000  Uiso   1.00
Zn651  Zn    0.00000   0.20659   0.78265   0.00000  Uiso   1.00
Zn652  Zn    0.45660   0.25000   0.71735   0.00000  Uiso   1.00
C653   C     0.51245   0.28104   0.41829   0.00000  Uiso   1.00
C654   C     0.74555   0.46659   0.08215   0.00000  Uiso   1.00
C655   C     0.71586   0.00188   0.54118   0.00000  Uiso   1.00
C656   C     0.50908   0.28244   0.45919   0.00000  Uiso   1.00
C657   C     0.99901   0.21606   0.54128   0.00000  Uiso   1.00
C658   C     0.71665   0.00819   0.45906   0.00000  Uiso   1.00
C659   C     0.78329   0.49889   0.54114   0.00000  Uiso   1.00
C660   C     0.73454   0.47008   0.95943   0.00000  Uiso   1.00
C661   C     0.75741   0.03291   0.04117   0.00000  Uiso   1.00
C662   C     0.52853   0.23226   0.95962   0.00000  Uiso   1.00
C663   C     0.96772   0.26010   0.04129   0.00000  Uiso   1.00
C664   C     0.76544   0.02991   0.95940   0.00000  Uiso   1.00
C665   C     0.97492   0.27212   0.91892   0.00000  Uiso   1.00
C666   C     0.74254   0.46708   0.04121   0.00000  Uiso   1.00
C667   C     0.97141   0.26771   0.95955   0.00000  Uiso   1.00
C668   C     0.53228   0.23994   0.04133   0.00000  Uiso   1.00
C669   C     0.59808   0.34800   0.24996   0.00000  Uiso   1.00
C670   C     0.90197   0.15191   0.74992   0.00000  Uiso   1.00
C671   C     0.65200   0.09807   0.24999   0.00000  Uiso   1.00
C672   C     0.84808   0.40198   0.74990   0.00000  Uiso   1.00
C673   C     0.90192   0.15200   0.24996   0.00000  Uiso   1.00
C674   C     0.59803   0.34808   0.74991   0.00000  Uiso   1.00
C675   C     0.84799   0.40192   0.24999   0.00000  Uiso   1.00
C676   C     0.53287   0.24248   0.08232   0.00000  Uiso   1.00
C677   C     0.65193   0.09804   0.74983   0.00000  Uiso   1.00
C678   C     0.59800   0.15194   0.74984   0.00000  Uiso   1.00
C679   C     0.90193   0.34804   0.24986   0.00000  Uiso   1.00
C680   C     0.65194   0.40198   0.74982   0.00000  Uiso   1.00
C681   C     0.84802   0.09810   0.24993   0.00000  Uiso   1.00
C682   C     0.90198   0.34805   0.74980   0.00000  Uiso   1.00
C683   C     0.59808   0.15197   0.24994   0.00000  Uiso   1.00
C684   C     0.84806   0.09803   0.74981   0.00000  Uiso   1.00
C685   C     0.65197   0.40190   0.24995   0.00000  Uiso   1.00
C686   C     0.50058   0.24975   0.47970   0.00000  Uiso   1.00
C687   C     0.73040   0.47289   0.91871   0.00000  Uiso   1.00
C688   C     0.50054   0.24977   0.52075   0.00000  Uiso   1.00
C689   C     0.74949   0.00021   0.47961   0.00000  Uiso   1.00
C690   C     0.74954   0.00038   0.52066   0.00000  Uiso   1.00
C691   C     0.74999   0.49999   0.97986   0.00000  Uiso   1.00
C692   C     0.74998   0.49999   0.02085   0.00000  Uiso   1.00
C693   C     0.99998   0.25000   0.98006   0.00000  Uiso   1.00
C694   C     0.99999   0.25002   0.02101   0.00000  Uiso   1.00
C695   C     0.94401   0.13931   0.46938   0.00000  Uiso   1.00
C696   C     0.93687   0.10339   0.44785   0.00000  Uiso   1.00
C697   C     0.89660   0.09253   0.45006   0.00000  Uiso   1.00
C698   C     0.75437   0.03340   0.08210   0.00000  Uiso   1.00
C699   C     0.97700   0.37085   0.53159   0.00000  Uiso   1.00
C700   C     0.97765   0.40541   0.55673   0.00000  Uiso   1.00
C701   C     0.93975   0.42257   0.56056   0.00000  Uiso   1.00
C702   C     0.85961   0.44282   0.47000   0.00000  Uiso   1.00
C703   C     0.89598   0.43547   0.44943   0.00000  Uiso   1.00
C704   C     0.90662   0.39510   0.45188   0.00000  Uiso   1.00
C705   C     0.62835   0.47747   0.53297   0.00000  Uiso   1.00
C706   C     0.59383   0.47926   0.55805   0.00000  Uiso   1.00
C707   C     0.57494   0.44213   0.56075   0.00000  Uiso   1.00
C708   C     0.55781   0.35998   0.46985   0.00000  Uiso   1.00
C709   C     0.52499   0.22780   0.91901   0.00000  Uiso   1.00
C710   C     0.56489   0.39645   0.44933   0.00000  Uiso   1.00
C711   C     0.60499   0.40770   0.45259   0.00000  Uiso   1.00
C712   C     0.52407   0.12876   0.53314   0.00000  Uiso   1.00
C713   C     0.52289   0.09450   0.55890   0.00000  Uiso   1.00
C714   C     0.56102   0.07933   0.56726   0.00000  Uiso   1.00
C715   C     0.63617   0.05467   0.46952   0.00000  Uiso   1.00
C716   C     0.59493   0.05460   0.46164   0.00000  Uiso   1.00
C717   C     0.58592   0.04883   0.41870   0.00000  Uiso   1.00
C718   C     0.87089   0.02333   0.53175   0.00000  Uiso   1.00
C719   C     0.90584   0.02174   0.55622   0.00000  Uiso   1.00
C720   C     0.96714   0.25758   0.08228   0.00000  Uiso   1.00
C721   C     0.92478   0.05887   0.55838   0.00000  Uiso   1.00
C722   C     0.67330   0.40111   0.97344   0.00000  Uiso   1.00
C723   C     0.65857   0.36766   0.95174   0.00000  Uiso   1.00
C724   C     0.61968   0.35834   0.96451   0.00000  Uiso   1.00
C725   C     0.73829   0.11962   0.03065   0.00000  Uiso   1.00
C726   C     0.74645   0.15091   0.00225   0.00000  Uiso   1.00
C727   C     0.72038   0.18308   0.00801   0.00000  Uiso   1.00
C728   C     0.59490   0.16751   0.97324   0.00000  Uiso   1.00
C729   C     0.62599   0.15075   0.94935   0.00000  Uiso   1.00
C730   C     0.63564   0.11231   0.96354   0.00000  Uiso   1.00
C731   C     0.50013   0.24987   0.39823   0.00000  Uiso   1.00
C732   C     0.87701   0.25132   0.02216   0.00000  Uiso   1.00
C733   C     0.84465   0.24756   0.04997   0.00000  Uiso   1.00
C734   C     0.81540   0.22232   0.03332   0.00000  Uiso   1.00
C735   C     0.82660   0.09894   0.97335   0.00000  Uiso   1.00
C736   C     0.84131   0.13238   0.95156   0.00000  Uiso   1.00
C737   C     0.88019   0.14174   0.96434   0.00000  Uiso   1.00
C738   C     0.76166   0.38038   0.03085   0.00000  Uiso   1.00
C739   C     0.75352   0.34914   0.00241   0.00000  Uiso   1.00
C740   C     0.77963   0.31698   0.00816   0.00000  Uiso   1.00
C741   C     0.90508   0.33250   0.97304   0.00000  Uiso   1.00
C742   C     0.50005   0.24987   0.60213   0.00000  Uiso   1.00
C743   C     0.87390   0.34924   0.94920   0.00000  Uiso   1.00
C744   C     0.86428   0.38768   0.96332   0.00000  Uiso   1.00
C745   C     0.62298   0.24867   0.02230   0.00000  Uiso   1.00
C746   C     0.65537   0.25236   0.05011   0.00000  Uiso   1.00
C747   C     0.68460   0.27765   0.03350   0.00000  Uiso   1.00
C748   C     0.56106   0.30972   0.38467   0.00000  Uiso   1.00
C749   C     0.58643   0.28040   0.40321   0.00000  Uiso   1.00
C750   C     0.62584   0.28529   0.38958   0.00000  Uiso   1.00
C751   C     0.53825   0.17716   0.62212   0.00000  Uiso   1.00
C752   C     0.57294   0.19517   0.60463   0.00000  Uiso   1.00
C753   C     0.74954   0.49985   0.39814   0.00000  Uiso   1.00
C754   C     0.60743   0.18127   0.62492   0.00000  Uiso   1.00
C755   C     0.68674   0.05678   0.38220   0.00000  Uiso   1.00
C756   C     0.71298   0.08482   0.40136   0.00000  Uiso   1.00
C757   C     0.70629   0.12325   0.38540   0.00000  Uiso   1.00
C758   C     0.82254   0.03880   0.62081   0.00000  Uiso   1.00
C759   C     0.80432   0.07314   0.60264   0.00000  Uiso   1.00
C760   C     0.81905   0.10808   0.62124   0.00000  Uiso   1.00
C761   C     0.93913   0.19036   0.38497   0.00000  Uiso   1.00
C762   C     0.91402   0.21965   0.40388   0.00000  Uiso   1.00
C763   C     0.87451   0.21510   0.39039   0.00000  Uiso   1.00
C764   C     0.50262   0.21633   0.58219   0.00000  Uiso   1.00
C765   C     0.74971   0.00014   0.60209   0.00000  Uiso   1.00
C766   C     0.96150   0.32264   0.62092   0.00000  Uiso   1.00
C767   C     0.92718   0.30451   0.60278   0.00000  Uiso   1.00
C768   C     0.89228   0.31888   0.62181   0.00000  Uiso   1.00
C769   C     0.80989   0.43961   0.38478   0.00000  Uiso   1.00
C770   C     0.78066   0.41410   0.40316   0.00000  Uiso   1.00
C771   C     0.78596   0.37465   0.38972   0.00000  Uiso   1.00
C772   C     0.67727   0.46136   0.62109   0.00000  Uiso   1.00
C773   C     0.69555   0.42713   0.60283   0.00000  Uiso   1.00
C774   C     0.68116   0.39209   0.62156   0.00000  Uiso   1.00
C775   C     0.82721   0.04153   0.89177   0.00000  Uiso   1.00
C776   C     0.75002   0.49999   0.89843   0.00000  Uiso   1.00
C777   C     0.84197   0.00780   0.91435   0.00000  Uiso   1.00
C778   C     0.88236   0.00129   0.90553   0.00000  Uiso   1.00
C779   C     0.77009   0.42157   0.12450   0.00000  Uiso   1.00
C780   C     0.80844   0.42927   0.10727   0.00000  Uiso   1.00
C781   C     0.83807   0.40838   0.12941   0.00000  Uiso   1.00
C782   C     0.96668   0.33176   0.89410   0.00000  Uiso   1.00
C783   C     0.50012   0.34281   0.91931   0.00000  Uiso   1.00
C784   C     0.51084   0.38258   0.91196   0.00000  Uiso   1.00
C785   C     0.57945   0.26237   0.12521   0.00000  Uiso   1.00
C786   C     0.57807   0.30070   0.10619   0.00000  Uiso   1.00
C787   C     0.74997   0.49999   0.10216   0.00000  Uiso   1.00
C788   C     0.60061   0.32831   0.12931   0.00000  Uiso   1.00
C789   C     0.67282   0.45843   0.89171   0.00000  Uiso   1.00
C790   C     0.65807   0.49220   0.91416   0.00000  Uiso   1.00
C791   C     0.61768   0.49871   0.90527   0.00000  Uiso   1.00
C792   C     0.72969   0.07837   0.12428   0.00000  Uiso   1.00
C793   C     0.69138   0.07059   0.10694   0.00000  Uiso   1.00
C794   C     0.66166   0.09135   0.12901   0.00000  Uiso   1.00
C795   C     0.53308   0.16813   0.89437   0.00000  Uiso   1.00
C796   C     0.99977   0.15711   0.91974   0.00000  Uiso   1.00
C797   C     0.98898   0.11735   0.91253   0.00000  Uiso   1.00
C798   C     0.99996   0.24996   0.89857   0.00000  Uiso   1.00
C799   C     0.92057   0.23766   0.12513   0.00000  Uiso   1.00
C800   C     0.92199   0.19933   0.10617   0.00000  Uiso   1.00
C801   C     0.89943   0.17170   0.12927   0.00000  Uiso   1.00
C802   C     0.50001   0.25004   0.10226   0.00000  Uiso   1.00
C803   C     0.98707   0.18394   0.48018   0.00000  Uiso   1.00
C804   C     0.50679   0.31661   0.52024   0.00000  Uiso   1.00
C805   C     0.81529   0.48648   0.48013   0.00000  Uiso   1.00
C806   C     0.68269   0.00657   0.52032   0.00000  Uiso   1.00
C807   C     0.51441   0.31549   0.48006   0.00000  Uiso   1.00
C808   C     0.71785   0.01103   0.41807   0.00000  Uiso   1.00
C809   C     0.99442   0.18291   0.52042   0.00000  Uiso   1.00
C810   C     0.68358   0.01355   0.47993   0.00000  Uiso   1.00
C811   C     0.81638   0.49411   0.52029   0.00000  Uiso   1.00
C812   C     0.72355   0.43846   0.98015   0.00000  Uiso   1.00
C813   C     0.76727   0.06460   0.01978   0.00000  Uiso   1.00
C814   C     0.55954   0.21935   0.98009   0.00000  Uiso   1.00
C815   C     0.93656   0.27166   0.01985   0.00000  Uiso   1.00
C816   C     0.77640   0.06154   0.98009   0.00000  Uiso   1.00
C817   C     0.73267   0.43539   0.01986   0.00000  Uiso   1.00
C818   C     0.94042   0.28065   0.97998   0.00000  Uiso   1.00
C819   C     0.78311   0.00261   0.58201   0.00000  Uiso   1.00
C820   C     0.56342   0.22835   0.01994   0.00000  Uiso   1.00
C821   C     0.74983   0.49997   0.35584   0.00000  Uiso   1.00
C822   C     0.74987   0.00003   0.64424   0.00000  Uiso   1.00
C823   C     0.50002   0.24993   0.35587   0.00000  Uiso   1.00
C824   C     0.50000   0.24998   0.64426   0.00000  Uiso   1.00
C825   C     0.99999   0.24999   0.85601   0.00000  Uiso   1.00
C826   C     0.50001   0.25001   0.14428   0.00000  Uiso   1.00
C827   C     0.75001  -0.00000   0.85595   0.00000  Uiso   1.00
C828   C     0.74999  -0.00000   0.14426   0.00000  Uiso   1.00
C829   C     0.68003   0.07000   0.24998   0.00000  Uiso   1.00
C830   C     0.98815   0.21858   0.41839   0.00000  Uiso   1.00
C831   C     0.82001   0.43002   0.74997   0.00000  Uiso   1.00
C832   C     0.92999   0.18003   0.24997   0.00000  Uiso   1.00
C833   C     0.56998   0.32002   0.74997   0.00000  Uiso   1.00
C834   C     0.81996   0.42999   0.24999   0.00000  Uiso   1.00
C835   C     0.67999   0.06998   0.74994   0.00000  Uiso   1.00
C836   C     0.57002   0.31998   0.24997   0.00000  Uiso   1.00
C837   C     0.93001   0.17998   0.74998   0.00000  Uiso   1.00
C838   C     0.67998   0.43003   0.74993   0.00000  Uiso   1.00
C839   C     0.81998   0.07003   0.24997   0.00000  Uiso   1.00
C840   C     0.93004   0.32001   0.74993   0.00000  Uiso   1.00
C841   C     0.99780   0.28334   0.58200   0.00000  Uiso   1.00
C842   C     0.57001   0.18003   0.24997   0.00000  Uiso   1.00
C843   C     0.82002   0.06998   0.74993   0.00000  Uiso   1.00
C844   C     0.68002   0.42997   0.24997   0.00000  Uiso   1.00
C845   C     0.56996   0.17998   0.74994   0.00000  Uiso   1.00
C846   C     0.92999   0.31998   0.24994   0.00000  Uiso   1.00
C847   C     0.61546   0.41147   0.25844   0.00000  Uiso   1.00
C848   C     0.88455   0.08846   0.74127   0.00000  Uiso   1.00
C849   C     0.58915   0.11605   0.26151   0.00000  Uiso   1.00
C850   C     0.91139   0.38444   0.74057   0.00000  Uiso   1.00
C851   C     0.88454   0.08852   0.25848   0.00000  Uiso   1.00
C852   C     0.78089   0.48815   0.41833   0.00000  Uiso   1.00
C853   C     0.61546   0.41154   0.74116   0.00000  Uiso   1.00
C854   C     0.91103   0.38410   0.26070   0.00000  Uiso   1.00
C855   C     0.58862   0.11559   0.74041   0.00000  Uiso   1.00
C856   C     0.61557   0.08862   0.74049   0.00000  Uiso   1.00
C857   C     0.88404   0.41104   0.26080   0.00000  Uiso   1.00
C858   C     0.58849   0.38462   0.74128   0.00000  Uiso   1.00
C859   C     0.91147   0.11546   0.25851   0.00000  Uiso   1.00
C860   C     0.88445   0.41143   0.74070   0.00000  Uiso   1.00
C861   C     0.61614   0.08910   0.26160   0.00000  Uiso   1.00
C862   C     0.91152   0.11537   0.74139   0.00000  Uiso   1.00
C863   C     0.71619   0.49790   0.58206   0.00000  Uiso   1.00
C864   C     0.58853   0.38453   0.25846   0.00000  Uiso   1.00
C865   C     0.86542   0.16151   0.75821   0.00000  Uiso   1.00
C866   C     0.63459   0.33841   0.24148   0.00000  Uiso   1.00
C867   C     0.83864   0.36552   0.75886   0.00000  Uiso   1.00
C868   C     0.66094   0.13398   0.23840   0.00000  Uiso   1.00
C869   C     0.63457   0.33849   0.75831   0.00000  Uiso   1.00
C870   C     0.86541   0.16159   0.24141   0.00000  Uiso   1.00
C871   C     0.66135   0.13444   0.75896   0.00000  Uiso   1.00
C872   C     0.83890   0.36588   0.23905   0.00000  Uiso   1.00
C873   C     0.86588   0.33892   0.23899   0.00000  Uiso   1.00
C874   C     0.76963   0.02709   0.91870   0.00000  Uiso   1.00
C875   C     0.63439   0.16139   0.75897   0.00000  Uiso   1.00
C876   C     0.83848   0.13464   0.24136   0.00000  Uiso   1.00
C877   C     0.66151   0.36542   0.75829   0.00000  Uiso   1.00
C878   C     0.63396   0.16095   0.23837   0.00000  Uiso   1.00
C879   C     0.86559   0.33857   0.75883   0.00000  Uiso   1.00
C880   C     0.66152   0.36536   0.24143   0.00000  Uiso   1.00
C881   C     0.83849   0.13458   0.75818   0.00000  Uiso   1.00
C882   C     0.99204   0.21706   0.45926   0.00000  Uiso   1.00
C883   C     0.50192   0.28351   0.54116   0.00000  Uiso   1.00
C884   C     0.78222   0.49171   0.45920   0.00000  Uiso   1.00
H885   H     0.92350   0.15999   0.46019   0.00000  Uiso   1.00
H886   H     0.98807   0.39879   0.58628   0.00000  Uiso   1.00
H887   H     0.89673   0.33285   0.00409   0.00000  Uiso   1.00
H888   H     0.88180   0.35054   0.91804   0.00000  Uiso   1.00
H889   H     0.84931   0.33153   0.95154   0.00000  Uiso   1.00
H890   H     0.85537   0.38689   0.99421   0.00000  Uiso   1.00
H891   H     0.84155   0.39892   0.94547   0.00000  Uiso   1.00
H892   H     0.88832   0.40607   0.96049   0.00000  Uiso   1.00
H893   H     0.61106   0.27638   0.01704   0.00000  Uiso   1.00
H894   H     0.63371   0.23781   0.99441   0.00000  Uiso   1.00
H895   H     0.64605   0.26376   0.07823   0.00000  Uiso   1.00
H896   H     0.66738   0.22492   0.05571   0.00000  Uiso   1.00
H897   H     0.99649   0.42569   0.54345   0.00000  Uiso   1.00
H898   H     0.69494   0.26696   0.00533   0.00000  Uiso   1.00
H899   H     0.70786   0.27956   0.05420   0.00000  Uiso   1.00
H900   H     0.67302   0.30547   0.02903   0.00000  Uiso   1.00
H901   H     0.62150   0.45734   0.29118   0.00000  Uiso   1.00
H902   H     0.61007   0.46504   0.24390   0.00000  Uiso   1.00
H903   H     0.87844   0.04284   0.70818   0.00000  Uiso   1.00
H904   H     0.88979   0.03479   0.75543   0.00000  Uiso   1.00
H905   H     0.54547   0.12389   0.29697   0.00000  Uiso   1.00
H906   H     0.53485   0.11066   0.25095   0.00000  Uiso   1.00
H907   H     0.95650   0.37794   0.70682   0.00000  Uiso   1.00
H908   H     0.92977   0.43183   0.53171   0.00000  Uiso   1.00
H909   H     0.96522   0.38965   0.75379   0.00000  Uiso   1.00
H910   H     0.87851   0.04262   0.29123   0.00000  Uiso   1.00
H911   H     0.88994   0.03497   0.24397   0.00000  Uiso   1.00
H912   H     0.62159   0.45714   0.70797   0.00000  Uiso   1.00
H913   H     0.61022   0.46522   0.75518   0.00000  Uiso   1.00
H914   H     0.95533   0.37667   0.29547   0.00000  Uiso   1.00
H915   H     0.96514   0.38953   0.24912   0.00000  Uiso   1.00
H916   H     0.54358   0.12224   0.70653   0.00000  Uiso   1.00
H917   H     0.53476   0.11037   0.75344   0.00000  Uiso   1.00
H918   H     0.62213   0.04329   0.70704   0.00000  Uiso   1.00
H919   H     0.94127   0.44654   0.58031   0.00000  Uiso   1.00
H920   H     0.61025   0.03484   0.75402   0.00000  Uiso   1.00
H921   H     0.87656   0.45510   0.29587   0.00000  Uiso   1.00
H922   H     0.88928   0.46528   0.24956   0.00000  Uiso   1.00
H923   H     0.54262   0.37858   0.70854   0.00000  Uiso   1.00
H924   H     0.53498   0.39003   0.75579   0.00000  Uiso   1.00
H925   H     0.95721   0.12150   0.29145   0.00000  Uiso   1.00
H926   H     0.96505   0.11010   0.24420   0.00000  Uiso   1.00
H927   H     0.87795   0.45695   0.70743   0.00000  Uiso   1.00
H928   H     0.88981   0.46513   0.75447   0.00000  Uiso   1.00
H929   H     0.62413   0.04564   0.29744   0.00000  Uiso   1.00
H930   H     0.92009   0.40261   0.57306   0.00000  Uiso   1.00
H931   H     0.61095   0.03468   0.25148   0.00000  Uiso   1.00
H932   H     0.95742   0.12141   0.70875   0.00000  Uiso   1.00
H933   H     0.96501   0.10996   0.75605   0.00000  Uiso   1.00
H934   H     0.54279   0.37848   0.29135   0.00000  Uiso   1.00
H935   H     0.53496   0.38990   0.24408   0.00000  Uiso   1.00
H936   H     0.87135   0.20748   0.79081   0.00000  Uiso   1.00
H937   H     0.86005   0.21503   0.74346   0.00000  Uiso   1.00
H938   H     0.62855   0.29235   0.20899   0.00000  Uiso   1.00
H939   H     0.64002   0.28493   0.25630   0.00000  Uiso   1.00
H940   H     0.79313   0.37182   0.79208   0.00000  Uiso   1.00
H941   H     0.83914   0.42233   0.46043   0.00000  Uiso   1.00
H942   H     0.78496   0.36016   0.74498   0.00000  Uiso   1.00
H943   H     0.70466   0.12611   0.20297   0.00000  Uiso   1.00
H944   H     0.71524   0.13934   0.24899   0.00000  Uiso   1.00
H945   H     0.62862   0.29253   0.79099   0.00000  Uiso   1.00
H946   H     0.63995   0.28497   0.74368   0.00000  Uiso   1.00
H947   H     0.87145   0.20766   0.20888   0.00000  Uiso   1.00
H948   H     0.85998   0.21507   0.25616   0.00000  Uiso   1.00
H949   H     0.70683   0.12802   0.79227   0.00000  Uiso   1.00
H950   H     0.71504   0.13984   0.74522   0.00000  Uiso   1.00
H951   H     0.79468   0.37339   0.20416   0.00000  Uiso   1.00
H952   H     0.86407   0.43899   0.50171   0.00000  Uiso   1.00
H953   H     0.78475   0.36052   0.25048   0.00000  Uiso   1.00
H954   H     0.87336   0.29483   0.20396   0.00000  Uiso   1.00
H955   H     0.86063   0.28469   0.25027   0.00000  Uiso   1.00
H956   H     0.62795   0.20685   0.79226   0.00000  Uiso   1.00
H957   H     0.63974   0.21512   0.74521   0.00000  Uiso   1.00
H958   H     0.79268   0.12863   0.20850   0.00000  Uiso   1.00
H959   H     0.78492   0.13999   0.25576   0.00000  Uiso   1.00
H960   H     0.70746   0.37139   0.79092   0.00000  Uiso   1.00
H961   H     0.71498   0.36001   0.74362   0.00000  Uiso   1.00
H962   H     0.62601   0.20460   0.20277   0.00000  Uiso   1.00
H963   H     0.89398   0.44349   0.41832   0.00000  Uiso   1.00
H964   H     0.63922   0.21532   0.24877   0.00000  Uiso   1.00
H965   H     0.87199   0.29295   0.79196   0.00000  Uiso   1.00
H966   H     0.86021   0.28491   0.74486   0.00000  Uiso   1.00
H967   H     0.70733   0.37139   0.20863   0.00000  Uiso   1.00
H968   H     0.71507   0.36001   0.25592   0.00000  Uiso   1.00
H969   H     0.79250   0.12863   0.79072   0.00000  Uiso   1.00
H970   H     0.78502   0.14000   0.74337   0.00000  Uiso   1.00
H971   H     0.57350   0.33693   0.38989   0.00000  Uiso   1.00
H972   H     0.56129   0.30676   0.35258   0.00000  Uiso   1.00
H973   H     0.58578   0.28228   0.43542   0.00000  Uiso   1.00
H974   H     0.91774   0.45239   0.46307   0.00000  Uiso   1.00
H975   H     0.57736   0.25251   0.39483   0.00000  Uiso   1.00
H976   H     0.62743   0.28299   0.35738   0.00000  Uiso   1.00
H977   H     0.64335   0.26370   0.40272   0.00000  Uiso   1.00
H978   H     0.63641   0.31247   0.39869   0.00000  Uiso   1.00
H979   H     0.54275   0.14714   0.62228   0.00000  Uiso   1.00
H980   H     0.53536   0.18438   0.65327   0.00000  Uiso   1.00
H981   H     0.57511   0.18927   0.57313   0.00000  Uiso   1.00
H982   H     0.57192   0.22533   0.60810   0.00000  Uiso   1.00
H983   H     0.60632   0.18753   0.65652   0.00000  Uiso   1.00
H984   H     0.63183   0.19490   0.61227   0.00000  Uiso   1.00
H985   H     0.90758   0.38594   0.48267   0.00000  Uiso   1.00
H986   H     0.61032   0.15124   0.62092   0.00000  Uiso   1.00
H987   H     0.65852   0.06749   0.38495   0.00000  Uiso   1.00
H988   H     0.69135   0.05584   0.35038   0.00000  Uiso   1.00
H989   H     0.70908   0.08523   0.43337   0.00000  Uiso   1.00
H990   H     0.74188   0.07737   0.39534   0.00000  Uiso   1.00
H991   H     0.72574   0.14272   0.39907   0.00000  Uiso   1.00
H992   H     0.67795   0.13228   0.39208   0.00000  Uiso   1.00
H993   H     0.71051   0.12370   0.35339   0.00000  Uiso   1.00
H994   H     0.85254   0.04324   0.62040   0.00000  Uiso   1.00
H995   H     0.81559   0.03667   0.65211   0.00000  Uiso   1.00
H996   H     0.94011   0.13412   0.50094   0.00000  Uiso   1.00
H997   H     0.93401   0.39102   0.43862   0.00000  Uiso   1.00
H998   H     0.80937   0.07427   0.57089   0.00000  Uiso   1.00
H999   H     0.77428   0.07246   0.60717   0.00000  Uiso   1.00
H1000  H     0.80510   0.13224   0.60836   0.00000  Uiso   1.00
H1001  H     0.84892   0.11060   0.61592   0.00000  Uiso   1.00
H1002  H     0.81391   0.10786   0.65310   0.00000  Uiso   1.00
H1003  H     0.92651   0.16320   0.38997   0.00000  Uiso   1.00
H1004  H     0.93880   0.19359   0.35292   0.00000  Uiso   1.00
H1005  H     0.91484   0.21748   0.43607   0.00000  Uiso   1.00
H1006  H     0.92319   0.24757   0.39567   0.00000  Uiso   1.00
H1007  H     0.87276   0.21769   0.35823   0.00000  Uiso   1.00
H1008  H     0.88646   0.37811   0.43581   0.00000  Uiso   1.00
H1009  H     0.85719   0.23668   0.40379   0.00000  Uiso   1.00
H1010  H     0.86383   0.18791   0.39934   0.00000  Uiso   1.00
H1011  H     0.95694   0.35266   0.62071   0.00000  Uiso   1.00
H1012  H     0.96377   0.31555   0.65218   0.00000  Uiso   1.00
H1013  H     0.92582   0.30994   0.57111   0.00000  Uiso   1.00
H1014  H     0.92803   0.27440   0.60691   0.00000  Uiso   1.00
H1015  H     0.86814   0.30504   0.60887   0.00000  Uiso   1.00
H1016  H     0.88958   0.34883   0.61694   0.00000  Uiso   1.00
H1017  H     0.89270   0.31329   0.65358   0.00000  Uiso   1.00
H1018  H     0.83712   0.42722   0.39010   0.00000  Uiso   1.00
H1019  H     0.64396   0.45234   0.54030   0.00000  Uiso   1.00
H1020  H     0.80705   0.43939   0.35267   0.00000  Uiso   1.00
H1021  H     0.78226   0.41485   0.43538   0.00000  Uiso   1.00
H1022  H     0.75276   0.42296   0.39449   0.00000  Uiso   1.00
H1023  H     0.76442   0.35705   0.40271   0.00000  Uiso   1.00
H1024  H     0.81313   0.36425   0.39914   0.00000  Uiso   1.00
H1025  H     0.78391   0.37295   0.35751   0.00000  Uiso   1.00
H1026  H     0.64730   0.45668   0.62099   0.00000  Uiso   1.00
H1027  H     0.68445   0.46357   0.65232   0.00000  Uiso   1.00
H1028  H     0.69030   0.42597   0.57111   0.00000  Uiso   1.00
H1029  H     0.72562   0.42796   0.60713   0.00000  Uiso   1.00
H1030  H     0.61975   0.47574   0.50205   0.00000  Uiso   1.00
H1031  H     0.68653   0.39232   0.65338   0.00000  Uiso   1.00
H1032  H     0.69516   0.36802   0.60861   0.00000  Uiso   1.00
H1033  H     0.65127   0.38939   0.61644   0.00000  Uiso   1.00
H1034  H     0.84500   0.06518   0.89871   0.00000  Uiso   1.00
H1035  H     0.83118   0.03702   0.86015   0.00000  Uiso   1.00
H1036  H     0.83890   0.01203   0.94617   0.00000  Uiso   1.00
H1037  H     0.82655   0.48285   0.90583   0.00000  Uiso   1.00
H1038  H     0.88635   0.49638   0.87392   0.00000  Uiso   1.00
H1039  H     0.89211   0.47687   0.92180   0.00000  Uiso   1.00
H1040  H     0.89886   0.02534   0.91460   0.00000  Uiso   1.00
H1041  H     0.60089   0.48858   0.58787   0.00000  Uiso   1.00
H1042  H     0.76707   0.39143   0.12731   0.00000  Uiso   1.00
H1043  H     0.76825   0.43194   0.15474   0.00000  Uiso   1.00
H1044  H     0.80948   0.42111   0.07630   0.00000  Uiso   1.00
H1045  H     0.81481   0.45892   0.10899   0.00000  Uiso   1.00
H1046  H     0.86526   0.41460   0.11664   0.00000  Uiso   1.00
H1047  H     0.83328   0.37841   0.12740   0.00000  Uiso   1.00
H1048  H     0.83825   0.41666   0.16047   0.00000  Uiso   1.00
H1049  H     0.94435   0.35148   0.90016   0.00000  Uiso   1.00
H1050  H     0.97346   0.33611   0.86300   0.00000  Uiso   1.00
H1051  H     0.99362   0.33964   0.95068   0.00000  Uiso   1.00
H1052  H     0.57451   0.49948   0.54532   0.00000  Uiso   1.00
H1053  H     0.52401   0.32523   0.91212   0.00000  Uiso   1.00
H1054  H     0.53484   0.38975   0.93024   0.00000  Uiso   1.00
H1055  H     0.98785   0.40115   0.91960   0.00000  Uiso   1.00
H1056  H     0.51823   0.38661   0.88091   0.00000  Uiso   1.00
H1057  H     0.60852   0.25537   0.13083   0.00000  Uiso   1.00
H1058  H     0.56711   0.26297   0.15462   0.00000  Uiso   1.00
H1059  H     0.58877   0.29940   0.07609   0.00000  Uiso   1.00
H1060  H     0.54939   0.31072   0.10496   0.00000  Uiso   1.00
H1061  H     0.59911   0.35553   0.11498   0.00000  Uiso   1.00
H1062  H     0.62973   0.31965   0.13058   0.00000  Uiso   1.00
H1063  H     0.56563   0.43320   0.53153   0.00000  Uiso   1.00
H1064  H     0.58972   0.33086   0.15934   0.00000  Uiso   1.00
H1065  H     0.65504   0.43479   0.89872   0.00000  Uiso   1.00
H1066  H     0.66884   0.46290   0.86008   0.00000  Uiso   1.00
H1067  H     0.66112   0.48801   0.94600   0.00000  Uiso   1.00
H1068  H     0.67349   0.01714   0.90559   0.00000  Uiso   1.00
H1069  H     0.61369   0.00358   0.87364   0.00000  Uiso   1.00
H1070  H     0.60793   0.02315   0.92144   0.00000  Uiso   1.00
H1071  H     0.60117   0.47467   0.91439   0.00000  Uiso   1.00
H1072  H     0.73263   0.10852   0.12705   0.00000  Uiso   1.00
H1073  H     0.73150   0.06802   0.15454   0.00000  Uiso   1.00
H1074  H     0.55084   0.44437   0.58022   0.00000  Uiso   1.00
H1075  H     0.69036   0.07881   0.07597   0.00000  Uiso   1.00
H1076  H     0.68509   0.04092   0.10863   0.00000  Uiso   1.00
H1077  H     0.66143   0.08295   0.16006   0.00000  Uiso   1.00
H1078  H     0.63451   0.08511   0.11613   0.00000  Uiso   1.00
H1079  H     0.66639   0.12133   0.12709   0.00000  Uiso   1.00
H1080  H     0.55542   0.14836   0.90033   0.00000  Uiso   1.00
H1081  H     0.52613   0.16381   0.86331   0.00000  Uiso   1.00
H1082  H     0.50642   0.16029   0.95108   0.00000  Uiso   1.00
H1083  H     0.97585   0.17471   0.91263   0.00000  Uiso   1.00
H1084  H     0.96507   0.11020   0.93094   0.00000  Uiso   1.00
H1085  H     0.59385   0.42127   0.57303   0.00000  Uiso   1.00
H1086  H     0.51199   0.09877   0.92010   0.00000  Uiso   1.00
H1087  H     0.98141   0.11332   0.88152   0.00000  Uiso   1.00
H1088  H     0.89150   0.24464   0.13068   0.00000  Uiso   1.00
H1089  H     0.93289   0.23705   0.15456   0.00000  Uiso   1.00
H1090  H     0.91132   0.20063   0.07604   0.00000  Uiso   1.00
H1091  H     0.95067   0.18933   0.10502   0.00000  Uiso   1.00
H1092  H     0.91029   0.16915   0.15933   0.00000  Uiso   1.00
H1093  H     0.90096   0.14449   0.11499   0.00000  Uiso   1.00
H1094  H     0.87031   0.18036   0.13046   0.00000  Uiso   1.00
H1095  H     0.57843   0.33962   0.46021   0.00000  Uiso   1.00
H1096  H     0.94482   0.10616   0.41680   0.00000  Uiso   1.00
H1097  H     0.56159   0.36439   0.50157   0.00000  Uiso   1.00
H1098  H     0.55748   0.39428   0.41806   0.00000  Uiso   1.00
H1099  H     0.54738   0.41798   0.46257   0.00000  Uiso   1.00
H1100  H     0.61352   0.40880   0.48357   0.00000  Uiso   1.00
H1101  H     0.60883   0.43518   0.43937   0.00000  Uiso   1.00
H1102  H     0.62262   0.38779   0.43693   0.00000  Uiso   1.00
H1103  H     0.54898   0.14486   0.53989   0.00000  Uiso   1.00
H1104  H     0.52580   0.11984   0.50228   0.00000  Uiso   1.00
H1105  H     0.50951   0.10099   0.58710   0.00000  Uiso   1.00
H1106  H     0.50633   0.07308   0.54422   0.00000  Uiso   1.00
H1107  H     0.95394   0.08137   0.46090   0.00000  Uiso   1.00
H1108  H     0.57482   0.07143   0.53985   0.00000  Uiso   1.00
H1109  H     0.55873   0.05478   0.58617   0.00000  Uiso   1.00
H1110  H     0.57794   0.10002   0.58257   0.00000  Uiso   1.00
H1111  H     0.64910   0.07621   0.45155   0.00000  Uiso   1.00
H1112  H     0.64028   0.06275   0.50039   0.00000  Uiso   1.00
H1113  H     0.58183   0.03259   0.47906   0.00000  Uiso   1.00
H1114  H     0.58317   0.08127   0.47092   0.00000  Uiso   1.00
H1115  H     0.59596   0.07229   0.40118   0.00000  Uiso   1.00
H1116  H     0.55580   0.04704   0.41501   0.00000  Uiso   1.00
H1117  H     0.59838   0.02305   0.40782   0.00000  Uiso   1.00
H1118  H     0.88747   0.09103   0.48082   0.00000  Uiso   1.00
H1119  H     0.85552   0.04866   0.53885   0.00000  Uiso   1.00
H1120  H     0.87898   0.02448   0.50063   0.00000  Uiso   1.00
H1121  H     0.89930   0.01253   0.58622   0.00000  Uiso   1.00
H1122  H     0.92495   0.00154   0.54319   0.00000  Uiso   1.00
H1123  H     0.93415   0.06741   0.52907   0.00000  Uiso   1.00
H1124  H     0.94890   0.05680   0.57789   0.00000  Uiso   1.00
H1125  H     0.90595   0.07992   0.57035   0.00000  Uiso   1.00
H1126  H     0.65512   0.42495   0.96773   0.00000  Uiso   1.00
H1127  H     0.67235   0.39490   0.00506   0.00000  Uiso   1.00
H1128  H     0.65874   0.37297   0.91992   0.00000  Uiso   1.00
H1129  H     0.89269   0.06531   0.43631   0.00000  Uiso   1.00
H1130  H     0.67655   0.34372   0.95749   0.00000  Uiso   1.00
H1131  H     0.61908   0.35179   0.99608   0.00000  Uiso   1.00
H1132  H     0.60977   0.33412   0.94811   0.00000  Uiso   1.00
H1133  H     0.60104   0.38173   0.95861   0.00000  Uiso   1.00
H1134  H     0.72980   0.13150   0.05897   0.00000  Uiso   1.00
H1135  H     0.71443   0.10363   0.01952   0.00000  Uiso   1.00
H1136  H     0.77486   0.16064   0.00655   0.00000  Uiso   1.00
H1137  H     0.74363   0.14092   0.97190   0.00000  Uiso   1.00
H1138  H     0.69153   0.17375   0.00646   0.00000  Uiso   1.00
H1139  H     0.72512   0.20389   0.98499   0.00000  Uiso   1.00
H1140  H     0.87948   0.11289   0.43435   0.00000  Uiso   1.00
H1141  H     0.72537   0.19599   0.03677   0.00000  Uiso   1.00
H1142  H     0.56998   0.15031   0.96995   0.00000  Uiso   1.00
H1143  H     0.60335   0.16717   0.00427   0.00000  Uiso   1.00
H1144  H     0.61797   0.14943   0.91822   0.00000  Uiso   1.00
H1145  H     0.65059   0.16845   0.95158   0.00000  Uiso   1.00
H1146  H     0.64465   0.11311   0.99441   0.00000  Uiso   1.00
H1147  H     0.65832   0.10106   0.94566   0.00000  Uiso   1.00
H1148  H     0.61159   0.09392   0.96081   0.00000  Uiso   1.00
H1149  H     0.88894   0.22363   0.01689   0.00000  Uiso   1.00
H1150  H     0.86623   0.26223   0.99427   0.00000  Uiso   1.00
H1151  H     0.95187   0.35494   0.53795   0.00000  Uiso   1.00
H1152  H     0.85400   0.23608   0.07807   0.00000  Uiso   1.00
H1153  H     0.83265   0.27498   0.05561   0.00000  Uiso   1.00
H1154  H     0.80501   0.23309   0.00517   0.00000  Uiso   1.00
H1155  H     0.79217   0.22034   0.05403   0.00000  Uiso   1.00
H1156  H     0.82698   0.19451   0.02881   0.00000  Uiso   1.00
H1157  H     0.84480   0.07511   0.96771   0.00000  Uiso   1.00
H1158  H     0.82756   0.10518   0.00494   0.00000  Uiso   1.00
H1159  H     0.84112   0.12704   0.91975   0.00000  Uiso   1.00
H1160  H     0.82331   0.15632   0.95723   0.00000  Uiso   1.00
H1161  H     0.88080   0.14832   0.99589   0.00000  Uiso   1.00
H1162  H     0.97612   0.37947   0.50060   0.00000  Uiso   1.00
H1163  H     0.89008   0.16595   0.94787   0.00000  Uiso   1.00
H1164  H     0.89884   0.11835   0.95852   0.00000  Uiso   1.00
H1165  H     0.77012   0.36844   0.05918   0.00000  Uiso   1.00
H1166  H     0.78553   0.39637   0.01978   0.00000  Uiso   1.00
H1167  H     0.72512   0.33936   0.00669   0.00000  Uiso   1.00
H1168  H     0.75632   0.35919   0.97207   0.00000  Uiso   1.00
H1169  H     0.80847   0.32635   0.00661   0.00000  Uiso   1.00
H1170  H     0.77489   0.29622   0.98513   0.00000  Uiso   1.00
H1171  H     0.77469   0.30402   0.03692   0.00000  Uiso   1.00
H1172  H     0.92997   0.34971   0.96965   0.00000  Uiso   1.00
N1173  N     0.60526   0.44834   0.26804   0.00000  Uiso   1.00
N1174  N     0.89362   0.44741   0.27286   0.00000  Uiso   1.00
N1175  N     0.55164   0.39484   0.73165   0.00000  Uiso   1.00
N1176  N     0.94830   0.10526   0.26827   0.00000  Uiso   1.00
N1177  N     0.89446   0.44820   0.73050   0.00000  Uiso   1.00
N1178  N     0.60679   0.05290   0.27447   0.00000  Uiso   1.00
N1179  N     0.94838   0.10515   0.73187   0.00000  Uiso   1.00
N1180  N     0.55171   0.39473   0.26817   0.00000  Uiso   1.00
N1181  N     0.85518   0.19841   0.76765   0.00000  Uiso   1.00
N1182  N     0.64481   0.30151   0.23205   0.00000  Uiso   1.00
N1183  N     0.80189   0.35543   0.76896   0.00000  Uiso   1.00
N1184  N     0.89469   0.05163   0.73142   0.00000  Uiso   1.00
N1185  N     0.69717   0.14344   0.22583   0.00000  Uiso   1.00
N1186  N     0.64481   0.30160   0.76784   0.00000  Uiso   1.00
N1187  N     0.85519   0.19850   0.23193   0.00000  Uiso   1.00
N1188  N     0.69809   0.14450   0.76917   0.00000  Uiso   1.00
N1189  N     0.80251   0.35627   0.22711   0.00000  Uiso   1.00
N1190  N     0.85630   0.30254   0.22696   0.00000  Uiso   1.00
N1191  N     0.64442   0.19814   0.76918   0.00000  Uiso   1.00
N1192  N     0.80164   0.14485   0.23167   0.00000  Uiso   1.00
N1193  N     0.69838   0.35517   0.76780   0.00000  Uiso   1.00
N1194  N     0.64335   0.19719   0.22568   0.00000  Uiso   1.00
N1195  N     0.55293   0.10657   0.27410   0.00000  Uiso   1.00
N1196  N     0.85554   0.30177   0.76888   0.00000  Uiso   1.00
N1197  N     0.69836   0.35515   0.23180   0.00000  Uiso   1.00
N1198  N     0.80161   0.14484   0.76758   0.00000  Uiso   1.00
N1199  N     0.94805   0.39442   0.73002   0.00000  Uiso   1.00
N1200  N     0.89475   0.05165   0.26810   0.00000  Uiso   1.00
N1201  N     0.60533   0.44836   0.73120   0.00000  Uiso   1.00
N1202  N     0.94743   0.39376   0.27253   0.00000  Uiso   1.00
N1203  N     0.55198   0.10567   0.72971   0.00000  Uiso   1.00
N1204  N     0.60559   0.05190   0.73011   0.00000  Uiso   1.00
O1205  O     0.75000   0.00000   0.25000   0.00000  Uiso   1.00
O1206  O     0.75000   0.46964   0.66245   0.00000  Uiso   1.00
O1207  O     0.96964   0.25000   0.33755   0.00000  Uiso   1.00
O1208  O     0.53037   0.25000   0.66245   0.00000  Uiso   1.00
O1209  O     0.50000   0.21963   0.83755   0.00000  Uiso   1.00
O1210  O     0.50000   0.28036   0.16245   0.00000  Uiso   1.00
O1211  O     0.78037   0.00000   0.83755   0.00000  Uiso   1.00
O1212  O     0.71964   0.00000   0.16245   0.00000  Uiso   1.00
O1213  O     0.50000   0.28036   0.83755   0.00000  Uiso   1.00
O1214  O     0.50000   0.21963   0.16245   0.00000  Uiso   1.00
O1215  O     0.71964  -0.00000   0.83755   0.00000  Uiso   1.00
O1216  O     0.75000   0.00000   0.75000   0.00000  Uiso   1.00
O1217  O     0.78037   0.00000   0.16245   0.00000  Uiso   1.00
O1218  O     0.70725   0.07308   0.27302   0.00000  Uiso   1.00
O1219  O     0.79276   0.42693   0.72698   0.00000  Uiso   1.00
O1220  O     0.92693   0.20725   0.27302   0.00000  Uiso   1.00
O1221  O     0.57308   0.29275   0.72698   0.00000  Uiso   1.00
O1222  O     0.79276   0.42693   0.27302   0.00000  Uiso   1.00
O1223  O     0.70725   0.07308   0.72698   0.00000  Uiso   1.00
O1224  O     0.57308   0.29275   0.27302   0.00000  Uiso   1.00
O1225  O     0.92693   0.20725   0.72698   0.00000  Uiso   1.00
O1226  O     0.70725   0.42693   0.72698   0.00000  Uiso   1.00
O1227  O     0.50000   0.25000   0.25000   0.00000  Uiso   1.00
O1228  O     0.79276   0.07308   0.27302   0.00000  Uiso   1.00
O1229  O     0.92693   0.29276   0.72698   0.00000  Uiso   1.00
O1230  O     0.57308   0.20724   0.27302   0.00000  Uiso   1.00
O1231  O     0.79276   0.07308   0.72698   0.00000  Uiso   1.00
O1232  O     0.70725   0.42693   0.27302   0.00000  Uiso   1.00
O1233  O     0.57308   0.20724   0.72698   0.00000  Uiso   1.00
O1234  O     0.92693   0.29276   0.27302   0.00000  Uiso   1.00
O1235  O     0.95725   0.32308   0.77302   0.00000  Uiso   1.00
O1236  O     0.54276   0.17692   0.22698   0.00000  Uiso   1.00
O1237  O     0.67693   0.45724   0.77302   0.00000  Uiso   1.00
O1238  O     0.50000   0.25000   0.75000   0.00000  Uiso   1.00
O1239  O     0.82308   0.04276   0.22698   0.00000  Uiso   1.00
O1240  O     0.54276   0.17692   0.77302   0.00000  Uiso   1.00
O1241  O     0.95725   0.32308   0.22698   0.00000  Uiso   1.00
O1242  O     0.82308   0.04276   0.77302   0.00000  Uiso   1.00
O1243  O     0.67693   0.45724   0.22698   0.00000  Uiso   1.00
O1244  O     0.95725   0.17693   0.22698   0.00000  Uiso   1.00
O1245  O     0.54276   0.32307   0.77302   0.00000  Uiso   1.00
O1246  O     0.67693   0.04276   0.22698   0.00000  Uiso   1.00
O1247  O     0.82308   0.45725   0.77302   0.00000  Uiso   1.00
O1248  O     0.54276   0.32307   0.22698   0.00000  Uiso   1.00
O1249  O     0.75000   0.46964   0.33755   0.00000  Uiso   1.00
O1250  O     0.95725   0.17693   0.77302   0.00000  Uiso   1.00
O1251  O     0.82308   0.45725   0.22698   0.00000  Uiso   1.00
O1252  O     0.67693   0.04276   0.77302   0.00000  Uiso   1.00
O1253  O     0.97986   0.15146   0.46070   0.00000  Uiso   1.00
O1254  O     0.50863   0.34983   0.53967   0.00000  Uiso   1.00
O1255  O     0.84766   0.47867   0.46073   0.00000  Uiso   1.00
O1256  O     0.64963   0.00908   0.53999   0.00000  Uiso   1.00
O1257  O     0.52207   0.34788   0.46055   0.00000  Uiso   1.00
O1258  O     0.99217   0.14975   0.53996   0.00000  Uiso   1.00
O1259  O     0.65101   0.01986   0.46014   0.00000  Uiso   1.00
O1260  O     0.75000   0.03037   0.66245   0.00000  Uiso   1.00
O1261  O     0.84955   0.49197   0.53984   0.00000  Uiso   1.00
O1262  O     0.70935   0.40848   0.96051   0.00000  Uiso   1.00
O1263  O     0.77017   0.09841   0.03775   0.00000  Uiso   1.00
O1264  O     0.58835   0.20356   0.95979   0.00000  Uiso   1.00
O1265  O     0.90299   0.27576   0.03832   0.00000  Uiso   1.00
O1266  O     0.79055   0.09154   0.96040   0.00000  Uiso   1.00
O1267  O     0.72978   0.40158   0.03787   0.00000  Uiso   1.00
O1268  O     0.91161   0.29646   0.95963   0.00000  Uiso   1.00
O1269  O     0.59700   0.22423   0.03845   0.00000  Uiso   1.00
O1270  O     0.52395   0.31165   0.39768   0.00000  Uiso   1.00
O1271  O     0.53037   0.25000   0.33755   0.00000  Uiso   1.00
O1272  O     0.50440   0.18339   0.60244   0.00000  Uiso   1.00
O1273  O     0.68653   0.02037   0.39737   0.00000  Uiso   1.00
O1274  O     0.81605   0.00448   0.60220   0.00000  Uiso   1.00
O1275  O     0.97625   0.18806   0.39793   0.00000  Uiso   1.00
O1276  O     0.99573   0.31633   0.60208   0.00000  Uiso   1.00
O1277  O     0.81159   0.47673   0.39785   0.00000  Uiso   1.00
O1278  O     0.68332   0.49569   0.60229   0.00000  Uiso   1.00
O1279  O     0.79016   0.05266   0.89837   0.00000  Uiso   1.00
O1280  O     0.73958   0.43396   0.10216   0.00000  Uiso   1.00
O1281  O     0.95192   0.29573   0.89881   0.00000  Uiso   1.00
O1282  O     0.96964   0.25000   0.66245   0.00000  Uiso   1.00
O1283  O     0.56471   0.23327   0.10246   0.00000  Uiso   1.00
O1284  O     0.70988   0.44732   0.89838   0.00000  Uiso   1.00
O1285  O     0.76026   0.06604   0.10206   0.00000  Uiso   1.00
O1286  O     0.54794   0.20413   0.89899   0.00000  Uiso   1.00
O1287  O     0.93531   0.26678   0.10237   0.00000  Uiso   1.00
O1288  O     0.75000   0.03037   0.33755   0.00000  Uiso   1.00
Zn1289 Zn    0.70660   0.00000   0.21735   0.00000  Uiso   1.00
Zn1290 Zn    0.54341   0.25000   0.28265   0.00000  Uiso   1.00
Zn1291 Zn    0.75000   0.45660   0.71735   0.00000  Uiso   1.00
Zn1292 Zn    0.75000   0.04341   0.28265   0.00000  Uiso   1.00
Zn1293 Zn    0.54341   0.25000   0.71735   0.00000  Uiso   1.00
Zn1294 Zn    0.95660   0.25000   0.28265   0.00000  Uiso   1.00
Zn1295 Zn    0.75000   0.04341   0.71735   0.00000  Uiso   1.00
Zn1296 Zn    0.75000   0.45660   0.28265   0.00000  Uiso   1.00
Zn1297 Zn    0.79341   0.00000   0.78265   0.00000  Uiso   1.00
Zn1298 Zn    0.50000   0.20659   0.21735   0.00000  Uiso   1.00
Zn1299 Zn    0.50000   0.29340   0.78265   0.00000  Uiso   1.00
Zn1300 Zn    0.79341   0.00000   0.21735   0.00000  Uiso   1.00
Zn1301 Zn    0.70660   0.00000   0.78265   0.00000  Uiso   1.00
Zn1302 Zn    0.50000   0.29340   0.21735   0.00000  Uiso   1.00
Zn1303 Zn    0.50000   0.20659   0.78265   0.00000  Uiso   1.00
Zn1304 Zn    0.95660   0.25000   0.71735   0.00000  Uiso   1.00
C1305  C     0.01245   0.78104   0.41829   0.00000  Uiso   1.00
C1306  C     0.24555   0.96659   0.08215   0.00000  Uiso   1.00
C1307  C     0.21586   0.50188   0.54118   0.00000  Uiso   1.00
C1308  C     0.00908   0.78244   0.45919   0.00000  Uiso   1.00
C1309  C     0.49901   0.71606   0.54128   0.00000  Uiso   1.00
C1310  C     0.21665   0.50819   0.45906   0.00000  Uiso   1.00
C1311  C     0.28329   0.99889   0.54114   0.00000  Uiso   1.00
C1312  C     0.23454   0.97008   0.95943   0.00000  Uiso   1.00
C1313  C     0.25741   0.53291   0.04117   0.00000  Uiso   1.00
C1314  C     0.02853   0.73226   0.95962   0.00000  Uiso   1.00
C1315  C     0.46772   0.76010   0.04129   0.00000  Uiso   1.00
C1316  C     0.26544   0.52991   0.95940   0.00000  Uiso   1.00
C1317  C     0.47492   0.77212   0.91892   0.00000  Uiso   1.00
C1318  C     0.24254   0.96708   0.04121   0.00000  Uiso   1.00
C1319  C     0.47141   0.76771   0.95955   0.00000  Uiso   1.00
C1320  C     0.03228   0.73994   0.04133   0.00000  Uiso   1.00
C1321  C     0.09808   0.84800   0.24996   0.00000  Uiso   1.00
C1322  C     0.40197   0.65191   0.74992   0.00000  Uiso   1.00
C1323  C     0.15200   0.59807   0.24999   0.00000  Uiso   1.00
C1324  C     0.34808   0.90198   0.74990   0.00000  Uiso   1.00
C1325  C     0.40192   0.65200   0.24996   0.00000  Uiso   1.00
C1326  C     0.09803   0.84808   0.74991   0.00000  Uiso   1.00
C1327  C     0.34799   0.90192   0.24999   0.00000  Uiso   1.00
C1328  C     0.03287   0.74248   0.08232   0.00000  Uiso   1.00
C1329  C     0.15193   0.59804   0.74983   0.00000  Uiso   1.00
C1330  C     0.09800   0.65194   0.74984   0.00000  Uiso   1.00
C1331  C     0.40193   0.84804   0.24986   0.00000  Uiso   1.00
C1332  C     0.15194   0.90198   0.74982   0.00000  Uiso   1.00
C1333  C     0.34802   0.59810   0.24993   0.00000  Uiso   1.00
C1334  C     0.40198   0.84805   0.74980   0.00000  Uiso   1.00
C1335  C     0.09808   0.65197   0.24994   0.00000  Uiso   1.00
C1336  C     0.34806   0.59803   0.74981   0.00000  Uiso   1.00
C1337  C     0.15197   0.90190   0.24995   0.00000  Uiso   1.00
C1338  C     0.00058   0.74975   0.47970   0.00000  Uiso   1.00
C1339  C     0.23040   0.97289   0.91871   0.00000  Uiso   1.00
C1340  C     0.00054   0.74977   0.52075   0.00000  Uiso   1.00
C1341  C     0.24949   0.50021   0.47961   0.00000  Uiso   1.00
C1342  C     0.24954   0.50038   0.52066   0.00000  Uiso   1.00
C1343  C     0.24999   0.99999   0.97986   0.00000  Uiso   1.00
C1344  C     0.24998   0.99999   0.02085   0.00000  Uiso   1.00
C1345  C     0.49998   0.75000   0.98006   0.00000  Uiso   1.00
C1346  C     0.49999   0.75002   0.02101   0.00000  Uiso   1.00
C1347  C     0.44401   0.63931   0.46938   0.00000  Uiso   1.00
C1348  C     0.43687   0.60339   0.44785   0.00000  Uiso   1.00
C1349  C     0.39660   0.59253   0.45006   0.00000  Uiso   1.00
C1350  C     0.25437   0.53340   0.08210   0.00000  Uiso   1.00
C1351  C     0.47700   0.87085   0.53159   0.00000  Uiso   1.00
C1352  C     0.47765   0.90541   0.55673   0.00000  Uiso   1.00
C1353  C     0.43975   0.92257   0.56056   0.00000  Uiso   1.00
C1354  C     0.35961   0.94282   0.47000   0.00000  Uiso   1.00
C1355  C     0.39598   0.93547   0.44943   0.00000  Uiso   1.00
C1356  C     0.40662   0.89510   0.45188   0.00000  Uiso   1.00
C1357  C     0.12835   0.97747   0.53297   0.00000  Uiso   1.00
C1358  C     0.09383   0.97926   0.55805   0.00000  Uiso   1.00
C1359  C     0.07494   0.94213   0.56075   0.00000  Uiso   1.00
C1360  C     0.05781   0.85998   0.46985   0.00000  Uiso   1.00
C1361  C     0.02499   0.72780   0.91901   0.00000  Uiso   1.00
C1362  C     0.06489   0.89645   0.44933   0.00000  Uiso   1.00
C1363  C     0.10499   0.90770   0.45259   0.00000  Uiso   1.00
C1364  C     0.02407   0.62876   0.53314   0.00000  Uiso   1.00
C1365  C     0.02289   0.59450   0.55890   0.00000  Uiso   1.00
C1366  C     0.06102   0.57933   0.56726   0.00000  Uiso   1.00
C1367  C     0.13617   0.55467   0.46952   0.00000  Uiso   1.00
C1368  C     0.09493   0.55460   0.46164   0.00000  Uiso   1.00
C1369  C     0.08592   0.54883   0.41870   0.00000  Uiso   1.00
C1370  C     0.37089   0.52333   0.53175   0.00000  Uiso   1.00
C1371  C     0.40584   0.52174   0.55622   0.00000  Uiso   1.00
C1372  C     0.46714   0.75758   0.08228   0.00000  Uiso   1.00
C1373  C     0.42478   0.55887   0.55838   0.00000  Uiso   1.00
C1374  C     0.17330   0.90111   0.97344   0.00000  Uiso   1.00
C1375  C     0.15857   0.86766   0.95174   0.00000  Uiso   1.00
C1376  C     0.11968   0.85834   0.96451   0.00000  Uiso   1.00
C1377  C     0.23829   0.61962   0.03065   0.00000  Uiso   1.00
C1378  C     0.24645   0.65091   0.00225   0.00000  Uiso   1.00
C1379  C     0.22038   0.68308   0.00801   0.00000  Uiso   1.00
C1380  C     0.09490   0.66751   0.97324   0.00000  Uiso   1.00
C1381  C     0.12599   0.65075   0.94935   0.00000  Uiso   1.00
C1382  C     0.13564   0.61231   0.96354   0.00000  Uiso   1.00
C1383  C     0.00013   0.74987   0.39823   0.00000  Uiso   1.00
C1384  C     0.37701   0.75132   0.02216   0.00000  Uiso   1.00
C1385  C     0.34465   0.74756   0.04997   0.00000  Uiso   1.00
C1386  C     0.31540   0.72232   0.03332   0.00000  Uiso   1.00
C1387  C     0.32660   0.59894   0.97335   0.00000  Uiso   1.00
C1388  C     0.34131   0.63238   0.95156   0.00000  Uiso   1.00
C1389  C     0.38019   0.64174   0.96434   0.00000  Uiso   1.00
C1390  C     0.26166   0.88038   0.03085   0.00000  Uiso   1.00
C1391  C     0.25352   0.84914   0.00241   0.00000  Uiso   1.00
C1392  C     0.27963   0.81698   0.00816   0.00000  Uiso   1.00
C1393  C     0.40508   0.83250   0.97304   0.00000  Uiso   1.00
C1394  C     0.00005   0.74987   0.60213   0.00000  Uiso   1.00
C1395  C     0.37390   0.84924   0.94920   0.00000  Uiso   1.00
C1396  C     0.36428   0.88768   0.96332   0.00000  Uiso   1.00
C1397  C     0.12298   0.74867   0.02230   0.00000  Uiso   1.00
C1398  C     0.15537   0.75236   0.05011   0.00000  Uiso   1.00
C1399  C     0.18460   0.77765   0.03350   0.00000  Uiso   1.00
C1400  C     0.06106   0.80972   0.38467   0.00000  Uiso   1.00
C1401  C     0.08643   0.78040   0.40321   0.00000  Uiso   1.00
C1402  C     0.12584   0.78529   0.38958   0.00000  Uiso   1.00
C1403  C     0.03825   0.67716   0.62212   0.00000  Uiso   1.00
C1404  C     0.07294   0.69517   0.60463   0.00000  Uiso   1.00
C1405  C     0.24954   0.99985   0.39814   0.00000  Uiso   1.00
C1406  C     0.10743   0.68127   0.62492   0.00000  Uiso   1.00
C1407  C     0.18674   0.55678   0.38220   0.00000  Uiso   1.00
C1408  C     0.21298   0.58482   0.40136   0.00000  Uiso   1.00
C1409  C     0.20629   0.62325   0.38540   0.00000  Uiso   1.00
C1410  C     0.32254   0.53880   0.62081   0.00000  Uiso   1.00
C1411  C     0.30432   0.57314   0.60264   0.00000  Uiso   1.00
C1412  C     0.31905   0.60808   0.62124   0.00000  Uiso   1.00
C1413  C     0.43913   0.69036   0.38497   0.00000  Uiso   1.00
C1414  C     0.41402   0.71965   0.40388   0.00000  Uiso   1.00
C1415  C     0.37451   0.71510   0.39039   0.00000  Uiso   1.00
C1416  C     0.00262   0.71633   0.58219   0.00000  Uiso   1.00
C1417  C     0.24971   0.50014   0.60209   0.00000  Uiso   1.00
C1418  C     0.46150   0.82264   0.62092   0.00000  Uiso   1.00
C1419  C     0.42718   0.80451   0.60278   0.00000  Uiso   1.00
C1420  C     0.39228   0.81888   0.62181   0.00000  Uiso   1.00
C1421  C     0.30989   0.93961   0.38478   0.00000  Uiso   1.00
C1422  C     0.28066   0.91410   0.40316   0.00000  Uiso   1.00
C1423  C     0.28596   0.87465   0.38972   0.00000  Uiso   1.00
C1424  C     0.17727   0.96136   0.62109   0.00000  Uiso   1.00
C1425  C     0.19555   0.92713   0.60283   0.00000  Uiso   1.00
C1426  C     0.18116   0.89209   0.62156   0.00000  Uiso   1.00
C1427  C     0.32721   0.54153   0.89177   0.00000  Uiso   1.00
C1428  C     0.25002   0.99999   0.89843   0.00000  Uiso   1.00
C1429  C     0.34197   0.50780   0.91435   0.00000  Uiso   1.00
C1430  C     0.38236   0.50129   0.90553   0.00000  Uiso   1.00
C1431  C     0.27009   0.92157   0.12450   0.00000  Uiso   1.00
C1432  C     0.30844   0.92927   0.10727   0.00000  Uiso   1.00
C1433  C     0.33807   0.90838   0.12941   0.00000  Uiso   1.00
C1434  C     0.46668   0.83176   0.89410   0.00000  Uiso   1.00
C1435  C     0.00012   0.84281   0.91931   0.00000  Uiso   1.00
C1436  C     0.01084   0.88258   0.91196   0.00000  Uiso   1.00
C1437  C     0.07945   0.76237   0.12521   0.00000  Uiso   1.00
C1438  C     0.07807   0.80070   0.10619   0.00000  Uiso   1.00
C1439  C     0.24997   0.99999   0.10216   0.00000  Uiso   1.00
C1440  C     0.10061   0.82831   0.12931   0.00000  Uiso   1.00
C1441  C     0.17282   0.95843   0.89171   0.00000  Uiso   1.00
C1442  C     0.15807   0.99220   0.91416   0.00000  Uiso   1.00
C1443  C     0.11768   0.99871   0.90527   0.00000  Uiso   1.00
C1444  C     0.22969   0.57837   0.12428   0.00000  Uiso   1.00
C1445  C     0.19138   0.57059   0.10694   0.00000  Uiso   1.00
C1446  C     0.16166   0.59135   0.12901   0.00000  Uiso   1.00
C1447  C     0.03308   0.66813   0.89437   0.00000  Uiso   1.00
C1448  C     0.49977   0.65711   0.91974   0.00000  Uiso   1.00
C1449  C     0.48898   0.61735   0.91253   0.00000  Uiso   1.00
C1450  C     0.49996   0.74996   0.89857   0.00000  Uiso   1.00
C1451  C     0.42057   0.73766   0.12513   0.00000  Uiso   1.00
C1452  C     0.42199   0.69933   0.10617   0.00000  Uiso   1.00
C1453  C     0.39943   0.67170   0.12927   0.00000  Uiso   1.00
C1454  C     0.00001   0.75004   0.10226   0.00000  Uiso   1.00
C1455  C     0.48707   0.68394   0.48018   0.00000  Uiso   1.00
C1456  C     0.00679   0.81661   0.52024   0.00000  Uiso   1.00
C1457  C     0.31529   0.98648   0.48013   0.00000  Uiso   1.00
C1458  C     0.18269   0.50657   0.52032   0.00000  Uiso   1.00
C1459  C     0.01441   0.81549   0.48006   0.00000  Uiso   1.00
C1460  C     0.21785   0.51103   0.41807   0.00000  Uiso   1.00
C1461  C     0.49442   0.68291   0.52042   0.00000  Uiso   1.00
C1462  C     0.18358   0.51355   0.47993   0.00000  Uiso   1.00
C1463  C     0.31638   0.99411   0.52029   0.00000  Uiso   1.00
C1464  C     0.22355   0.93846   0.98015   0.00000  Uiso   1.00
C1465  C     0.26727   0.56460   0.01978   0.00000  Uiso   1.00
C1466  C     0.05954   0.71935   0.98009   0.00000  Uiso   1.00
C1467  C     0.43656   0.77166   0.01985   0.00000  Uiso   1.00
C1468  C     0.27640   0.56154   0.98009   0.00000  Uiso   1.00
C1469  C     0.23267   0.93539   0.01986   0.00000  Uiso   1.00
C1470  C     0.44042   0.78065   0.97998   0.00000  Uiso   1.00
C1471  C     0.28311   0.50261   0.58201   0.00000  Uiso   1.00
C1472  C     0.06342   0.72835   0.01994   0.00000  Uiso   1.00
C1473  C     0.24983   0.99997   0.35584   0.00000  Uiso   1.00
C1474  C     0.24987   0.50003   0.64424   0.00000  Uiso   1.00
C1475  C     0.00002   0.74993   0.35587   0.00000  Uiso   1.00
C1476  C    -0.00000   0.74998   0.64426   0.00000  Uiso   1.00
C1477  C     0.49999   0.74999   0.85601   0.00000  Uiso   1.00
C1478  C     0.00001   0.75001   0.14428   0.00000  Uiso   1.00
C1479  C     0.25001   0.50000   0.85595   0.00000  Uiso   1.00
C1480  C     0.24999   0.50000   0.14426   0.00000  Uiso   1.00
C1481  C     0.18003   0.57000   0.24998   0.00000  Uiso   1.00
C1482  C     0.48815   0.71858   0.41839   0.00000  Uiso   1.00
C1483  C     0.32001   0.93002   0.74997   0.00000  Uiso   1.00
C1484  C     0.42999   0.68003   0.24997   0.00000  Uiso   1.00
C1485  C     0.06998   0.82002   0.74997   0.00000  Uiso   1.00
C1486  C     0.31996   0.92999   0.24999   0.00000  Uiso   1.00
C1487  C     0.17999   0.56998   0.74994   0.00000  Uiso   1.00
C1488  C     0.07002   0.81998   0.24997   0.00000  Uiso   1.00
C1489  C     0.43001   0.67998   0.74998   0.00000  Uiso   1.00
C1490  C     0.17998   0.93003   0.74993   0.00000  Uiso   1.00
C1491  C     0.31998   0.57003   0.24997   0.00000  Uiso   1.00
C1492  C     0.43004   0.82001   0.74993   0.00000  Uiso   1.00
C1493  C     0.49780   0.78334   0.58200   0.00000  Uiso   1.00
C1494  C     0.07001   0.68003   0.24997   0.00000  Uiso   1.00
C1495  C     0.32002   0.56998   0.74993   0.00000  Uiso   1.00
C1496  C     0.18002   0.92997   0.24997   0.00000  Uiso   1.00
C1497  C     0.06996   0.67998   0.74994   0.00000  Uiso   1.00
C1498  C     0.42999   0.81998   0.24994   0.00000  Uiso   1.00
C1499  C     0.11546   0.91147   0.25844   0.00000  Uiso   1.00
C1500  C     0.38455   0.58846   0.74127   0.00000  Uiso   1.00
C1501  C     0.08915   0.61605   0.26151   0.00000  Uiso   1.00
C1502  C     0.41139   0.88444   0.74057   0.00000  Uiso   1.00
C1503  C     0.38454   0.58852   0.25848   0.00000  Uiso   1.00
C1504  C     0.28089   0.98815   0.41833   0.00000  Uiso   1.00
C1505  C     0.11546   0.91154   0.74116   0.00000  Uiso   1.00
C1506  C     0.41103   0.88410   0.26070   0.00000  Uiso   1.00
C1507  C     0.08862   0.61559   0.74041   0.00000  Uiso   1.00
C1508  C     0.11557   0.58862   0.74049   0.00000  Uiso   1.00
C1509  C     0.38404   0.91104   0.26080   0.00000  Uiso   1.00
C1510  C     0.08849   0.88462   0.74128   0.00000  Uiso   1.00
C1511  C     0.41147   0.61546   0.25851   0.00000  Uiso   1.00
C1512  C     0.38445   0.91143   0.74070   0.00000  Uiso   1.00
C1513  C     0.11614   0.58910   0.26160   0.00000  Uiso   1.00
C1514  C     0.41152   0.61537   0.74139   0.00000  Uiso   1.00
C1515  C     0.21619   0.99790   0.58206   0.00000  Uiso   1.00
C1516  C     0.08853   0.88453   0.25846   0.00000  Uiso   1.00
C1517  C     0.36542   0.66151   0.75821   0.00000  Uiso   1.00
C1518  C     0.13459   0.83841   0.24148   0.00000  Uiso   1.00
C1519  C     0.33864   0.86552   0.75886   0.00000  Uiso   1.00
C1520  C     0.16094   0.63398   0.23840   0.00000  Uiso   1.00
C1521  C     0.13457   0.83849   0.75831   0.00000  Uiso   1.00
C1522  C     0.36541   0.66159   0.24141   0.00000  Uiso   1.00
C1523  C     0.16135   0.63444   0.75896   0.00000  Uiso   1.00
C1524  C     0.33890   0.86588   0.23905   0.00000  Uiso   1.00
C1525  C     0.36588   0.83892   0.23899   0.00000  Uiso   1.00
C1526  C     0.26963   0.52709   0.91870   0.00000  Uiso   1.00
C1527  C     0.13439   0.66139   0.75897   0.00000  Uiso   1.00
C1528  C     0.33848   0.63464   0.24136   0.00000  Uiso   1.00
C1529  C     0.16151   0.86542   0.75829   0.00000  Uiso   1.00
C1530  C     0.13396   0.66095   0.23837   0.00000  Uiso   1.00
C1531  C     0.36559   0.83857   0.75883   0.00000  Uiso   1.00
C1532  C     0.16152   0.86536   0.24143   0.00000  Uiso   1.00
C1533  C     0.33849   0.63458   0.75818   0.00000  Uiso   1.00
C1534  C     0.49204   0.71706   0.45926   0.00000  Uiso   1.00
C1535  C     0.00192   0.78351   0.54116   0.00000  Uiso   1.00
C1536  C     0.28222   0.99171   0.45920   0.00000  Uiso   1.00
H1537  H     0.42350   0.65999   0.46019   0.00000  Uiso   1.00
H1538  H     0.48807   0.89879   0.58628   0.00000  Uiso   1.00
H1539  H     0.39673   0.83285   0.00409   0.00000  Uiso   1.00
H1540  H     0.38180   0.85054   0.91804   0.00000  Uiso   1.00
H1541  H     0.34931   0.83153   0.95154   0.00000  Uiso   1.00
H1542  H     0.35537   0.88689   0.99421   0.00000  Uiso   1.00
H1543  H     0.34155   0.89892   0.94547   0.00000  Uiso   1.00
H1544  H     0.38832   0.90607   0.96049   0.00000  Uiso   1.00
H1545  H     0.11106   0.77638   0.01704   0.00000  Uiso   1.00
H1546  H     0.13371   0.73781   0.99441   0.00000  Uiso   1.00
H1547  H     0.14605   0.76376   0.07823   0.00000  Uiso   1.00
H1548  H     0.16738   0.72492   0.05571   0.00000  Uiso   1.00
H1549  H     0.49649   0.92569   0.54345   0.00000  Uiso   1.00
H1550  H     0.19494   0.76696   0.00533   0.00000  Uiso   1.00
H1551  H     0.20786   0.77956   0.05420   0.00000  Uiso   1.00
H1552  H     0.17302   0.80547   0.02903   0.00000  Uiso   1.00
H1553  H     0.12150   0.95734   0.29118   0.00000  Uiso   1.00
H1554  H     0.11007   0.96504   0.24390   0.00000  Uiso   1.00
H1555  H     0.37844   0.54284   0.70818   0.00000  Uiso   1.00
H1556  H     0.38979   0.53479   0.75543   0.00000  Uiso   1.00
H1557  H     0.04547   0.62389   0.29697   0.00000  Uiso   1.00
H1558  H     0.03485   0.61066   0.25095   0.00000  Uiso   1.00
H1559  H     0.45650   0.87794   0.70682   0.00000  Uiso   1.00
H1560  H     0.42977   0.93183   0.53171   0.00000  Uiso   1.00
H1561  H     0.46522   0.88965   0.75379   0.00000  Uiso   1.00
H1562  H     0.37851   0.54262   0.29123   0.00000  Uiso   1.00
H1563  H     0.38994   0.53497   0.24397   0.00000  Uiso   1.00
H1564  H     0.12159   0.95714   0.70797   0.00000  Uiso   1.00
H1565  H     0.11022   0.96522   0.75518   0.00000  Uiso   1.00
H1566  H     0.45533   0.87667   0.29547   0.00000  Uiso   1.00
H1567  H     0.46514   0.88953   0.24912   0.00000  Uiso   1.00
H1568  H     0.04358   0.62224   0.70653   0.00000  Uiso   1.00
H1569  H     0.03476   0.61037   0.75344   0.00000  Uiso   1.00
H1570  H     0.12213   0.54329   0.70704   0.00000  Uiso   1.00
H1571  H     0.44127   0.94654   0.58031   0.00000  Uiso   1.00
H1572  H     0.11025   0.53484   0.75402   0.00000  Uiso   1.00
H1573  H     0.37656   0.95510   0.29587   0.00000  Uiso   1.00
H1574  H     0.38928   0.96528   0.24956   0.00000  Uiso   1.00
H1575  H     0.04262   0.87858   0.70854   0.00000  Uiso   1.00
H1576  H     0.03498   0.89003   0.75579   0.00000  Uiso   1.00
H1577  H     0.45721   0.62150   0.29145   0.00000  Uiso   1.00
H1578  H     0.46505   0.61010   0.24420   0.00000  Uiso   1.00
H1579  H     0.37795   0.95695   0.70743   0.00000  Uiso   1.00
H1580  H     0.38981   0.96513   0.75447   0.00000  Uiso   1.00
H1581  H     0.12413   0.54564   0.29744   0.00000  Uiso   1.00
H1582  H     0.42009   0.90261   0.57306   0.00000  Uiso   1.00
H1583  H     0.11095   0.53468   0.25148   0.00000  Uiso   1.00
H1584  H     0.45742   0.62141   0.70875   0.00000  Uiso   1.00
H1585  H     0.46501   0.60996   0.75605   0.00000  Uiso   1.00
H1586  H     0.04279   0.87848   0.29135   0.00000  Uiso   1.00
H1587  H     0.03496   0.88990   0.24408   0.00000  Uiso   1.00
H1588  H     0.37135   0.70748   0.79081   0.00000  Uiso   1.00
H1589  H     0.36005   0.71503   0.74346   0.00000  Uiso   1.00
H1590  H     0.12855   0.79235   0.20899   0.00000  Uiso   1.00
H1591  H     0.14002   0.78493   0.25630   0.00000  Uiso   1.00
H1592  H     0.29313   0.87182   0.79208   0.00000  Uiso   1.00
H1593  H     0.33914   0.92233   0.46043   0.00000  Uiso   1.00
H1594  H     0.28496   0.86016   0.74498   0.00000  Uiso   1.00
H1595  H     0.20466   0.62611   0.20297   0.00000  Uiso   1.00
H1596  H     0.21524   0.63934   0.24899   0.00000  Uiso   1.00
H1597  H     0.12862   0.79253   0.79099   0.00000  Uiso   1.00
H1598  H     0.13995   0.78497   0.74368   0.00000  Uiso   1.00
H1599  H     0.37145   0.70766   0.20888   0.00000  Uiso   1.00
H1600  H     0.35998   0.71507   0.25616   0.00000  Uiso   1.00
H1601  H     0.20683   0.62802   0.79227   0.00000  Uiso   1.00
H1602  H     0.21504   0.63984   0.74522   0.00000  Uiso   1.00
H1603  H     0.29468   0.87339   0.20416   0.00000  Uiso   1.00
H1604  H     0.36407   0.93899   0.50171   0.00000  Uiso   1.00
H1605  H     0.28475   0.86052   0.25048   0.00000  Uiso   1.00
H1606  H     0.37336   0.79483   0.20396   0.00000  Uiso   1.00
H1607  H     0.36063   0.78469   0.25027   0.00000  Uiso   1.00
H1608  H     0.12795   0.70685   0.79226   0.00000  Uiso   1.00
H1609  H     0.13974   0.71512   0.74521   0.00000  Uiso   1.00
H1610  H     0.29268   0.62863   0.20850   0.00000  Uiso   1.00
H1611  H     0.28492   0.63999   0.25576   0.00000  Uiso   1.00
H1612  H     0.20746   0.87139   0.79092   0.00000  Uiso   1.00
H1613  H     0.21498   0.86001   0.74362   0.00000  Uiso   1.00
H1614  H     0.12601   0.70460   0.20277   0.00000  Uiso   1.00
H1615  H     0.39398   0.94349   0.41832   0.00000  Uiso   1.00
H1616  H     0.13922   0.71532   0.24877   0.00000  Uiso   1.00
H1617  H     0.37199   0.79295   0.79196   0.00000  Uiso   1.00
H1618  H     0.36021   0.78491   0.74486   0.00000  Uiso   1.00
H1619  H     0.20733   0.87139   0.20863   0.00000  Uiso   1.00
H1620  H     0.21507   0.86001   0.25592   0.00000  Uiso   1.00
H1621  H     0.29250   0.62863   0.79072   0.00000  Uiso   1.00
H1622  H     0.28502   0.64000   0.74337   0.00000  Uiso   1.00
H1623  H     0.07350   0.83693   0.38989   0.00000  Uiso   1.00
H1624  H     0.06129   0.80676   0.35258   0.00000  Uiso   1.00
H1625  H     0.08578   0.78228   0.43542   0.00000  Uiso   1.00
H1626  H     0.41774   0.95239   0.46307   0.00000  Uiso   1.00
H1627  H     0.07736   0.75251   0.39483   0.00000  Uiso   1.00
H1628  H     0.12743   0.78299   0.35738   0.00000  Uiso   1.00
H1629  H     0.14335   0.76370   0.40272   0.00000  Uiso   1.00
H1630  H     0.13641   0.81247   0.39869   0.00000  Uiso   1.00
H1631  H     0.04275   0.64714   0.62228   0.00000  Uiso   1.00
H1632  H     0.03536   0.68438   0.65327   0.00000  Uiso   1.00
H1633  H     0.07511   0.68927   0.57313   0.00000  Uiso   1.00
H1634  H     0.07192   0.72533   0.60810   0.00000  Uiso   1.00
H1635  H     0.10632   0.68753   0.65652   0.00000  Uiso   1.00
H1636  H     0.13183   0.69490   0.61227   0.00000  Uiso   1.00
H1637  H     0.40758   0.88594   0.48267   0.00000  Uiso   1.00
H1638  H     0.11032   0.65124   0.62092   0.00000  Uiso   1.00
H1639  H     0.15852   0.56749   0.38495   0.00000  Uiso   1.00
H1640  H     0.19135   0.55584   0.35038   0.00000  Uiso   1.00
H1641  H     0.20908   0.58523   0.43337   0.00000  Uiso   1.00
H1642  H     0.24188   0.57737   0.39534   0.00000  Uiso   1.00
H1643  H     0.22574   0.64272   0.39907   0.00000  Uiso   1.00
H1644  H     0.17795   0.63228   0.39208   0.00000  Uiso   1.00
H1645  H     0.21051   0.62370   0.35339   0.00000  Uiso   1.00
H1646  H     0.35254   0.54324   0.62040   0.00000  Uiso   1.00
H1647  H     0.31559   0.53667   0.65211   0.00000  Uiso   1.00
H1648  H     0.44011   0.63412   0.50094   0.00000  Uiso   1.00
H1649  H     0.43401   0.89102   0.43862   0.00000  Uiso   1.00
H1650  H     0.30937   0.57427   0.57089   0.00000  Uiso   1.00
H1651  H     0.27428   0.57246   0.60717   0.00000  Uiso   1.00
H1652  H     0.30510   0.63224   0.60836   0.00000  Uiso   1.00
H1653  H     0.34892   0.61060   0.61592   0.00000  Uiso   1.00
H1654  H     0.31391   0.60786   0.65310   0.00000  Uiso   1.00
H1655  H     0.42651   0.66320   0.38997   0.00000  Uiso   1.00
H1656  H     0.43880   0.69359   0.35292   0.00000  Uiso   1.00
H1657  H     0.41484   0.71748   0.43607   0.00000  Uiso   1.00
H1658  H     0.42319   0.74757   0.39567   0.00000  Uiso   1.00
H1659  H     0.37276   0.71769   0.35823   0.00000  Uiso   1.00
H1660  H     0.38646   0.87811   0.43581   0.00000  Uiso   1.00
H1661  H     0.35719   0.73668   0.40379   0.00000  Uiso   1.00
H1662  H     0.36383   0.68791   0.39934   0.00000  Uiso   1.00
H1663  H     0.45694   0.85266   0.62071   0.00000  Uiso   1.00
H1664  H     0.46377   0.81555   0.65218   0.00000  Uiso   1.00
H1665  H     0.42582   0.80994   0.57111   0.00000  Uiso   1.00
H1666  H     0.42803   0.77440   0.60691   0.00000  Uiso   1.00
H1667  H     0.36814   0.80504   0.60887   0.00000  Uiso   1.00
H1668  H     0.38958   0.84883   0.61694   0.00000  Uiso   1.00
H1669  H     0.39270   0.81329   0.65358   0.00000  Uiso   1.00
H1670  H     0.33712   0.92722   0.39010   0.00000  Uiso   1.00
H1671  H     0.14396   0.95234   0.54030   0.00000  Uiso   1.00
H1672  H     0.30705   0.93939   0.35267   0.00000  Uiso   1.00
H1673  H     0.28226   0.91485   0.43538   0.00000  Uiso   1.00
H1674  H     0.25276   0.92296   0.39449   0.00000  Uiso   1.00
H1675  H     0.26442   0.85705   0.40271   0.00000  Uiso   1.00
H1676  H     0.31313   0.86425   0.39914   0.00000  Uiso   1.00
H1677  H     0.28391   0.87295   0.35751   0.00000  Uiso   1.00
H1678  H     0.14730   0.95668   0.62099   0.00000  Uiso   1.00
H1679  H     0.18445   0.96357   0.65232   0.00000  Uiso   1.00
H1680  H     0.19030   0.92597   0.57111   0.00000  Uiso   1.00
H1681  H     0.22562   0.92796   0.60713   0.00000  Uiso   1.00
H1682  H     0.11975   0.97574   0.50205   0.00000  Uiso   1.00
H1683  H     0.18653   0.89232   0.65338   0.00000  Uiso   1.00
H1684  H     0.19516   0.86802   0.60861   0.00000  Uiso   1.00
H1685  H     0.15127   0.88939   0.61644   0.00000  Uiso   1.00
H1686  H     0.34500   0.56518   0.89871   0.00000  Uiso   1.00
H1687  H     0.33118   0.53702   0.86015   0.00000  Uiso   1.00
H1688  H     0.33890   0.51203   0.94617   0.00000  Uiso   1.00
H1689  H     0.32655   0.98285   0.90583   0.00000  Uiso   1.00
H1690  H     0.38635   0.99638   0.87392   0.00000  Uiso   1.00
H1691  H     0.39211   0.97687   0.92180   0.00000  Uiso   1.00
H1692  H     0.39886   0.52534   0.91460   0.00000  Uiso   1.00
H1693  H     0.10089   0.98858   0.58787   0.00000  Uiso   1.00
H1694  H     0.26707   0.89143   0.12731   0.00000  Uiso   1.00
H1695  H     0.26825   0.93194   0.15474   0.00000  Uiso   1.00
H1696  H     0.30948   0.92111   0.07630   0.00000  Uiso   1.00
H1697  H     0.31481   0.95892   0.10899   0.00000  Uiso   1.00
H1698  H     0.36526   0.91460   0.11664   0.00000  Uiso   1.00
H1699  H     0.33328   0.87841   0.12740   0.00000  Uiso   1.00
H1700  H     0.33825   0.91666   0.16047   0.00000  Uiso   1.00
H1701  H     0.44435   0.85148   0.90016   0.00000  Uiso   1.00
H1702  H     0.47346   0.83611   0.86300   0.00000  Uiso   1.00
H1703  H     0.49362   0.83964   0.95068   0.00000  Uiso   1.00
H1704  H     0.07451   0.99948   0.54532   0.00000  Uiso   1.00
H1705  H     0.02401   0.82523   0.91212   0.00000  Uiso   1.00
H1706  H     0.03484   0.88975   0.93024   0.00000  Uiso   1.00
H1707  H     0.48785   0.90115   0.91960   0.00000  Uiso   1.00
H1708  H     0.01823   0.88661   0.88091   0.00000  Uiso   1.00
H1709  H     0.10852   0.75537   0.13083   0.00000  Uiso   1.00
H1710  H     0.06711   0.76297   0.15462   0.00000  Uiso   1.00
H1711  H     0.08877   0.79940   0.07609   0.00000  Uiso   1.00
H1712  H     0.04939   0.81072   0.10496   0.00000  Uiso   1.00
H1713  H     0.09911   0.85553   0.11498   0.00000  Uiso   1.00
H1714  H     0.12973   0.81965   0.13058   0.00000  Uiso   1.00
H1715  H     0.06563   0.93320   0.53153   0.00000  Uiso   1.00
H1716  H     0.08972   0.83086   0.15934   0.00000  Uiso   1.00
H1717  H     0.15504   0.93479   0.89872   0.00000  Uiso   1.00
H1718  H     0.16884   0.96290   0.86008   0.00000  Uiso   1.00
H1719  H     0.16112   0.98801   0.94600   0.00000  Uiso   1.00
H1720  H     0.17349   0.51714   0.90559   0.00000  Uiso   1.00
H1721  H     0.11369   0.50358   0.87364   0.00000  Uiso   1.00
H1722  H     0.10793   0.52315   0.92144   0.00000  Uiso   1.00
H1723  H     0.10117   0.97467   0.91439   0.00000  Uiso   1.00
H1724  H     0.23263   0.60852   0.12705   0.00000  Uiso   1.00
H1725  H     0.23150   0.56802   0.15454   0.00000  Uiso   1.00
H1726  H     0.05084   0.94437   0.58022   0.00000  Uiso   1.00
H1727  H     0.19036   0.57881   0.07597   0.00000  Uiso   1.00
H1728  H     0.18509   0.54092   0.10863   0.00000  Uiso   1.00
H1729  H     0.16143   0.58295   0.16006   0.00000  Uiso   1.00
H1730  H     0.13451   0.58511   0.11613   0.00000  Uiso   1.00
H1731  H     0.16639   0.62133   0.12709   0.00000  Uiso   1.00
H1732  H     0.05542   0.64836   0.90033   0.00000  Uiso   1.00
H1733  H     0.02613   0.66381   0.86331   0.00000  Uiso   1.00
H1734  H     0.00642   0.66029   0.95108   0.00000  Uiso   1.00
H1735  H     0.47585   0.67471   0.91263   0.00000  Uiso   1.00
H1736  H     0.46507   0.61020   0.93094   0.00000  Uiso   1.00
H1737  H     0.09385   0.92127   0.57303   0.00000  Uiso   1.00
H1738  H     0.01199   0.59877   0.92010   0.00000  Uiso   1.00
H1739  H     0.48141   0.61332   0.88152   0.00000  Uiso   1.00
H1740  H     0.39150   0.74464   0.13068   0.00000  Uiso   1.00
H1741  H     0.43289   0.73705   0.15456   0.00000  Uiso   1.00
H1742  H     0.41132   0.70063   0.07604   0.00000  Uiso   1.00
H1743  H     0.45067   0.68933   0.10502   0.00000  Uiso   1.00
H1744  H     0.41029   0.66915   0.15933   0.00000  Uiso   1.00
H1745  H     0.40096   0.64449   0.11499   0.00000  Uiso   1.00
H1746  H     0.37031   0.68036   0.13046   0.00000  Uiso   1.00
H1747  H     0.07843   0.83962   0.46021   0.00000  Uiso   1.00
H1748  H     0.44482   0.60616   0.41680   0.00000  Uiso   1.00
H1749  H     0.06159   0.86439   0.50157   0.00000  Uiso   1.00
H1750  H     0.05748   0.89428   0.41806   0.00000  Uiso   1.00
H1751  H     0.04738   0.91798   0.46257   0.00000  Uiso   1.00
H1752  H     0.11352   0.90880   0.48357   0.00000  Uiso   1.00
H1753  H     0.10883   0.93518   0.43937   0.00000  Uiso   1.00
H1754  H     0.12262   0.88779   0.43693   0.00000  Uiso   1.00
H1755  H     0.04898   0.64486   0.53989   0.00000  Uiso   1.00
H1756  H     0.02580   0.61984   0.50228   0.00000  Uiso   1.00
H1757  H     0.00951   0.60099   0.58710   0.00000  Uiso   1.00
H1758  H     0.00633   0.57308   0.54422   0.00000  Uiso   1.00
H1759  H     0.45394   0.58137   0.46090   0.00000  Uiso   1.00
H1760  H     0.07482   0.57143   0.53985   0.00000  Uiso   1.00
H1761  H     0.05873   0.55478   0.58617   0.00000  Uiso   1.00
H1762  H     0.07794   0.60002   0.58257   0.00000  Uiso   1.00
H1763  H     0.14910   0.57621   0.45155   0.00000  Uiso   1.00
H1764  H     0.14028   0.56275   0.50039   0.00000  Uiso   1.00
H1765  H     0.08183   0.53259   0.47906   0.00000  Uiso   1.00
H1766  H     0.08317   0.58127   0.47092   0.00000  Uiso   1.00
H1767  H     0.09596   0.57229   0.40118   0.00000  Uiso   1.00
H1768  H     0.05580   0.54704   0.41501   0.00000  Uiso   1.00
H1769  H     0.09838   0.52305   0.40782   0.00000  Uiso   1.00
H1770  H     0.38747   0.59103   0.48082   0.00000  Uiso   1.00
H1771  H     0.35552   0.54866   0.53885   0.00000  Uiso   1.00
H1772  H     0.37898   0.52448   0.50063   0.00000  Uiso   1.00
H1773  H     0.39930   0.51253   0.58622   0.00000  Uiso   1.00
H1774  H     0.42495   0.50154   0.54319   0.00000  Uiso   1.00
H1775  H     0.43415   0.56741   0.52907   0.00000  Uiso   1.00
H1776  H     0.44890   0.55680   0.57789   0.00000  Uiso   1.00
H1777  H     0.40595   0.57992   0.57035   0.00000  Uiso   1.00
H1778  H     0.15512   0.92495   0.96773   0.00000  Uiso   1.00
H1779  H     0.17235   0.89490   0.00506   0.00000  Uiso   1.00
H1780  H     0.15874   0.87297   0.91992   0.00000  Uiso   1.00
H1781  H     0.39269   0.56531   0.43631   0.00000  Uiso   1.00
H1782  H     0.17655   0.84372   0.95749   0.00000  Uiso   1.00
H1783  H     0.11908   0.85179   0.99608   0.00000  Uiso   1.00
H1784  H     0.10977   0.83412   0.94811   0.00000  Uiso   1.00
H1785  H     0.10104   0.88173   0.95861   0.00000  Uiso   1.00
H1786  H     0.22980   0.63150   0.05897   0.00000  Uiso   1.00
H1787  H     0.21443   0.60363   0.01952   0.00000  Uiso   1.00
H1788  H     0.27486   0.66064   0.00655   0.00000  Uiso   1.00
H1789  H     0.24363   0.64092   0.97190   0.00000  Uiso   1.00
H1790  H     0.19153   0.67375   0.00646   0.00000  Uiso   1.00
H1791  H     0.22512   0.70389   0.98499   0.00000  Uiso   1.00
H1792  H     0.37948   0.61289   0.43435   0.00000  Uiso   1.00
H1793  H     0.22537   0.69599   0.03677   0.00000  Uiso   1.00
H1794  H     0.06998   0.65031   0.96995   0.00000  Uiso   1.00
H1795  H     0.10335   0.66717   0.00427   0.00000  Uiso   1.00
H1796  H     0.11797   0.64943   0.91822   0.00000  Uiso   1.00
H1797  H     0.15059   0.66845   0.95158   0.00000  Uiso   1.00
H1798  H     0.14465   0.61311   0.99441   0.00000  Uiso   1.00
H1799  H     0.15832   0.60106   0.94566   0.00000  Uiso   1.00
H1800  H     0.11159   0.59392   0.96081   0.00000  Uiso   1.00
H1801  H     0.38894   0.72363   0.01689   0.00000  Uiso   1.00
H1802  H     0.36623   0.76223   0.99427   0.00000  Uiso   1.00
H1803  H     0.45187   0.85494   0.53795   0.00000  Uiso   1.00
H1804  H     0.35400   0.73608   0.07807   0.00000  Uiso   1.00
H1805  H     0.33265   0.77498   0.05561   0.00000  Uiso   1.00
H1806  H     0.30501   0.73309   0.00517   0.00000  Uiso   1.00
H1807  H     0.29217   0.72034   0.05403   0.00000  Uiso   1.00
H1808  H     0.32698   0.69451   0.02881   0.00000  Uiso   1.00
H1809  H     0.34480   0.57511   0.96771   0.00000  Uiso   1.00
H1810  H     0.32756   0.60518   0.00494   0.00000  Uiso   1.00
H1811  H     0.34112   0.62704   0.91975   0.00000  Uiso   1.00
H1812  H     0.32331   0.65632   0.95723   0.00000  Uiso   1.00
H1813  H     0.38080   0.64832   0.99589   0.00000  Uiso   1.00
H1814  H     0.47612   0.87947   0.50060   0.00000  Uiso   1.00
H1815  H     0.39008   0.66595   0.94787   0.00000  Uiso   1.00
H1816  H     0.39884   0.61835   0.95852   0.00000  Uiso   1.00
H1817  H     0.27012   0.86844   0.05918   0.00000  Uiso   1.00
H1818  H     0.28553   0.89637   0.01978   0.00000  Uiso   1.00
H1819  H     0.22512   0.83936   0.00669   0.00000  Uiso   1.00
H1820  H     0.25632   0.85919   0.97207   0.00000  Uiso   1.00
H1821  H     0.30847   0.82635   0.00661   0.00000  Uiso   1.00
H1822  H     0.27489   0.79622   0.98513   0.00000  Uiso   1.00
H1823  H     0.27469   0.80402   0.03692   0.00000  Uiso   1.00
H1824  H     0.42997   0.84971   0.96965   0.00000  Uiso   1.00
N1825  N     0.10526   0.94834   0.26804   0.00000  Uiso   1.00
N1826  N     0.39362   0.94741   0.27286   0.00000  Uiso   1.00
N1827  N     0.05164   0.89484   0.73165   0.00000  Uiso   1.00
N1828  N     0.44830   0.60526   0.26827   0.00000  Uiso   1.00
N1829  N     0.39446   0.94820   0.73050   0.00000  Uiso   1.00
N1830  N     0.10679   0.55290   0.27447   0.00000  Uiso   1.00
N1831  N     0.44838   0.60515   0.73187   0.00000  Uiso   1.00
N1832  N     0.05171   0.89473   0.26817   0.00000  Uiso   1.00
N1833  N     0.35518   0.69841   0.76765   0.00000  Uiso   1.00
N1834  N     0.14481   0.80151   0.23205   0.00000  Uiso   1.00
N1835  N     0.30189   0.85543   0.76896   0.00000  Uiso   1.00
N1836  N     0.39469   0.55163   0.73142   0.00000  Uiso   1.00
N1837  N     0.19717   0.64344   0.22583   0.00000  Uiso   1.00
N1838  N     0.14481   0.80160   0.76784   0.00000  Uiso   1.00
N1839  N     0.35519   0.69850   0.23193   0.00000  Uiso   1.00
N1840  N     0.19809   0.64450   0.76917   0.00000  Uiso   1.00
N1841  N     0.30251   0.85627   0.22711   0.00000  Uiso   1.00
N1842  N     0.35630   0.80254   0.22696   0.00000  Uiso   1.00
N1843  N     0.14442   0.69814   0.76918   0.00000  Uiso   1.00
N1844  N     0.30164   0.64485   0.23167   0.00000  Uiso   1.00
N1845  N     0.19838   0.85517   0.76780   0.00000  Uiso   1.00
N1846  N     0.14335   0.69719   0.22568   0.00000  Uiso   1.00
N1847  N     0.05293   0.60657   0.27410   0.00000  Uiso   1.00
N1848  N     0.35554   0.80177   0.76888   0.00000  Uiso   1.00
N1849  N     0.19836   0.85515   0.23180   0.00000  Uiso   1.00
N1850  N     0.30161   0.64484   0.76758   0.00000  Uiso   1.00
N1851  N     0.44805   0.89442   0.73002   0.00000  Uiso   1.00
N1852  N     0.39475   0.55165   0.26810   0.00000  Uiso   1.00
N1853  N     0.10533   0.94836   0.73120   0.00000  Uiso   1.00
N1854  N     0.44743   0.89376   0.27253   0.00000  Uiso   1.00
N1855  N     0.05198   0.60567   0.72971   0.00000  Uiso   1.00
N1856  N     0.10559   0.55190   0.73011   0.00000  Uiso   1.00
O1857  O     0.25000   0.50000   0.25000   0.00000  Uiso   1.00
O1858  O     0.25000   0.96964   0.66245   0.00000  Uiso   1.00
O1859  O     0.46964   0.75000   0.33755   0.00000  Uiso   1.00
O1860  O     0.03037   0.75000   0.66245   0.00000  Uiso   1.00
O1861  O     0.00000   0.71963   0.83755   0.00000  Uiso   1.00
O1862  O     0.00000   0.78036   0.16245   0.00000  Uiso   1.00
O1863  O     0.28037   0.50000   0.83755   0.00000  Uiso   1.00
O1864  O     0.21964   0.50000   0.16245   0.00000  Uiso   1.00
O1865  O     0.00000   0.78036   0.83755   0.00000  Uiso   1.00
O1866  O     0.00000   0.71963   0.16245   0.00000  Uiso   1.00
O1867  O     0.21964   0.50000   0.83755   0.00000  Uiso   1.00
O1868  O     0.25000   0.50000   0.75000   0.00000  Uiso   1.00
O1869  O     0.28037   0.50000   0.16245   0.00000  Uiso   1.00
O1870  O     0.20725   0.57308   0.27302   0.00000  Uiso   1.00
O1871  O     0.29276   0.92693   0.72698   0.00000  Uiso   1.00
O1872  O     0.42693   0.70725   0.27302   0.00000  Uiso   1.00
O1873  O     0.07308   0.79275   0.72698   0.00000  Uiso   1.00
O1874  O     0.29276   0.92693   0.27302   0.00000  Uiso   1.00
O1875  O     0.20725   0.57308   0.72698   0.00000  Uiso   1.00
O1876  O     0.07308   0.79275   0.27302   0.00000  Uiso   1.00
O1877  O     0.42693   0.70725   0.72698   0.00000  Uiso   1.00
O1878  O     0.20725   0.92693   0.72698   0.00000  Uiso   1.00
O1879  O     0.00000   0.75000   0.25000   0.00000  Uiso   1.00
O1880  O     0.29276   0.57308   0.27302   0.00000  Uiso   1.00
O1881  O     0.42693   0.79276   0.72698   0.00000  Uiso   1.00
O1882  O     0.07308   0.70724   0.27302   0.00000  Uiso   1.00
O1883  O     0.29276   0.57308   0.72698   0.00000  Uiso   1.00
O1884  O     0.20725   0.92693   0.27302   0.00000  Uiso   1.00
O1885  O     0.07308   0.70724   0.72698   0.00000  Uiso   1.00
O1886  O     0.42693   0.79276   0.27302   0.00000  Uiso   1.00
O1887  O     0.45725   0.82308   0.77302   0.00000  Uiso   1.00
O1888  O     0.04276   0.67692   0.22698   0.00000  Uiso   1.00
O1889  O     0.17693   0.95724   0.77302   0.00000  Uiso   1.00
O1890  O     0.00000   0.75000   0.75000   0.00000  Uiso   1.00
O1891  O     0.32308   0.54276   0.22698   0.00000  Uiso   1.00
O1892  O     0.04276   0.67692   0.77302   0.00000  Uiso   1.00
O1893  O     0.45725   0.82308   0.22698   0.00000  Uiso   1.00
O1894  O     0.32308   0.54276   0.77302   0.00000  Uiso   1.00
O1895  O     0.17693   0.95724   0.22698   0.00000  Uiso   1.00
O1896  O     0.45725   0.67693   0.22698   0.00000  Uiso   1.00
O1897  O     0.04276   0.82307   0.77302   0.00000  Uiso   1.00
O1898  O     0.17693   0.54276   0.22698   0.00000  Uiso   1.00
O1899  O     0.32308   0.95725   0.77302   0.00000  Uiso   1.00
O1900  O     0.04276   0.82307   0.22698   0.00000  Uiso   1.00
O1901  O     0.25000   0.96964   0.33755   0.00000  Uiso   1.00
O1902  O     0.45725   0.67693   0.77302   0.00000  Uiso   1.00
O1903  O     0.32308   0.95725   0.22698   0.00000  Uiso   1.00
O1904  O     0.17693   0.54276   0.77302   0.00000  Uiso   1.00
O1905  O     0.47986   0.65146   0.46070   0.00000  Uiso   1.00
O1906  O     0.00863   0.84983   0.53967   0.00000  Uiso   1.00
O1907  O     0.34766   0.97867   0.46073   0.00000  Uiso   1.00
O1908  O     0.14963   0.50908   0.53999   0.00000  Uiso   1.00
O1909  O     0.02207   0.84788   0.46055   0.00000  Uiso   1.00
O1910  O     0.49217   0.64975   0.53996   0.00000  Uiso   1.00
O1911  O     0.15101   0.51986   0.46014   0.00000  Uiso   1.00
O1912  O     0.25000   0.53037   0.66245   0.00000  Uiso   1.00
O1913  O     0.34955   0.99197   0.53984   0.00000  Uiso   1.00
O1914  O     0.20935   0.90848   0.96051   0.00000  Uiso   1.00
O1915  O     0.27017   0.59841   0.03775   0.00000  Uiso   1.00
O1916  O     0.08835   0.70356   0.95979   0.00000  Uiso   1.00
O1917  O     0.40299   0.77576   0.03832   0.00000  Uiso   1.00
O1918  O     0.29055   0.59154   0.96040   0.00000  Uiso   1.00
O1919  O     0.22978   0.90158   0.03787   0.00000  Uiso   1.00
O1920  O     0.41161   0.79646   0.95963   0.00000  Uiso   1.00
O1921  O     0.09700   0.72423   0.03845   0.00000  Uiso   1.00
O1922  O     0.02395   0.81165   0.39768   0.00000  Uiso   1.00
O1923  O     0.03037   0.75000   0.33755   0.00000  Uiso   1.00
O1924  O     0.00440   0.68339   0.60244   0.00000  Uiso   1.00
O1925  O     0.18653   0.52037   0.39737   0.00000  Uiso   1.00
O1926  O     0.31605   0.50448   0.60220   0.00000  Uiso   1.00
O1927  O     0.47625   0.68806   0.39793   0.00000  Uiso   1.00
O1928  O     0.49573   0.81633   0.60208   0.00000  Uiso   1.00
O1929  O     0.31159   0.97673   0.39785   0.00000  Uiso   1.00
O1930  O     0.18332   0.99569   0.60229   0.00000  Uiso   1.00
O1931  O     0.29016   0.55266   0.89837   0.00000  Uiso   1.00
O1932  O     0.23958   0.93396   0.10216   0.00000  Uiso   1.00
O1933  O     0.45192   0.79573   0.89881   0.00000  Uiso   1.00
O1934  O     0.46964   0.75000   0.66245   0.00000  Uiso   1.00
O1935  O     0.06471   0.73327   0.10246   0.00000  Uiso   1.00
O1936  O     0.20988   0.94732   0.89838   0.00000  Uiso   1.00
O1937  O     0.26026   0.56604   0.10206   0.00000  Uiso   1.00
O1938  O     0.04794   0.70413   0.89899   0.00000  Uiso   1.00
O1939  O     0.43531   0.76678   0.10237   0.00000  Uiso   1.00
O1940  O     0.25000   0.53037   0.33755   0.00000  Uiso   1.00
Zn1941 Zn    0.20660   0.50000   0.21735   0.00000  Uiso   1.00
Zn1942 Zn    0.04341   0.75000   0.28265   0.00000  Uiso   1.00
Zn1943 Zn    0.25000   0.95660   0.71735   0.00000  Uiso   1.00
Zn1944 Zn    0.25000   0.54341   0.28265   0.00000  Uiso   1.00
Zn1945 Zn    0.04341   0.75000   0.71735   0.00000  Uiso   1.00
Zn1946 Zn    0.45660   0.75000   0.28265   0.00000  Uiso   1.00
Zn1947 Zn    0.25000   0.54341   0.71735   0.00000  Uiso   1.00
Zn1948 Zn    0.25000   0.95660   0.28265   0.00000  Uiso   1.00
Zn1949 Zn    0.29341   0.50000   0.78265   0.00000  Uiso   1.00
Zn1950 Zn    0.00000   0.70659   0.21735   0.00000  Uiso   1.00
Zn1951 Zn    0.00000   0.79340   0.78265   0.00000  Uiso   1.00
Zn1952 Zn    0.29341   0.50000   0.21735   0.00000  Uiso   1.00
Zn1953 Zn    0.20660   0.50000   0.78265   0.00000  Uiso   1.00
Zn1954 Zn    0.00000   0.79340   0.21735   0.00000  Uiso   1.00
Zn1955 Zn    0.00000   0.70659   0.78265   0.00000  Uiso   1.00
Zn1956 Zn    0.45660   0.75000   0.71735   0.00000  Uiso   1.00
C1957  C     0.51245   0.78104   0.41829   0.00000  Uiso   1.00
C1958  C     0.74555   0.96659   0.08215   0.00000  Uiso   1.00
C1959  C     0.71586   0.50188   0.54118   0.00000  Uiso   1.00
C1960  C     0.50908   0.78244   0.45919   0.00000  Uiso   1.00
C1961  C     0.99901   0.71606   0.54128   0.00000  Uiso   1.00
C1962  C     0.71665   0.50819   0.45906   0.00000  Uiso   1.00
C1963  C     0.78329   0.99889   0.54114   0.00000  Uiso   1.00
C1964  C     0.73454   0.97008   0.95943   0.00000  Uiso   1.00
C1965  C     0.75741   0.53291   0.04117   0.00000  Uiso   1.00
C1966  C     0.52853   0.73226   0.95962   0.00000  Uiso   1.00
C1967  C     0.96772   0.76010   0.04129   0.00000  Uiso   1.00
C1968  C     0.76544   0.52991   0.95940   0.00000  Uiso   1.00
C1969  C     0.97492   0.77212   0.91892   0.00000  Uiso   1.00
C1970  C     0.74254   0.96708   0.04121   0.00000  Uiso   1.00
C1971  C     0.97141   0.76771   0.95955   0.00000  Uiso   1.00
C1972  C     0.53228   0.73994   0.04133   0.00000  Uiso   1.00
C1973  C     0.59808   0.84800   0.24996   0.00000  Uiso   1.00
C1974  C     0.90197   0.65191   0.74992   0.00000  Uiso   1.00
C1975  C     0.65200   0.59807   0.24999   0.00000  Uiso   1.00
C1976  C     0.84808   0.90198   0.74990   0.00000  Uiso   1.00
C1977  C     0.90192   0.65200   0.24996   0.00000  Uiso   1.00
C1978  C     0.59803   0.84808   0.74991   0.00000  Uiso   1.00
C1979  C     0.84799   0.90192   0.24999   0.00000  Uiso   1.00
C1980  C     0.53287   0.74248   0.08232   0.00000  Uiso   1.00
C1981  C     0.65193   0.59804   0.74983   0.00000  Uiso   1.00
C1982  C     0.59800   0.65194   0.74984   0.00000  Uiso   1.00
C1983  C     0.90193   0.84804   0.24986   0.00000  Uiso   1.00
C1984  C     0.65194   0.90198   0.74982   0.00000  Uiso   1.00
C1985  C     0.84802   0.59810   0.24993   0.00000  Uiso   1.00
C1986  C     0.90198   0.84805   0.74980   0.00000  Uiso   1.00
C1987  C     0.59808   0.65197   0.24994   0.00000  Uiso   1.00
C1988  C     0.84806   0.59803   0.74981   0.00000  Uiso   1.00
C1989  C     0.65197   0.90190   0.24995   0.00000  Uiso   1.00
C1990  C     0.50058   0.74975   0.47970   0.00000  Uiso   1.00
C1991  C     0.73040   0.97289   0.91871   0.00000  Uiso   1.00
C1992  C     0.50054   0.74977   0.52075   0.00000  Uiso   1.00
C1993  C     0.74949   0.50021   0.47961   0.00000  Uiso   1.00
C1994  C     0.74954   0.50038   0.52066   0.00000  Uiso   1.00
C1995  C     0.74999   0.99999   0.97986   0.00000  Uiso   1.00
C1996  C     0.74998   0.99999   0.02085   0.00000  Uiso   1.00
C1997  C     0.99998   0.75000   0.98006   0.00000  Uiso   1.00
C1998  C     0.99999   0.75002   0.02101   0.00000  Uiso   1.00
C1999  C     0.94401   0.63931   0.46938   0.00000  Uiso   1.00
C2000  C     0.93687   0.60339   0.44785   0.00000  Uiso   1.00
C2001  C     0.89660   0.59253   0.45006   0.00000  Uiso   1.00
C2002  C     0.75437   0.53340   0.08210   0.00000  Uiso   1.00
C2003  C     0.97700   0.87085   0.53159   0.00000  Uiso   1.00
C2004  C     0.97765   0.90541   0.55673   0.00000  Uiso   1.00
C2005  C     0.93975   0.92257   0.56056   0.00000  Uiso   1.00
C2006  C     0.85961   0.94282   0.47000   0.00000  Uiso   1.00
C2007  C     0.89598   0.93547   0.44943   0.00000  Uiso   1.00
C2008  C     0.90662   0.89510   0.45188   0.00000  Uiso   1.00
C2009  C     0.62835   0.97747   0.53297   0.00000  Uiso   1.00
C2010  C     0.59383   0.97926   0.55805   0.00000  Uiso   1.00
C2011  C     0.57494   0.94213   0.56075   0.00000  Uiso   1.00
C2012  C     0.55781   0.85998   0.46985   0.00000  Uiso   1.00
C2013  C     0.52499   0.72780   0.91901   0.00000  Uiso   1.00
C2014  C     0.56489   0.89645   0.44933   0.00000  Uiso   1.00
C2015  C     0.60499   0.90770   0.45259   0.00000  Uiso   1.00
C2016  C     0.52407   0.62876   0.53314   0.00000  Uiso   1.00
C2017  C     0.52289   0.59450   0.55890   0.00000  Uiso   1.00
C2018  C     0.56102   0.57933   0.56726   0.00000  Uiso   1.00
C2019  C     0.63617   0.55467   0.46952   0.00000  Uiso   1.00
C2020  C     0.59493   0.55460   0.46164   0.00000  Uiso   1.00
C2021  C     0.58592   0.54883   0.41870   0.00000  Uiso   1.00
C2022  C     0.87089   0.52333   0.53175   0.00000  Uiso   1.00
C2023  C     0.90584   0.52174   0.55622   0.00000  Uiso   1.00
C2024  C     0.96714   0.75758   0.08228   0.00000  Uiso   1.00
C2025  C     0.92478   0.55887   0.55838   0.00000  Uiso   1.00
C2026  C     0.67330   0.90111   0.97344   0.00000  Uiso   1.00
C2027  C     0.65857   0.86766   0.95174   0.00000  Uiso   1.00
C2028  C     0.61968   0.85834   0.96451   0.00000  Uiso   1.00
C2029  C     0.73829   0.61962   0.03065   0.00000  Uiso   1.00
C2030  C     0.74645   0.65091   0.00225   0.00000  Uiso   1.00
C2031  C     0.72038   0.68308   0.00801   0.00000  Uiso   1.00
C2032  C     0.59490   0.66751   0.97324   0.00000  Uiso   1.00
C2033  C     0.62599   0.65075   0.94935   0.00000  Uiso   1.00
C2034  C     0.63564   0.61231   0.96354   0.00000  Uiso   1.00
C2035  C     0.50013   0.74987   0.39823   0.00000  Uiso   1.00
C2036  C     0.87701   0.75132   0.02216   0.00000  Uiso   1.00
C2037  C     0.84465   0.74756   0.04997   0.00000  Uiso   1.00
C2038  C     0.81540   0.72232   0.03332   0.00000  Uiso   1.00
C2039  C     0.82660   0.59894   0.97335   0.00000  Uiso   1.00
C2040  C     0.84131   0.63238   0.95156   0.00000  Uiso   1.00
C2041  C     0.88019   0.64174   0.96434   0.00000  Uiso   1.00
C2042  C     0.76166   0.88038   0.03085   0.00000  Uiso   1.00
C2043  C     0.75352   0.84914   0.00241   0.00000  Uiso   1.00
C2044  C     0.77963   0.81698   0.00816   0.00000  Uiso   1.00
C2045  C     0.90508   0.83250   0.97304   0.00000  Uiso   1.00
C2046  C     0.50005   0.74987   0.60213   0.00000  Uiso   1.00
C2047  C     0.87390   0.84924   0.94920   0.00000  Uiso   1.00
C2048  C     0.86428   0.88768   0.96332   0.00000  Uiso   1.00
C2049  C     0.62298   0.74867   0.02230   0.00000  Uiso   1.00
C2050  C     0.65537   0.75236   0.05011   0.00000  Uiso   1.00
C2051  C     0.68460   0.77765   0.03350   0.00000  Uiso   1.00
C2052  C     0.56106   0.80972   0.38467   0.00000  Uiso   1.00
C2053  C     0.58643   0.78040   0.40321   0.00000  Uiso   1.00
C2054  C     0.62584   0.78529   0.38958   0.00000  Uiso   1.00
C2055  C     0.53825   0.67716   0.62212   0.00000  Uiso   1.00
C2056  C     0.57294   0.69517   0.60463   0.00000  Uiso   1.00
C2057  C     0.74954   0.99985   0.39814   0.00000  Uiso   1.00
C2058  C     0.60743   0.68127   0.62492   0.00000  Uiso   1.00
C2059  C     0.68674   0.55678   0.38220   0.00000  Uiso   1.00
C2060  C     0.71298   0.58482   0.40136   0.00000  Uiso   1.00
C2061  C     0.70629   0.62325   0.38540   0.00000  Uiso   1.00
C2062  C     0.82254   0.53880   0.62081   0.00000  Uiso   1.00
C2063  C     0.80432   0.57314   0.60264   0.00000  Uiso   1.00
C2064  C     0.81905   0.60808   0.62124   0.00000  Uiso   1.00
C2065  C     0.93913   0.69036   0.38497   0.00000  Uiso   1.00
C2066  C     0.91402   0.71965   0.40388   0.00000  Uiso   1.00
C2067  C     0.87451   0.71510   0.39039   0.00000  Uiso   1.00
C2068  C     0.50262   0.71633   0.58219   0.00000  Uiso   1.00
C2069  C     0.74971   0.50014   0.60209   0.00000  Uiso   1.00
C2070  C     0.96150   0.82264   0.62092   0.00000  Uiso   1.00
C2071  C     0.92718   0.80451   0.60278   0.00000  Uiso   1.00
C2072  C     0.89228   0.81888   0.62181   0.00000  Uiso   1.00
C2073  C     0.80989   0.93961   0.38478   0.00000  Uiso   1.00
C2074  C     0.78066   0.91410   0.40316   0.00000  Uiso   1.00
C2075  C     0.78596   0.87465   0.38972   0.00000  Uiso   1.00
C2076  C     0.67727   0.96136   0.62109   0.00000  Uiso   1.00
C2077  C     0.69555   0.92713   0.60283   0.00000  Uiso   1.00
C2078  C     0.68116   0.89209   0.62156   0.00000  Uiso   1.00
C2079  C     0.82721   0.54153   0.89177   0.00000  Uiso   1.00
C2080  C     0.75002   0.99999   0.89843   0.00000  Uiso   1.00
C2081  C     0.84197   0.50780   0.91435   0.00000  Uiso   1.00
C2082  C     0.88236   0.50129   0.90553   0.00000  Uiso   1.00
C2083  C     0.77009   0.92157   0.12450   0.00000  Uiso   1.00
C2084  C     0.80844   0.92927   0.10727   0.00000  Uiso   1.00
C2085  C     0.83807   0.90838   0.12941   0.00000  Uiso   1.00
C2086  C     0.96668   0.83176   0.89410   0.00000  Uiso   1.00
C2087  C     0.50012   0.84281   0.91931   0.00000  Uiso   1.00
C2088  C     0.51084   0.88258   0.91196   0.00000  Uiso   1.00
C2089  C     0.57945   0.76237   0.12521   0.00000  Uiso   1.00
C2090  C     0.57807   0.80070   0.10619   0.00000  Uiso   1.00
C2091  C     0.74997   0.99999   0.10216   0.00000  Uiso   1.00
C2092  C     0.60061   0.82831   0.12931   0.00000  Uiso   1.00
C2093  C     0.67282   0.95843   0.89171   0.00000  Uiso   1.00
C2094  C     0.65807   0.99220   0.91416   0.00000  Uiso   1.00
C2095  C     0.61768   0.99871   0.90527   0.00000  Uiso   1.00
C2096  C     0.72969   0.57837   0.12428   0.00000  Uiso   1.00
C2097  C     0.69138   0.57059   0.10694   0.00000  Uiso   1.00
C2098  C     0.66166   0.59135   0.12901   0.00000  Uiso   1.00
C2099  C     0.53308   0.66813   0.89437   0.00000  Uiso   1.00
C2100  C     0.99977   0.65711   0.91974   0.00000  Uiso   1.00
C2101  C     0.98898   0.61735   0.91253   0.00000  Uiso   1.00
C2102  C     0.99996   0.74996   0.89857   0.00000  Uiso   1.00
C2103  C     0.92057   0.73766   0.12513   0.00000  Uiso   1.00
C2104  C     0.92199   0.69933   0.10617   0.00000  Uiso   1.00
C2105  C     0.89943   0.67170   0.12927   0.00000  Uiso   1.00
C2106  C     0.50001   0.75004   0.10226   0.00000  Uiso   1.00
C2107  C     0.98707   0.68394   0.48018   0.00000  Uiso   1.00
C2108  C     0.50679   0.81661   0.52024   0.00000  Uiso   1.00
C2109  C     0.81529   0.98648   0.48013   0.00000  Uiso   1.00
C2110  C     0.68269   0.50657   0.52032   0.00000  Uiso   1.00
C2111  C     0.51441   0.81549   0.48006   0.00000  Uiso   1.00
C2112  C     0.71785   0.51103   0.41807   0.00000  Uiso   1.00
C2113  C     0.99442   0.68291   0.52042   0.00000  Uiso   1.00
C2114  C     0.68358   0.51355   0.47993   0.00000  Uiso   1.00
C2115  C     0.81638   0.99411   0.52029   0.00000  Uiso   1.00
C2116  C     0.72355   0.93846   0.98015   0.00000  Uiso   1.00
C2117  C     0.76727   0.56460   0.01978   0.00000  Uiso   1.00
C2118  C     0.55954   0.71935   0.98009   0.00000  Uiso   1.00
C2119  C     0.93656   0.77166   0.01985   0.00000  Uiso   1.00
C2120  C     0.77640   0.56154   0.98009   0.00000  Uiso   1.00
C2121  C     0.73267   0.93539   0.01986   0.00000  Uiso   1.00
C2122  C     0.94042   0.78065   0.97998   0.00000  Uiso   1.00
C2123  C     0.78311   0.50261   0.58201   0.00000  Uiso   1.00
C2124  C     0.56342   0.72835   0.01994   0.00000  Uiso   1.00
C2125  C     0.74983   0.99997   0.35584   0.00000  Uiso   1.00
C2126  C     0.74987   0.50003   0.64424   0.00000  Uiso   1.00
C2127  C     0.50002   0.74993   0.35587   0.00000  Uiso   1.00
C2128  C     0.50000   0.74998   0.64426   0.00000  Uiso   1.00
C2129  C     0.99999   0.74999   0.85601   0.00000  Uiso   1.00
C2130  C     0.50001   0.75001   0.14428   0.00000  Uiso   1.00
C2131  C     0.75001   0.50000   0.85595   0.00000  Uiso   1.00
C2132  C     0.74999   0.50000   0.14426   0.00000  Uiso   1.00
C2133  C     0.68003   0.57000   0.24998   0.00000  Uiso   1.00
C2134  C     0.98815   0.71858   0.41839   0.00000  Uiso   1.00
C2135  C     0.82001   0.93002   0.74997   0.00000  Uiso   1.00
C2136  C     0.92999   0.68003   0.24997   0.00000  Uiso   1.00
C2137  C     0.56998   0.82002   0.74997   0.00000  Uiso   1.00
C2138  C     0.81996   0.92999   0.24999   0.00000  Uiso   1.00
C2139  C     0.67999   0.56998   0.74994   0.00000  Uiso   1.00
C2140  C     0.57002   0.81998   0.24997   0.00000  Uiso   1.00
C2141  C     0.93001   0.67998   0.74998   0.00000  Uiso   1.00
C2142  C     0.67998   0.93003   0.74993   0.00000  Uiso   1.00
C2143  C     0.81998   0.57003   0.24997   0.00000  Uiso   1.00
C2144  C     0.93004   0.82001   0.74993   0.00000  Uiso   1.00
C2145  C     0.99780   0.78334   0.58200   0.00000  Uiso   1.00
C2146  C     0.57001   0.68003   0.24997   0.00000  Uiso   1.00
C2147  C     0.82002   0.56998   0.74993   0.00000  Uiso   1.00
C2148  C     0.68002   0.92997   0.24997   0.00000  Uiso   1.00
C2149  C     0.56996   0.67998   0.74994   0.00000  Uiso   1.00
C2150  C     0.92999   0.81998   0.24994   0.00000  Uiso   1.00
C2151  C     0.61546   0.91147   0.25844   0.00000  Uiso   1.00
C2152  C     0.88455   0.58846   0.74127   0.00000  Uiso   1.00
C2153  C     0.58915   0.61605   0.26151   0.00000  Uiso   1.00
C2154  C     0.91139   0.88444   0.74057   0.00000  Uiso   1.00
C2155  C     0.88454   0.58852   0.25848   0.00000  Uiso   1.00
C2156  C     0.78089   0.98815   0.41833   0.00000  Uiso   1.00
C2157  C     0.61546   0.91154   0.74116   0.00000  Uiso   1.00
C2158  C     0.91103   0.88410   0.26070   0.00000  Uiso   1.00
C2159  C     0.58862   0.61559   0.74041   0.00000  Uiso   1.00
C2160  C     0.61557   0.58862   0.74049   0.00000  Uiso   1.00
C2161  C     0.88404   0.91104   0.26080   0.00000  Uiso   1.00
C2162  C     0.58849   0.88462   0.74128   0.00000  Uiso   1.00
C2163  C     0.91147   0.61546   0.25851   0.00000  Uiso   1.00
C2164  C     0.88445   0.91143   0.74070   0.00000  Uiso   1.00
C2165  C     0.61614   0.58910   0.26160   0.00000  Uiso   1.00
C2166  C     0.91152   0.61537   0.74139   0.00000  Uiso   1.00
C2167  C     0.71619   0.99790   0.58206   0.00000  Uiso   1.00
C2168  C     0.58853   0.88453   0.25846   0.00000  Uiso   1.00
C2169  C     0.86542   0.66151   0.75821   0.00000  Uiso   1.00
C2170  C     0.63459   0.83841   0.24148   0.00000  Uiso   1.00
C2171  C     0.83864   0.86552   0.75886   0.00000  Uiso   1.00
C2172  C     0.66094   0.63398   0.23840   0.00000  Uiso   1.00
C2173  C     0.63457   0.83849   0.75831   0.00000  Uiso   1.00
C2174  C     0.86541   0.66159   0.24141   0.00000  Uiso   1.00
C2175  C     0.66135   0.63444   0.75896   0.00000  Uiso   1.00
C2176  C     0.83890   0.86588   0.23905   0.00000  Uiso   1.00
C2177  C     0.86588   0.83892   0.23899   0.00000  Uiso   1.00
C2178  C     0.76963   0.52709   0.91870   0.00000  Uiso   1.00
C2179  C     0.63439   0.66139   0.75897   0.00000  Uiso   1.00
C2180  C     0.83848   0.63464   0.24136   0.00000  Uiso   1.00
C2181  C     0.66151   0.86542   0.75829   0.00000  Uiso   1.00
C2182  C     0.63396   0.66095   0.23837   0.00000  Uiso   1.00
C2183  C     0.86559   0.83857   0.75883   0.00000  Uiso   1.00
C2184  C     0.66152   0.86536   0.24143   0.00000  Uiso   1.00
C2185  C     0.83849   0.63458   0.75818   0.00000  Uiso   1.00
C2186  C     0.99204   0.71706   0.45926   0.00000  Uiso   1.00
C2187  C     0.50192   0.78351   0.54116   0.00000  Uiso   1.00
C2188  C     0.78222   0.99171   0.45920   0.00000  Uiso   1.00
H2189  H     0.92350   0.65999   0.46019   0.00000  Uiso   1.00
H2190  H     0.98807   0.89879   0.58628   0.00000  Uiso   1.00
H2191  H     0.89673   0.83285   0.00409   0.00000  Uiso   1.00
H2192  H     0.88180   0.85054   0.91804   0.00000  Uiso   1.00
H2193  H     0.84931   0.83153   0.95154   0.00000  Uiso   1.00
H2194  H     0.85537   0.88689   0.99421   0.00000  Uiso   1.00
H2195  H     0.84155   0.89892   0.94547   0.00000  Uiso   1.00
H2196  H     0.88832   0.90607   0.96049   0.00000  Uiso   1.00
H2197  H     0.61106   0.77638   0.01704   0.00000  Uiso   1.00
H2198  H     0.63371   0.73781   0.99441   0.00000  Uiso   1.00
H2199  H     0.64605   0.76376   0.07823   0.00000  Uiso   1.00
H2200  H     0.66738   0.72492   0.05571   0.00000  Uiso   1.00
H2201  H     0.99649   0.92569   0.54345   0.00000  Uiso   1.00
H2202  H     0.69494   0.76696   0.00533   0.00000  Uiso   1.00
H2203  H     0.70786   0.77956   0.05420   0.00000  Uiso   1.00
H2204  H     0.67302   0.80547   0.02903   0.00000  Uiso   1.00
H2205  H     0.62150   0.95734   0.29118   0.00000  Uiso   1.00
H2206  H     0.61007   0.96504   0.24390   0.00000  Uiso   1.00
H2207  H     0.87844   0.54284   0.70818   0.00000  Uiso   1.00
H2208  H     0.88979   0.53479   0.75543   0.00000  Uiso   1.00
H2209  H     0.54547   0.62389   0.29697   0.00000  Uiso   1.00
H2210  H     0.53485   0.61066   0.25095   0.00000  Uiso   1.00
H2211  H     0.95650   0.87794   0.70682   0.00000  Uiso   1.00
H2212  H     0.92977   0.93183   0.53171   0.00000  Uiso   1.00
H2213  H     0.96522   0.88965   0.75379   0.00000  Uiso   1.00
H2214  H     0.87851   0.54262   0.29123   0.00000  Uiso   1.00
H2215  H     0.88994   0.53497   0.24397   0.00000  Uiso   1.00
H2216  H     0.62159   0.95714   0.70797   0.00000  Uiso   1.00
H2217  H     0.61022   0.96522   0.75518   0.00000  Uiso   1.00
H2218  H     0.95533   0.87667   0.29547   0.00000  Uiso   1.00
H2219  H     0.96514   0.88953   0.24912   0.00000  Uiso   1.00
H2220  H     0.54358   0.62224   0.70653   0.00000  Uiso   1.00
H2221  H     0.53476   0.61037   0.75344   0.00000  Uiso   1.00
H2222  H     0.62213   0.54329   0.70704   0.00000  Uiso   1.00
H2223  H     0.94127   0.94654   0.58031   0.00000  Uiso   1.00
H2224  H     0.61025   0.53484   0.75402   0.00000  Uiso   1.00
H2225  H     0.87656   0.95510   0.29587   0.00000  Uiso   1.00
H2226  H     0.88928   0.96528   0.24956   0.00000  Uiso   1.00
H2227  H     0.54262   0.87858   0.70854   0.00000  Uiso   1.00
H2228  H     0.53498   0.89003   0.75579   0.00000  Uiso   1.00
H2229  H     0.95721   0.62150   0.29145   0.00000  Uiso   1.00
H2230  H     0.96505   0.61010   0.24420   0.00000  Uiso   1.00
H2231  H     0.87795   0.95695   0.70743   0.00000  Uiso   1.00
H2232  H     0.88981   0.96513   0.75447   0.00000  Uiso   1.00
H2233  H     0.62413   0.54564   0.29744   0.00000  Uiso   1.00
H2234  H     0.92009   0.90261   0.57306   0.00000  Uiso   1.00
H2235  H     0.61095   0.53468   0.25148   0.00000  Uiso   1.00
H2236  H     0.95742   0.62141   0.70875   0.00000  Uiso   1.00
H2237  H     0.96501   0.60996   0.75605   0.00000  Uiso   1.00
H2238  H     0.54279   0.87848   0.29135   0.00000  Uiso   1.00
H2239  H     0.53496   0.88990   0.24408   0.00000  Uiso   1.00
H2240  H     0.87135   0.70748   0.79081   0.00000  Uiso   1.00
H2241  H     0.86005   0.71503   0.74346   0.00000  Uiso   1.00
H2242  H     0.62855   0.79235   0.20899   0.00000  Uiso   1.00
H2243  H     0.64002   0.78493   0.25630   0.00000  Uiso   1.00
H2244  H     0.79313   0.87182   0.79208   0.00000  Uiso   1.00
H2245  H     0.83914   0.92233   0.46043   0.00000  Uiso   1.00
H2246  H     0.78496   0.86016   0.74498   0.00000  Uiso   1.00
H2247  H     0.70466   0.62611   0.20297   0.00000  Uiso   1.00
H2248  H     0.71524   0.63934   0.24899   0.00000  Uiso   1.00
H2249  H     0.62862   0.79253   0.79099   0.00000  Uiso   1.00
H2250  H     0.63995   0.78497   0.74368   0.00000  Uiso   1.00
H2251  H     0.87145   0.70766   0.20888   0.00000  Uiso   1.00
H2252  H     0.85998   0.71507   0.25616   0.00000  Uiso   1.00
H2253  H     0.70683   0.62802   0.79227   0.00000  Uiso   1.00
H2254  H     0.71504   0.63984   0.74522   0.00000  Uiso   1.00
H2255  H     0.79468   0.87339   0.20416   0.00000  Uiso   1.00
H2256  H     0.86407   0.93899   0.50171   0.00000  Uiso   1.00
H2257  H     0.78475   0.86052   0.25048   0.00000  Uiso   1.00
H2258  H     0.87336   0.79483   0.20396   0.00000  Uiso   1.00
H2259  H     0.86063   0.78469   0.25027   0.00000  Uiso   1.00
H2260  H     0.62795   0.70685   0.79226   0.00000  Uiso   1.00
H2261  H     0.63974   0.71512   0.74521   0.00000  Uiso   1.00
H2262  H     0.79268   0.62863   0.20850   0.00000  Uiso   1.00
H2263  H     0.78492   0.63999   0.25576   0.00000  Uiso   1.00
H2264  H     0.70746   0.87139   0.79092   0.00000  Uiso   1.00
H2265  H     0.71498   0.86001   0.74362   0.00000  Uiso   1.00
H2266  H     0.62601   0.70460   0.20277   0.00000  Uiso   1.00
H2267  H     0.89398   0.94349   0.41832   0.00000  Uiso   1.00
H2268  H     0.63922   0.71532   0.24877   0.00000  Uiso   1.00
H2269  H     0.87199   0.79295   0.79196   0.00000  Uiso   1.00
H2270  H     0.86021   0.78491   0.74486   0.00000  Uiso   1.00
H2271  H     0.70733   0.87139   0.20863   0.00000  Uiso   1.00
H2272  H     0.71507   0.86001   0.25592   0.00000  Uiso   1.00
H2273  H     0.79250   0.62863   0.79072   0.00000  Uiso   1.00
H2274  H     0.78502   0.64000   0.74337   0.00000  Uiso   1.00
H2275  H     0.57350   0.83693   0.38989   0.00000  Uiso   1.00
H2276  H     0.56129   0.80676   0.35258   0.00000  Uiso   1.00
H2277  H     0.58578   0.78228   0.43542   0.00000  Uiso   1.00
H2278  H     0.91774   0.95239   0.46307   0.00000  Uiso   1.00
H2279  H     0.57736   0.75251   0.39483   0.00000  Uiso   1.00
H2280  H     0.62743   0.78299   0.35738   0.00000  Uiso   1.00
H2281  H     0.64335   0.76370   0.40272   0.00000  Uiso   1.00
H2282  H     0.63641   0.81247   0.39869   0.00000  Uiso   1.00
H2283  H     0.54275   0.64714   0.62228   0.00000  Uiso   1.00
H2284  H     0.53536   0.68438   0.65327   0.00000  Uiso   1.00
H2285  H     0.57511   0.68927   0.57313   0.00000  Uiso   1.00
H2286  H     0.57192   0.72533   0.60810   0.00000  Uiso   1.00
H2287  H     0.60632   0.68753   0.65652   0.00000  Uiso   1.00
H2288  H     0.63183   0.69490   0.61227   0.00000  Uiso   1.00
H2289  H     0.90758   0.88594   0.48267   0.00000  Uiso   1.00
H2290  H     0.61032   0.65124   0.62092   0.00000  Uiso   1.00
H2291  H     0.65852   0.56749   0.38495   0.00000  Uiso   1.00
H2292  H     0.69135   0.55584   0.35038   0.00000  Uiso   1.00
H2293  H     0.70908   0.58523   0.43337   0.00000  Uiso   1.00
H2294  H     0.74188   0.57737   0.39534   0.00000  Uiso   1.00
H2295  H     0.72574   0.64272   0.39907   0.00000  Uiso   1.00
H2296  H     0.67795   0.63228   0.39208   0.00000  Uiso   1.00
H2297  H     0.71051   0.62370   0.35339   0.00000  Uiso   1.00
H2298  H     0.85254   0.54324   0.62040   0.00000  Uiso   1.00
H2299  H     0.81559   0.53667   0.65211   0.00000  Uiso   1.00
H2300  H     0.94011   0.63412   0.50094   0.00000  Uiso   1.00
H2301  H     0.93401   0.89102   0.43862   0.00000  Uiso   1.00
H2302  H     0.80937   0.57427   0.57089   0.00000  Uiso   1.00
H2303  H     0.77428   0.57246   0.60717   0.00000  Uiso   1.00
H2304  H     0.80510   0.63224   0.60836   0.00000  Uiso   1.00
H2305  H     0.84892   0.61060   0.61592   0.00000  Uiso   1.00
H2306  H     0.81391   0.60786   0.65310   0.00000  Uiso   1.00
H2307  H     0.92651   0.66320   0.38997   0.00000  Uiso   1.00
H2308  H     0.93880   0.69359   0.35292   0.00000  Uiso   1.00
H2309  H     0.91484   0.71748   0.43607   0.00000  Uiso   1.00
H2310  H     0.92319   0.74757   0.39567   0.00000  Uiso   1.00
H2311  H     0.87276   0.71769   0.35823   0.00000  Uiso   1.00
H2312  H     0.88646   0.87811   0.43581   0.00000  Uiso   1.00
H2313  H     0.85719   0.73668   0.40379   0.00000  Uiso   1.00
H2314  H     0.86383   0.68791   0.39934   0.00000  Uiso   1.00
H2315  H     0.95694   0.85266   0.62071   0.00000  Uiso   1.00
H2316  H     0.96377   0.81555   0.65218   0.00000  Uiso   1.00
H2317  H     0.92582   0.80994   0.57111   0.00000  Uiso   1.00
H2318  H     0.92803   0.77440   0.60691   0.00000  Uiso   1.00
H2319  H     0.86814   0.80504   0.60887   0.00000  Uiso   1.00
H2320  H     0.88958   0.84883   0.61694   0.00000  Uiso   1.00
H2321  H     0.89270   0.81329   0.65358   0.00000  Uiso   1.00
H2322  H     0.83712   0.92722   0.39010   0.00000  Uiso   1.00
H2323  H     0.64396   0.95234   0.54030   0.00000  Uiso   1.00
H2324  H     0.80705   0.93939   0.35267   0.00000  Uiso   1.00
H2325  H     0.78226   0.91485   0.43538   0.00000  Uiso   1.00
H2326  H     0.75276   0.92296   0.39449   0.00000  Uiso   1.00
H2327  H     0.76442   0.85705   0.40271   0.00000  Uiso   1.00
H2328  H     0.81313   0.86425   0.39914   0.00000  Uiso   1.00
H2329  H     0.78391   0.87295   0.35751   0.00000  Uiso   1.00
H2330  H     0.64730   0.95668   0.62099   0.00000  Uiso   1.00
H2331  H     0.68445   0.96357   0.65232   0.00000  Uiso   1.00
H2332  H     0.69030   0.92597   0.57111   0.00000  Uiso   1.00
H2333  H     0.72562   0.92796   0.60713   0.00000  Uiso   1.00
H2334  H     0.61975   0.97574   0.50205   0.00000  Uiso   1.00
H2335  H     0.68653   0.89232   0.65338   0.00000  Uiso   1.00
H2336  H     0.69516   0.86802   0.60861   0.00000  Uiso   1.00
H2337  H     0.65127   0.88939   0.61644   0.00000  Uiso   1.00
H2338  H     0.84500   0.56518   0.89871   0.00000  Uiso   1.00
H2339  H     0.83118   0.53702   0.86015   0.00000  Uiso   1.00
H2340  H     0.83890   0.51203   0.94617   0.00000  Uiso   1.00
H2341  H     0.82655   0.98285   0.90583   0.00000  Uiso   1.00
H2342  H     0.88635   0.99638   0.87392   0.00000  Uiso   1.00
H2343  H     0.89211   0.97687   0.92180   0.00000  Uiso   1.00
H2344  H     0.89886   0.52534   0.91460   0.00000  Uiso   1.00
H2345  H     0.60089   0.98858   0.58787   0.00000  Uiso   1.00
H2346  H     0.76707   0.89143   0.12731   0.00000  Uiso   1.00
H2347  H     0.76825   0.93194   0.15474   0.00000  Uiso   1.00
H2348  H     0.80948   0.92111   0.07630   0.00000  Uiso   1.00
H2349  H     0.81481   0.95892   0.10899   0.00000  Uiso   1.00
H2350  H     0.86526   0.91460   0.11664   0.00000  Uiso   1.00
H2351  H     0.83328   0.87841   0.12740   0.00000  Uiso   1.00
H2352  H     0.83825   0.91666   0.16047   0.00000  Uiso   1.00
H2353  H     0.94435   0.85148   0.90016   0.00000  Uiso   1.00
H2354  H     0.97346   0.83611   0.86300   0.00000  Uiso   1.00
H2355  H     0.99362   0.83964   0.95068   0.00000  Uiso   1.00
H2356  H     0.57451   0.99948   0.54532   0.00000  Uiso   1.00
H2357  H     0.52401   0.82523   0.91212   0.00000  Uiso   1.00
H2358  H     0.53484   0.88975   0.93024   0.00000  Uiso   1.00
H2359  H     0.98785   0.90115   0.91960   0.00000  Uiso   1.00
H2360  H     0.51823   0.88661   0.88091   0.00000  Uiso   1.00
H2361  H     0.60852   0.75537   0.13083   0.00000  Uiso   1.00
H2362  H     0.56711   0.76297   0.15462   0.00000  Uiso   1.00
H2363  H     0.58877   0.79940   0.07609   0.00000  Uiso   1.00
H2364  H     0.54939   0.81072   0.10496   0.00000  Uiso   1.00
H2365  H     0.59911   0.85553   0.11498   0.00000  Uiso   1.00
H2366  H     0.62973   0.81965   0.13058   0.00000  Uiso   1.00
H2367  H     0.56563   0.93320   0.53153   0.00000  Uiso   1.00
H2368  H     0.58972   0.83086   0.15934   0.00000  Uiso   1.00
H2369  H     0.65504   0.93479   0.89872   0.00000  Uiso   1.00
H2370  H     0.66884   0.96290   0.86008   0.00000  Uiso   1.00
H2371  H     0.66112   0.98801   0.94600   0.00000  Uiso   1.00
H2372  H     0.67349   0.51714   0.90559   0.00000  Uiso   1.00
H2373  H     0.61369   0.50358   0.87364   0.00000  Uiso   1.00
H2374  H     0.60793   0.52315   0.92144   0.00000  Uiso   1.00
H2375  H     0.60117   0.97467   0.91439   0.00000  Uiso   1.00
H2376  H     0.73263   0.60852   0.12705   0.00000  Uiso   1.00
H2377  H     0.73150   0.56802   0.15454   0.00000  Uiso   1.00
H2378  H     0.55084   0.94437   0.58022   0.00000  Uiso   1.00
H2379  H     0.69036   0.57881   0.07597   0.00000  Uiso   1.00
H2380  H     0.68509   0.54092   0.10863   0.00000  Uiso   1.00
H2381  H     0.66143   0.58295   0.16006   0.00000  Uiso   1.00
H2382  H     0.63451   0.58511   0.11613   0.00000  Uiso   1.00
H2383  H     0.66639   0.62133   0.12709   0.00000  Uiso   1.00
H2384  H     0.55542   0.64836   0.90033   0.00000  Uiso   1.00
H2385  H     0.52613   0.66381   0.86331   0.00000  Uiso   1.00
H2386  H     0.50642   0.66029   0.95108   0.00000  Uiso   1.00
H2387  H     0.97585   0.67471   0.91263   0.00000  Uiso   1.00
H2388  H     0.96507   0.61020   0.93094   0.00000  Uiso   1.00
H2389  H     0.59385   0.92127   0.57303   0.00000  Uiso   1.00
H2390  H     0.51199   0.59877   0.92010   0.00000  Uiso   1.00
H2391  H     0.98141   0.61332   0.88152   0.00000  Uiso   1.00
H2392  H     0.89150   0.74464   0.13068   0.00000  Uiso   1.00
H2393  H     0.93289   0.73705   0.15456   0.00000  Uiso   1.00
H2394  H     0.91132   0.70063   0.07604   0.00000  Uiso   1.00
H2395  H     0.95067   0.68933   0.10502   0.00000  Uiso   1.00
H2396  H     0.91029   0.66915   0.15933   0.00000  Uiso   1.00
H2397  H     0.90096   0.64449   0.11499   0.00000  Uiso   1.00
H2398  H     0.87031   0.68036   0.13046   0.00000  Uiso   1.00
H2399  H     0.57843   0.83962   0.46021   0.00000  Uiso   1.00
H2400  H     0.94482   0.60616   0.41680   0.00000  Uiso   1.00
H2401  H     0.56159   0.86439   0.50157   0.00000  Uiso   1.00
H2402  H     0.55748   0.89428   0.41806   0.00000  Uiso   1.00
H2403  H     0.54738   0.91798   0.46257   0.00000  Uiso   1.00
H2404  H     0.61352   0.90880   0.48357   0.00000  Uiso   1.00
H2405  H     0.60883   0.93518   0.43937   0.00000  Uiso   1.00
H2406  H     0.62262   0.88779   0.43693   0.00000  Uiso   1.00
H2407  H     0.54898   0.64486   0.53989   0.00000  Uiso   1.00
H2408  H     0.52580   0.61984   0.50228   0.00000  Uiso   1.00
H2409  H     0.50951   0.60099   0.58710   0.00000  Uiso   1.00
H2410  H     0.50633   0.57308   0.54422   0.00000  Uiso   1.00
H2411  H     0.95394   0.58137   0.46090   0.00000  Uiso   1.00
H2412  H     0.57482   0.57143   0.53985   0.00000  Uiso   1.00
H2413  H     0.55873   0.55478   0.58617   0.00000  Uiso   1.00
H2414  H     0.57794   0.60002   0.58257   0.00000  Uiso   1.00
H2415  H     0.64910   0.57621   0.45155   0.00000  Uiso   1.00
H2416  H     0.64028   0.56275   0.50039   0.00000  Uiso   1.00
H2417  H     0.58183   0.53259   0.47906   0.00000  Uiso   1.00
H2418  H     0.58317   0.58127   0.47092   0.00000  Uiso   1.00
H2419  H     0.59596   0.57229   0.40118   0.00000  Uiso   1.00
H2420  H     0.55580   0.54704   0.41501   0.00000  Uiso   1.00
H2421  H     0.59838   0.52305   0.40782   0.00000  Uiso   1.00
H2422  H     0.88747   0.59103   0.48082   0.00000  Uiso   1.00
H2423  H     0.85552   0.54866   0.53885   0.00000  Uiso   1.00
H2424  H     0.87898   0.52448   0.50063   0.00000  Uiso   1.00
H2425  H     0.89930   0.51253   0.58622   0.00000  Uiso   1.00
H2426  H     0.92495   0.50154   0.54319   0.00000  Uiso   1.00
H2427  H     0.93415   0.56741   0.52907   0.00000  Uiso   1.00
H2428  H     0.94890   0.55680   0.57789   0.00000  Uiso   1.00
H2429  H     0.90595   0.57992   0.57035   0.00000  Uiso   1.00
H2430  H     0.65512   0.92495   0.96773   0.00000  Uiso   1.00
H2431  H     0.67235   0.89490   0.00506   0.00000  Uiso   1.00
H2432  H     0.65874   0.87297   0.91992   0.00000  Uiso   1.00
H2433  H     0.89269   0.56531   0.43631   0.00000  Uiso   1.00
H2434  H     0.67655   0.84372   0.95749   0.00000  Uiso   1.00
H2435  H     0.61908   0.85179   0.99608   0.00000  Uiso   1.00
H2436  H     0.60977   0.83412   0.94811   0.00000  Uiso   1.00
H2437  H     0.60104   0.88173   0.95861   0.00000  Uiso   1.00
H2438  H     0.72980   0.63150   0.05897   0.00000  Uiso   1.00
H2439  H     0.71443   0.60363   0.01952   0.00000  Uiso   1.00
H2440  H     0.77486   0.66064   0.00655   0.00000  Uiso   1.00
H2441  H     0.74363   0.64092   0.97190   0.00000  Uiso   1.00
H2442  H     0.69153   0.67375   0.00646   0.00000  Uiso   1.00
H2443  H     0.72512   0.70389   0.98499   0.00000  Uiso   1.00
H2444  H     0.87948   0.61289   0.43435   0.00000  Uiso   1.00
H2445  H     0.72537   0.69599   0.03677   0.00000  Uiso   1.00
H2446  H     0.56998   0.65031   0.96995   0.00000  Uiso   1.00
H2447  H     0.60335   0.66717   0.00427   0.00000  Uiso   1.00
H2448  H     0.61797   0.64943   0.91822   0.00000  Uiso   1.00
H2449  H     0.65059   0.66845   0.95158   0.00000  Uiso   1.00
H2450  H     0.64465   0.61311   0.99441   0.00000  Uiso   1.00
H2451  H     0.65832   0.60106   0.94566   0.00000  Uiso   1.00
H2452  H     0.61159   0.59392   0.96081   0.00000  Uiso   1.00
H2453  H     0.88894   0.72363   0.01689   0.00000  Uiso   1.00
H2454  H     0.86623   0.76223   0.99427   0.00000  Uiso   1.00
H2455  H     0.95187   0.85494   0.53795   0.00000  Uiso   1.00
H2456  H     0.85400   0.73608   0.07807   0.00000  Uiso   1.00
H2457  H     0.83265   0.77498   0.05561   0.00000  Uiso   1.00
H2458  H     0.80501   0.73309   0.00517   0.00000  Uiso   1.00
H2459  H     0.79217   0.72034   0.05403   0.00000  Uiso   1.00
H2460  H     0.82698   0.69451   0.02881   0.00000  Uiso   1.00
H2461  H     0.84480   0.57511   0.96771   0.00000  Uiso   1.00
H2462  H     0.82756   0.60518   0.00494   0.00000  Uiso   1.00
H2463  H     0.84112   0.62704   0.91975   0.00000  Uiso   1.00
H2464  H     0.82331   0.65632   0.95723   0.00000  Uiso   1.00
H2465  H     0.88080   0.64832   0.99589   0.00000  Uiso   1.00
H2466  H     0.97612   0.87947   0.50060   0.00000  Uiso   1.00
H2467  H     0.89008   0.66595   0.94787   0.00000  Uiso   1.00
H2468  H     0.89884   0.61835   0.95852   0.00000  Uiso   1.00
H2469  H     0.77012   0.86844   0.05918   0.00000  Uiso   1.00
H2470  H     0.78553   0.89637   0.01978   0.00000  Uiso   1.00
H2471  H     0.72512   0.83936   0.00669   0.00000  Uiso   1.00
H2472  H     0.75632   0.85919   0.97207   0.00000  Uiso   1.00
H2473  H     0.80847   0.82635   0.00661   0.00000  Uiso   1.00
H2474  H     0.77489   0.79622   0.98513   0.00000  Uiso   1.00
H2475  H     0.77469   0.80402   0.03692   0.00000  Uiso   1.00
H2476  H     0.92997   0.84971   0.96965   0.00000  Uiso   1.00
N2477  N     0.60526   0.94834   0.26804   0.00000  Uiso   1.00
N2478  N     0.89362   0.94741   0.27286   0.00000  Uiso   1.00
N2479  N     0.55164   0.89484   0.73165   0.00000  Uiso   1.00
N2480  N     0.94830   0.60526   0.26827   0.00000  Uiso   1.00
N2481  N     0.89446   0.94820   0.73050   0.00000  Uiso   1.00
N2482  N     0.60679   0.55290   0.27447   0.00000  Uiso   1.00
N2483  N     0.94838   0.60515   0.73187   0.00000  Uiso   1.00
N2484  N     0.55171   0.89473   0.26817   0.00000  Uiso   1.00
N2485  N     0.85518   0.69841   0.76765   0.00000  Uiso   1.00
N2486  N     0.64481   0.80151   0.23205   0.00000  Uiso   1.00
N2487  N     0.80189   0.85543   0.76896   0.00000  Uiso   1.00
N2488  N     0.89469   0.55163   0.73142   0.00000  Uiso   1.00
N2489  N     0.69717   0.64344   0.22583   0.00000  Uiso   1.00
N2490  N     0.64481   0.80160   0.76784   0.00000  Uiso   1.00
N2491  N     0.85519   0.69850   0.23193   0.00000  Uiso   1.00
N2492  N     0.69809   0.64450   0.76917   0.00000  Uiso   1.00
N2493  N     0.80251   0.85627   0.22711   0.00000  Uiso   1.00
N2494  N     0.85630   0.80254   0.22696   0.00000  Uiso   1.00
N2495  N     0.64442   0.69814   0.76918   0.00000  Uiso   1.00
N2496  N     0.80164   0.64485   0.23167   0.00000  Uiso   1.00
N2497  N     0.69838   0.85517   0.76780   0.00000  Uiso   1.00
N2498  N     0.64335   0.69719   0.22568   0.00000  Uiso   1.00
N2499  N     0.55293   0.60657   0.27410   0.00000  Uiso   1.00
N2500  N     0.85554   0.80177   0.76888   0.00000  Uiso   1.00
N2501  N     0.69836   0.85515   0.23180   0.00000  Uiso   1.00
N2502  N     0.80161   0.64484   0.76758   0.00000  Uiso   1.00
N2503  N     0.94805   0.89442   0.73002   0.00000  Uiso   1.00
N2504  N     0.89475   0.55165   0.26810   0.00000  Uiso   1.00
N2505  N     0.60533   0.94836   0.73120   0.00000  Uiso   1.00
N2506  N     0.94743   0.89376   0.27253   0.00000  Uiso   1.00
N2507  N     0.55198   0.60567   0.72971   0.00000  Uiso   1.00
N2508  N     0.60559   0.55190   0.73011   0.00000  Uiso   1.00
O2509  O     0.75000   0.50000   0.25000   0.00000  Uiso   1.00
O2510  O     0.75000   0.96964   0.66245   0.00000  Uiso   1.00
O2511  O     0.96964   0.75000   0.33755   0.00000  Uiso   1.00
O2512  O     0.53037   0.75000   0.66245   0.00000  Uiso   1.00
O2513  O     0.50000   0.71963   0.83755   0.00000  Uiso   1.00
O2514  O     0.50000   0.78036   0.16245   0.00000  Uiso   1.00
O2515  O     0.78037   0.50000   0.83755   0.00000  Uiso   1.00
O2516  O     0.71964   0.50000   0.16245   0.00000  Uiso   1.00
O2517  O     0.50000   0.78036   0.83755   0.00000  Uiso   1.00
O2518  O     0.50000   0.71963   0.16245   0.00000  Uiso   1.00
O2519  O     0.71964   0.50000   0.83755   0.00000  Uiso   1.00
O2520  O     0.75000   0.50000   0.75000   0.00000  Uiso   1.00
O2521  O     0.78037   0.50000   0.16245   0.00000  Uiso   1.00
O2522  O     0.70725   0.57308   0.27302   0.00000  Uiso   1.00
O2523  O     0.79276   0.92693   0.72698   0.00000  Uiso   1.00
O2524  O     0.92693   0.70725   0.27302   0.00000  Uiso   1.00
O2525  O     0.57308   0.79275   0.72698   0.00000  Uiso   1.00
O2526  O     0.79276   0.92693   0.27302   0.00000  Uiso   1.00
O2527  O     0.70725   0.57308   0.72698   0.00000  Uiso   1.00
O2528  O     0.57308   0.79275   0.27302   0.00000  Uiso   1.00
O2529  O     0.92693   0.70725   0.72698   0.00000  Uiso   1.00
O2530  O     0.70725   0.92693   0.72698   0.00000  Uiso   1.00
O2531  O     0.50000   0.75000   0.25000   0.00000  Uiso   1.00
O2532  O     0.79276   0.57308   0.27302   0.00000  Uiso   1.00
O2533  O     0.92693   0.79276   0.72698   0.00000  Uiso   1.00
O2534  O     0.57308   0.70724   0.27302   0.00000  Uiso   1.00
O2535  O     0.79276   0.57308   0.72698   0.00000  Uiso   1.00
O2536  O     0.70725   0.92693   0.27302   0.00000  Uiso   1.00
O2537  O     0.57308   0.70724   0.72698   0.00000  Uiso   1.00
O2538  O     0.92693   0.79276   0.27302   0.00000  Uiso   1.00
O2539  O     0.95725   0.82308   0.77302   0.00000  Uiso   1.00
O2540  O     0.54276   0.67692   0.22698   0.00000  Uiso   1.00
O2541  O     0.67693   0.95724   0.77302   0.00000  Uiso   1.00
O2542  O     0.50000   0.75000   0.75000   0.00000  Uiso   1.00
O2543  O     0.82308   0.54276   0.22698   0.00000  Uiso   1.00
O2544  O     0.54276   0.67692   0.77302   0.00000  Uiso   1.00
O2545  O     0.95725   0.82308   0.22698   0.00000  Uiso   1.00
O2546  O     0.82308   0.54276   0.77302   0.00000  Uiso   1.00
O2547  O     0.67693   0.95724   0.22698   0.00000  Uiso   1.00
O2548  O     0.95725   0.67693   0.22698   0.00000  Uiso   1.00
O2549  O     0.54276   0.82307   0.77302   0.00000  Uiso   1.00
O2550  O     0.67693   0.54276   0.22698   0.00000  Uiso   1.00
O2551  O     0.82308   0.95725   0.77302   0.00000  Uiso   1.00
O2552  O     0.54276   0.82307   0.22698   0.00000  Uiso   1.00
O2553  O     0.75000   0.96964   0.33755   0.00000  Uiso   1.00
O2554  O     0.95725   0.67693   0.77302   0.00000  Uiso   1.00
O2555  O     0.82308   0.95725   0.22698   0.00000  Uiso   1.00
O2556  O     0.67693   0.54276   0.77302   0.00000  Uiso   1.00
O2557  O     0.97986   0.65146   0.46070   0.00000  Uiso   1.00
O2558  O     0.50863   0.84983   0.53967   0.00000  Uiso   1.00
O2559  O     0.84766   0.97867   0.46073   0.00000  Uiso   1.00
O2560  O     0.64963   0.50908   0.53999   0.00000  Uiso   1.00
O2561  O     0.52207   0.84788   0.46055   0.00000  Uiso   1.00
O2562  O     0.99217   0.64975   0.53996   0.00000  Uiso   1.00
O2563  O     0.65101   0.51986   0.46014   0.00000  Uiso   1.00
O2564  O     0.75000   0.53037   0.66245   0.00000  Uiso   1.00
O2565  O     0.84955   0.99197   0.53984   0.00000  Uiso   1.00
O2566  O     0.70935   0.90848   0.96051   0.00000  Uiso   1.00
O2567  O     0.77017   0.59841   0.03775   0.00000  Uiso   1.00
O2568  O     0.58835   0.70356   0.95979   0.00000  Uiso   1.00
O2569  O     0.90299   0.77576   0.03832   0.00000  Uiso   1.00
O2570  O     0.79055   0.59154   0.96040   0.00000  Uiso   1.00
O2571  O     0.72978   0.90158   0.03787   0.00000  Uiso   1.00
O2572  O     0.91161   0.79646   0.95963   0.00000  Uiso   1.00
O2573  O     0.59700   0.72423   0.03845   0.00000  Uiso   1.00
O2574  O     0.52395   0.81165   0.39768   0.00000  Uiso   1.00
O2575  O     0.53037   0.75000   0.33755   0.00000  Uiso   1.00
O2576  O     0.50440   0.68339   0.60244   0.00000  Uiso   1.00
O2577  O     0.68653   0.52037   0.39737   0.00000  Uiso   1.00
O2578  O     0.81605   0.50448   0.60220   0.00000  Uiso   1.00
O2579  O     0.97625   0.68806   0.39793   0.00000  Uiso   1.00
O2580  O     0.99573   0.81633   0.60208   0.00000  Uiso   1.00
O2581  O     0.81159   0.97673   0.39785   0.00000  Uiso   1.00
O2582  O     0.68332   0.99569   0.60229   0.00000  Uiso   1.00
O2583  O     0.79016   0.55266   0.89837   0.00000  Uiso   1.00
O2584  O     0.73958   0.93396   0.10216   0.00000  Uiso   1.00
O2585  O     0.95192   0.79573   0.89881   0.00000  Uiso   1.00
O2586  O     0.96964   0.75000   0.66245   0.00000  Uiso   1.00
O2587  O     0.56471   0.73327   0.10246   0.00000  Uiso   1.00
O2588  O     0.70988   0.94732   0.89838   0.00000  Uiso   1.00
O2589  O     0.76026   0.56604   0.10206   0.00000  Uiso   1.00
O2590  O     0.54794   0.70413   0.89899   0.00000  Uiso   1.00
O2591  O     0.93531   0.76678   0.10237   0.00000  Uiso   1.00
O2592  O     0.75000   0.53037   0.33755   0.00000  Uiso   1.00
Zn2593 Zn    0.70660   0.50000   0.21735   0.00000  Uiso   1.00
Zn2594 Zn    0.54341   0.75000   0.28265   0.00000  Uiso   1.00
Zn2595 Zn    0.75000   0.95660   0.71735   0.00000  Uiso   1.00
Zn2596 Zn    0.75000   0.54341   0.28265   0.00000  Uiso   1.00
Zn2597 Zn    0.54341   0.75000   0.71735   0.00000  Uiso   1.00
Zn2598 Zn    0.95660   0.75000   0.28265   0.00000  Uiso   1.00
Zn2599 Zn    0.75000   0.54341   0.71735   0.00000  Uiso   1.00
Zn2600 Zn    0.75000   0.95660   0.28265   0.00000  Uiso   1.00
Zn2601 Zn    0.79341   0.50000   0.78265   0.00000  Uiso   1.00
Zn2602 Zn    0.50000   0.70659   0.21735   0.00000  Uiso   1.00
Zn2603 Zn    0.50000   0.79340   0.78265   0.00000  Uiso   1.00
Zn2604 Zn    0.79341   0.50000   0.21735   0.00000  Uiso   1.00
Zn2605 Zn    0.70660   0.50000   0.78265   0.00000  Uiso   1.00
Zn2606 Zn    0.50000   0.79340   0.21735   0.00000  Uiso   1.00
Zn2607 Zn    0.50000   0.70659   0.78265   0.00000  Uiso   1.00
Zn2608 Zn    0.95660   0.75000   0.71735   0.00000  Uiso   1.00
loop_
_geom_bond_atom_site_label_1
_geom_bond_atom_site_label_2
_geom_bond_distance
_geom_bond_site_symmetry_2
_ccdc_geom_bond_type
C1     O618    1.389   .     S
C1     C79     1.406   .     A
C1     C4      1.412   .     A
C2     C14     1.411   .     A
C2     C135    1.411   .     A
C2     O628    1.393   .     S
C3     C154    1.418   .     A
C3     C38     1.420   .     A
C3     C1515   1.413   1_545 S
C4     C34     1.421   .     A
C4     C155    1.418   .     A
C5     C157    1.418   .     A
C5     C688    1.420   .     S
C5     C764    1.412   .     S
C6     C158    1.419   .     A
C6     C37     1.422   .     A
C6     C156    1.413   .     A
C7     C159    1.417   .     A
C7     C1342   1.421   .     S
C7     C1471   1.411   .     S
C8     C35     1.411   .     A
C8     C39     1.417   .     A
C8     C160    1.415   .     A
C9     C46     1.411   .     A
C9     C161    1.418   .     A
C9     C1344   1.417   1_545 S
C10    C162    1.414   .     A
C10    C57     1.411   .     A
C10    C693    1.415   1_455 S
C11    C163    1.420   .     A
C11    C68     1.412   .     A
C11    C42     1.419   .     A
C12    C222    1.411   .     A
C12    C164    1.415   .     A
C12    C1343   1.417   1_545 S
C13    C15     1.411   .     A
C13    C146    1.408   .     A
C13    O629    1.387   .     S
C14    C40     1.417   .     A
C14    C165    1.418   .     A
C15    C166    1.414   .     A
C15    C41     1.415   .     A
C16    C24     1.412   .     A
C16    C168    1.420   .     A
C16    C694    1.419   1_455 S
C17    C184    1.450   .     S
C17    C212    1.410   .     A
C17    C214    1.410   .     A
C18    C210    1.410   .     A
C18    C185    1.450   .     S
C18    C213    1.410   .     A
C19    C209    1.409   .     A
C19    C177    1.448   .     S
C19    C216    1.409   .     A
C20    C215    1.410   .     A
C20    C179    1.449   .     S
C20    C208    1.410   .     A
C21    C180    1.450   .     S
C21    C218    1.410   .     A
C21    C207    1.410   .     A
C22    C181    1.451   .     S
C22    C217    1.410   .     A
C22    C206    1.410   .     A
C23    C182    1.448   .     S
C23    C205    1.409   .     A
C23    C220    1.409   .     A
C24    C150    1.410   .     A
C24    O631    1.394   .     S
C25    C204    1.410   .     A
C25    C219    1.410   .     A
C25    C183    1.449   .     S
C26    C203    1.409   .     A
C26    C223    1.410   .     A
C26    C193    1.448   .     S
C27    C202    1.409   .     A
C27    C221    1.410   .     A
C27    C194    1.449   .     S
C28    C201    1.410   .     A
C28    C186    1.450   .     S
C28    C225    1.410   .     A
C29    C199    1.410   .     A
C29    C224    1.410   .     A
C29    C187    1.451   .     S
C30    C198    1.409   .     A
C30    C188    1.448   .     S
C30    C227    1.410   .     A
C31    C226    1.409   .     A
C31    C190    1.449   .     S
C31    C197    1.409   .     A
C32    C196    1.410   .     A
C32    C229    1.410   .     A
C32    C191    1.450   .     S
C33    C195    1.410   .     A
C33    C228    1.410   .     A
C33    C192    1.451   .     S
C34    C36     1.411   .     A
C34    C882    1.421   1_455 S
C35    C124    1.407   .     A
C35    O632    1.388   .     S
C36    C231    1.420   .     A
C36    C657    1.420   1_455 S
C37    C38     1.411   .     A
C37    C1536   1.422   1_545 S
C38    C1311   1.421   1_545 S
C39    C1316   1.417   .     S
C39    C40     1.409   1_556 S
C40    C1313   1.417   .     S
C40    C39     1.409   1_554 S
C41    C662    1.415   .     S
C41    C42     1.407   1_556 S
C42    C668    1.419   .     S
C42    C41     1.407   1_554 S
C43    C44     1.529   .     S
C43    H233    1.109   .     S
C43    O601    1.416   .     S
C43    H344    1.110   .     S
C44    H444    1.111   .     S
C44    H455    1.111   .     S
C44    C45     1.527   .     S
C45    H466    1.110   .     S
C45    H477    1.110   .     S
C45    H488    1.111   .     S
C46    O633    1.393   .     S
C46    C1439   1.411   1_545 S
C47    C48     1.531   .     S
C47    H499    1.110   .     S
C47    H510    1.111   .     S
C47    O1254   1.414   .     S
C48    H245    1.110   .     S
C48    C49     1.525   .     S
C48    H234    1.111   .     S
C49    H256    1.109   .     S
C49    H267    1.110   .     S
C49    H278    1.111   .     S
C50    H300    1.110   .     S
C50    O603    1.416   .     S
C50    H289    1.109   .     S
C50    C51     1.530   .     S
C51    C52     1.527   .     S
C51    H311    1.111   .     S
C51    H322    1.112   .     S
C52    H333    1.110   .     S
C52    H356    1.111   .     S
C52    H345    1.110   .     S
C53    C54     1.530   .     S
C53    H378    1.110   .     S
C53    H367    1.109   .     S
C53    O1908   1.414   .     S
C54    H400    1.111   .     S
C54    H389    1.111   .     S
C54    C55     1.525   .     S
C55    H433    1.111   .     S
C55    H422    1.110   .     S
C55    H411    1.109   .     S
C56    H443    1.109   .     S
C56    O605    1.416   .     S
C56    H445    1.111   .     S
C56    C58     1.529   .     S
C57    O634    1.387   .     S
C57    C798    1.408   1_455 S
C58    H447    1.112   .     S
C58    H446    1.111   .     S
C58    C59     1.527   .     S
C59    H450    1.111   .     S
C59    H448    1.110   .     S
C59    H449    1.111   .     S
C60    H452    1.112   .     S
C60    C61     1.533   .     S
C60    H451    1.109   .     S
C60    O1258   1.414   1_455 S
C61    H454    1.111   .     S
C61    C62     1.526   .     S
C61    H453    1.111   .     S
C62    H458    1.110   .     S
C62    H457    1.110   .     S
C62    H456    1.107   .     S
C63    H460    1.112   .     S
C63    C64     1.531   .     S
C63    H459    1.106   .     S
C63    O607    1.419   .     S
C64    H462    1.111   .     S
C64    C65     1.527   .     S
C64    H461    1.111   .     S
C65    H463    1.110   .     S
C65    H465    1.111   .     S
C65    H464    1.110   .     S
C66    C67     1.530   .     S
C66    H467    1.109   .     S
C66    H468    1.111   .     S
C66    O1913   1.414   1_545 S
C67    H469    1.111   .     S
C67    H470    1.110   .     S
C67    C69     1.525   .     S
C68    O635    1.394   .     S
C68    C802    1.410   .     S
C69    H471    1.109   .     S
C69    H473    1.111   .     S
C69    H472    1.110   .     S
C70    H474    1.112   .     S
C70    C71     1.530   .     S
C70    O610    1.417   .     S
C70    H475    1.110   1_556 S
C71    H478    1.111   .     S
C71    H476    1.110   .     S
C71    C72     1.527   .     S
C72    H479    1.111   .     S
C72    H480    1.111   .     S
C72    H481    1.111   .     S
C73    C74     1.532   .     S
C73    H482    1.110   .     S
C73    O611    1.419   .     S
C73    H483    1.117   .     S
C74    C75     1.525   .     S
C74    H484    1.108   .     S
C74    H485    1.110   1_554 S
C75    H486    1.110   .     S
C75    H489    1.110   .     S
C75    H487    1.110   1_554 S
C76    C77     1.530   .     S
C76    O612    1.415   .     S
C76    H490    1.113   .     S
C76    H491    1.110   1_556 S
C77    C78     1.527   .     S
C77    H493    1.111   .     S
C77    H492    1.110   .     S
C78    H496    1.111   .     S
C78    H494    1.111   .     S
C78    H495    1.111   .     S
C79    C171    1.456   .     S
C79    C830    1.407   1_455 S
C80    O613    1.417   .     S
C80    H497    1.116   .     S
C80    C81     1.527   .     S
C80    H498    1.110   1_554 S
C81    H501    1.110   .     S
C81    C82     1.524   .     S
C81    H500    1.106   .     S
C82    H503    1.110   .     S
C82    H504    1.111   .     S
C82    H502    1.111   .     S
C83    C84     1.530   .     S
C83    O614    1.417   .     S
C83    H505    1.112   .     S
C83    H506    1.110   1_556 S
C84    H508    1.111   .     S
C84    C85     1.527   .     S
C84    H507    1.111   .     S
C85    H512    1.111   .     S
C85    H509    1.111   .     S
C85    H511    1.111   .     S
C86    H513    1.110   .     S
C86    H514    1.117   .     S
C86    O615    1.419   .     S
C86    C87     1.532   .     S
C87    H515    1.108   .     S
C87    C88     1.525   .     S
C87    H516    1.110   1_554 S
C88    H517    1.110   .     S
C88    H519    1.110   .     S
C88    H518    1.110   1_554 S
C89    H520    1.113   .     S
C89    C91     1.530   .     S
C89    O616    1.415   .     S
C89    H235    1.110   1_556 S
C90    C112    1.407   .     A
C90    C172    1.448   .     S
C90    C841    1.407   1_455 S
C91    H237    1.111   .     S
C91    C92     1.527   .     S
C91    H236    1.110   .     S
C92    H239    1.111   .     S
C92    H238    1.111   .     S
C92    H240    1.111   .     S
C93    H241    1.116   .     S
C93    O617    1.417   .     S
C93    C94     1.527   .     S
C93    H242    1.110   1_554 S
C94    H243    1.106   .     S
C94    C95     1.524   .     S
C94    H244    1.110   .     S
C95    H246    1.111   .     S
C95    H248    1.111   .     S
C95    H247    1.110   .     S
C96    H320    1.108   .     S
C96    O618    1.430   .     S
C96    H319    1.108   .     S
C96    C97     1.552   .     S
C97    H323    1.110   .     S
C97    H321    1.109   .     S
C97    C98     1.526   .     S
C98    H326    1.111   .     S
C98    H325    1.110   .     S
C98    H324    1.111   .     S
C99    H327    1.109   .     S
C99    O620    1.428   .     S
C99    H328    1.108   .     S
C99    C100    1.550   .     S
C100   H330    1.109   .     S
C100   H329    1.107   .     S
C100   C102    1.527   .     S
C101   C200    1.405   .     A
C101   C169    1.454   .     S
C101   C1460   1.406   .     S
C102   H331    1.111   .     S
C102   H334    1.111   .     S
C102   H332    1.110   .     S
C103   H336    1.107   .     S
C103   H335    1.107   .     S
C103   C104    1.551   .     S
C103   O621    1.428   .     S
C104   C105    1.526   .     S
C104   H338    1.110   .     S
C104   H337    1.110   .     S
C105   H340    1.111   .     S
C105   H339    1.110   .     S
C105   H341    1.111   .     S
C106   C107    1.550   .     S
C106   O622    1.428   .     S
C106   H343    1.108   .     S
C106   H342    1.109   .     S
C107   H346    1.108   .     S
C107   H347    1.109   .     S
C107   C108    1.527   .     S
C108   H348    1.110   .     S
C108   H350    1.111   .     S
C108   H349    1.111   .     S
C109   O623    1.430   .     S
C109   H352    1.108   .     S
C109   C110    1.552   .     S
C109   H351    1.108   .     S
C110   C111    1.526   .     S
C110   H353    1.109   .     S
C110   H354    1.110   .     S
C111   H355    1.111   .     S
C111   H357    1.110   .     S
C111   H358    1.111   .     S
C112   O620    1.391   .     S
C112   C657    1.412   1_455 S
C113   C170    1.449   .     S
C113   C167    1.406   .     A
C113   C1515   1.407   1_545 S
C114   C115    1.550   .     S
C114   H359    1.109   .     S
C114   H360    1.108   .     S
C114   O624    1.428   .     S
C115   H361    1.107   .     S
C115   C116    1.527   .     S
C115   H362    1.109   .     S
C116   H364    1.111   .     S
C116   H363    1.110   .     S
C116   H365    1.111   .     S
C117   H366    1.108   .     S
C117   H368    1.108   .     S
C117   O625    1.430   .     S
C117   C118    1.553   .     S
C118   H369    1.109   .     S
C118   C119    1.526   .     S
C118   H370    1.110   .     S
C119   H371    1.110   .     S
C119   H373    1.111   .     S
C119   H372    1.111   .     S
C120   O626    1.428   .     S
C120   H375    1.108   .     S
C120   C121    1.550   .     S
C120   H374    1.109   .     S
C121   H376    1.108   .     S
C121   C122    1.527   .     S
C121   H377    1.109   .     S
C122   H380    1.110   .     S
C122   H381    1.111   .     S
C122   H379    1.111   .     S
C123   H383    1.109   .     S
C123   C125    1.552   .     S
C123   H382    1.108   .     S
C123   O627    1.432   .     S
C124   C1479   1.460   .     S
C124   C1526   1.407   .     S
C125   H384    1.110   .     S
C125   C126    1.526   .     S
C125   H1689   1.111   1_545 S
C126   H388    1.111   .     S
C126   H1690   1.111   1_545 S
C126   H1691   1.111   1_545 S
C127   C128    1.548   .     S
C127   H390    1.111   .     S
C127   H391    1.108   .     S
C127   O628    1.427   .     S
C128   H393    1.110   .     S
C128   H392    1.106   .     S
C128   C129    1.526   .     S
C129   H395    1.111   .     S
C129   H394    1.110   .     S
C129   H396    1.110   .     S
C130   H398    1.109   .     S
C130   H397    1.108   .     S
C130   O629    1.432   .     S
C130   C783    1.551   .     S
C131   H401    1.112   .     S
C131   C132    1.526   .     S
C131   C782    1.551   1_455 S
C131   H1051   1.110   1_455 S
C132   H404    1.111   .     S
C132   H402    1.110   .     S
C132   H1055   1.111   1_455 S
C133   O631    1.426   .     S
C133   H405    1.109   .     S
C133   C134    1.546   .     S
C133   H406    1.107   .     S
C134   H408    1.111   .     S
C134   H407    1.107   .     S
C134   C136    1.526   .     S
C135   C1480   1.447   .     S
C135   C1350   1.411   .     S
C136   H410    1.111   .     S
C136   H412    1.110   .     S
C136   H409    1.110   .     S
C137   H413    1.108   .     S
C137   O632    1.432   .     S
C137   H414    1.109   .     S
C137   C138    1.552   .     S
C138   C139    1.526   .     S
C138   H415    1.110   .     S
C138   H1720   1.111   .     S
C139   H419    1.111   .     S
C139   H1721   1.111   .     S
C139   H1722   1.111   .     S
C140   C141    1.548   .     S
C140   O633    1.427   .     S
C140   H421    1.108   .     S
C140   H420    1.111   .     S
C141   H424    1.110   .     S
C141   H423    1.106   .     S
C141   C142    1.526   .     S
C142   H427    1.111   .     S
C142   H425    1.110   .     S
C142   H426    1.110   .     S
C143   O634    1.432   .     S
C143   H429    1.109   .     S
C143   H428    1.108   .     S
C143   C796    1.551   1_455 S
C144   C145    1.526   .     S
C144   H431    1.112   .     S
C144   C795    1.551   .     S
C144   H1082   1.110   .     S
C145   H432    1.110   .     S
C145   H435    1.111   .     S
C145   H1086   1.111   .     S
C146   C173    1.463   .     S
C146   C709    1.408   .     S
C147   H436    1.109   .     S
C147   C148    1.546   .     S
C147   O635    1.426   .     S
C147   H437    1.107   .     S
C148   H438    1.107   .     S
C148   H439    1.111   .     S
C148   C149    1.526   .     S
C149   H441    1.110   .     S
C149   H442    1.111   .     S
C149   H440    1.110   .     S
C150   C174    1.444   .     S
C150   C720    1.410   1_455 S
C151   C230    1.419   .     A
C151   C157    1.409   .     A
C151   O601    1.388   .     S
C152   C231    1.417   .     A
C152   C155    1.409   .     A
C152   O602    1.387   .     S
C153   O603    1.388   .     S
C153   C232    1.419   .     A
C153   C159    1.409   .     A
C154   C158    1.412   .     A
C154   O604    1.388   .     S
C155   O605    1.388   .     S
C156   O621    1.390   .     S
C156   C1405   1.406   1_545 S
C157   O606    1.387   .     S
C158   O607    1.390   .     S
C159   O609    1.388   .     S
C160   O610    1.388   .     S
C160   C165    1.409   1_556 S
C161   O611    1.385   .     S
C161   C164    1.409   1_554 S
C162   O612    1.389   .     S
C162   C168    1.416   1_556 S
C163   O613    1.390   .     S
C163   C166    1.416   1_554 S
C164   O614    1.388   .     S
C164   C161    1.409   1_556 S
C165   O615    1.385   .     S
C165   C160    1.409   1_554 S
C166   O616    1.389   .     S
C166   C163    1.416   1_556 S
C167   O622    1.391   .     S
C167   C1311   1.411   1_545 S
C168   O617    1.390   .     S
C168   C162    1.416   1_554 S
C169   O597    1.274   .     A
C169   O1940   1.276   .     S
C170   O608    1.273   .     A
C170   O1858   1.274   1_545 S
C171   O619    1.276   .     A
C171   O1207   1.276   1_455 S
C172   O1282   1.274   1_455 A
C172   O556    1.274   .     S
C173   O1209   1.278   .     S
C173   O1213   1.278   .     S
C174   O562    1.273   .     A
C174   O558    1.273   .     A
C175   C1428   1.460   1_545 S
C175   O563    1.277   .     A
C175   O559    1.277   .     A
C176   C1439   1.447   1_545 S
C176   O560    1.274   .     S
C176   O565    1.274   .     S
C177   O594    1.277   .     A
C177   O566    1.276   .     A
C178   O623    1.389   .     S
C178   C230    1.413   .     A
C178   C731    1.407   .     S
C179   O595    1.277   .     A
C179   O567    1.276   .     A
C180   O592    1.277   .     A
C180   O568    1.277   .     A
C181   O593    1.277   .     A
C181   O569    1.277   .     A
C182   O599    1.276   .     A
C182   O570    1.276   .     A
C183   O571    1.276   .     A
C183   O600    1.277   .     A
C184   O596    1.276   .     A
C184   O572    1.276   .     A
C185   O598    1.276   .     A
C185   O573    1.276   .     A
C186   O585    1.277   .     A
C186   O574    1.276   .     A
C187   O576    1.277   .     A
C187   O587    1.277   .     A
C188   O577    1.276   .     A
C188   O583    1.277   .     A
C189   O624    1.391   .     S
C189   C742    1.407   .     S
C189   C883    1.411   .     S
C190   O584    1.276   .     A
C190   O578    1.277   .     A
C191   O590    1.276   .     A
C191   O579    1.276   .     A
C192   O591    1.276   .     A
C192   O580    1.276   .     A
C193   O588    1.277   .     A
C193   O581    1.276   .     A
C194   O589    1.276   .     A
C194   O582    1.277   .     A
C195   C212    1.392   .     A
C195   N521    1.436   .     S
C196   C210    1.393   .     A
C196   N532    1.436   .     S
C197   N543    1.436   .     S
C197   C209    1.393   .     A
C198   N547    1.436   .     S
C198   C208    1.392   .     A
C199   C207    1.393   .     A
C199   N548    1.436   .     S
C200   C232    1.411   .     A
C200   O625    1.389   .     S
C201   C206    1.393   .     A
C201   N549    1.436   .     S
C202   N550    1.436   .     S
C202   C205    1.393   .     A
C203   N551    1.436   .     S
C203   C204    1.393   .     A
C204   N552    1.436   .     S
C205   N522    1.436   .     S
C206   N523    1.436   .     S
C207   N524    1.436   .     S
C208   N525    1.436   .     S
C209   N526    1.436   .     S
C210   N527    1.436   .     S
C211   O626    1.391   .     S
C211   C1417   1.407   .     S
C211   C1307   1.413   .     S
C212   N528    1.436   .     S
C213   C229    1.392   .     A
C213   N529    1.436   .     S
C214   N530    1.436   .     S
C214   C228    1.393   .     A
C215   C227    1.392   .     A
C215   N531    1.436   .     S
C216   C226    1.393   .     A
C216   N533    1.436   .     S
C217   N534    1.436   .     S
C217   C225    1.393   .     A
C218   N535    1.436   .     S
C218   C224    1.393   .     A
C219   N536    1.436   .     S
C219   C223    1.392   .     A
C220   C221    1.393   .     A
C220   N537    1.436   .     S
C221   N538    1.436   .     S
C222   O627    1.388   .     S
C222   C1428   1.407   1_545 S
C223   N539    1.436   .     S
C224   N540    1.436   .     S
C225   N541    1.436   .     S
C226   N542    1.436   .     S
C227   N544    1.436   .     S
C228   N545    1.436   .     S
C229   N546    1.436   .     S
C230   C686    1.421   .     S
C231   C841    1.411   1_455 S
C232   C1341   1.422   .     S
H235   C89     1.110   1_554 S
H242   C93     1.110   1_556 S
H249   N521    1.046   .     S
H250   N521    1.045   .     S
H251   N532    1.046   .     S
H252   N532    1.044   .     S
H253   N543    1.046   .     S
H254   N543    1.045   .     S
H255   N547    1.046   .     S
H257   N547    1.044   .     S
H258   N548    1.046   .     S
H259   N548    1.045   .     S
H260   N549    1.046   .     S
H261   N549    1.044   .     S
H262   N550    1.046   .     S
H263   N550    1.045   .     S
H264   N551    1.046   .     S
H265   N551    1.044   .     S
H266   N552    1.046   .     S
H268   N552    1.045   .     S
H269   N522    1.046   .     S
H270   N522    1.045   .     S
H271   N523    1.046   .     S
H272   N523    1.045   .     S
H273   N524    1.046   .     S
H274   N524    1.045   .     S
H275   N525    1.046   .     S
H276   N525    1.045   .     S
H277   N526    1.046   .     S
H279   N526    1.045   .     S
H280   N527    1.046   .     S
H281   N527    1.045   .     S
H282   N528    1.046   .     S
H283   N528    1.045   .     S
H284   N529    1.046   .     S
H285   N529    1.044   .     S
H286   N530    1.046   .     S
H287   N530    1.045   .     S
H288   N531    1.046   .     S
H290   N531    1.045   .     S
H291   N533    1.046   .     S
H292   N533    1.045   .     S
H293   N534    1.046   .     S
H294   N534    1.045   .     S
H295   N535    1.046   .     S
H296   N535    1.045   .     S
H297   N536    1.046   .     S
H298   N536    1.045   .     S
H299   N537    1.046   .     S
H301   N537    1.045   .     S
H302   N538    1.046   .     S
H303   N538    1.045   .     S
H304   N539    1.046   .     S
H305   N539    1.045   .     S
H306   N540    1.046   .     S
H307   N540    1.045   .     S
H308   N541    1.046   .     S
H309   N541    1.045   .     S
H310   N542    1.046   .     S
H312   N542    1.045   .     S
H313   N544    1.046   .     S
H314   N544    1.045   .     S
H315   N545    1.046   .     S
H316   N545    1.045   .     S
H317   N546    1.046   .     S
H318   N546    1.045   .     S
H385   C1429   1.111   .     S
H386   C1430   1.111   .     S
H387   C1430   1.111   .     S
H399   C783    1.110   .     S
H403   C784    1.111   .     S
H416   C1442   1.111   1_545 S
H417   C1443   1.111   1_545 S
H418   C1443   1.111   1_545 S
H430   C796    1.110   1_455 S
H434   C797    1.111   1_455 S
H475   C70     1.110   1_554 S
H485   C74     1.110   1_556 S
H487   C75     1.110   1_556 S
H491   C76     1.110   1_554 S
H498   C80     1.110   1_556 S
H506   C83     1.110   1_554 S
H516   C87     1.110   1_556 S
H518   C88     1.110   1_556 S
O553   Zn640   1.943   .     S
O553   Zn637   1.943   .     S
O553   Zn648   1.944   .     S
O553   Zn1948  1.942   1_545 S
O554   Zn639   1.946   .     S
O554   C1474   1.274   .     S
O555   Zn642   1.946   .     S
O555   C823    1.276   .     S
O556   Zn641   1.946   .     S
O557   Zn651   1.946   .     S
O557   C825    1.278   1_455 S
O558   Zn650   1.946   .     S
O559   Zn645   1.946   .     S
O560   Zn637   1.946   .     S
O561   Zn647   1.946   .     S
O561   C825    1.278   1_455 S
O562   Zn646   1.946   .     S
O563   Zn649   1.946   .     S
O564   Zn643   1.942   .     S
O564   Zn645   1.943   .     S
O564   Zn649   1.944   .     S
O564   Zn1943  1.943   1_545 S
O565   Zn648   1.946   .     S
O566   Zn640   1.929   .     S
O567   Zn639   1.929   .     S
O568   Zn642   1.931   .     S
O569   Zn641   1.931   .     S
O570   Zn644   1.930   .     S
O571   Zn643   1.930   .     S
O572   Zn638   1.931   .     S
O573   Zn652   1.931   .     S
O574   Zn639   1.931   .     S
O575   Zn646   1.943   .     S
O575   Zn638   1.943   .     S
O575   Zn650   1.942   .     S
O575   Zn1294  1.944   1_455 S
O576   Zn640   1.931   .     S
O577   Zn652   1.929   .     S
O578   Zn638   1.929   .     S
O579   Zn643   1.931   .     S
O580   Zn644   1.931   .     S
O581   Zn641   1.929   .     S
O582   Zn642   1.929   .     S
O583   Zn1299  1.929   .     S
O584   Zn646   1.929   .     S
O585   Zn1953  1.931   .     S
O586   Zn647   1.943   .     S
O586   Zn641   1.944   .     S
O586   Zn651   1.942   .     S
O586   Zn1304  1.943   1_455 S
O587   Zn648   1.931   .     S
O588   Zn651   1.930   .     S
O589   Zn1302  1.930   .     S
O590   Zn645   1.931   .     S
O591   Zn1941  1.931   .     S
O592   Zn1298  1.931   .     S
O593   Zn647   1.931   .     S
O594   Zn637   1.929   .     S
O595   Zn1949  1.929   .     S
O596   Zn650   1.931   .     S
O597   Zn644   1.946   .     S
O598   Zn1303  1.931   .     S
O599   Zn1952  1.929   .     S
O600   Zn649   1.929   .     S
O602   C699    1.414   1_455 S
O604   C1357   1.414   1_545 S
O606   C712    1.414   .     S
O608   Zn643   1.946   .     S
O609   C1370   1.414   .     S
O619   Zn638   1.946   .     S
O630   C824    1.274   .     A
O630   Zn652   1.946   .     S
O636   Zn640   1.946   .     S
O636   C1473   1.276   1_545 S
Zn637  O1895   1.931   1_545 S
Zn639  O1868   1.943   .     S
Zn642  O1227   1.944   .     S
Zn644  O1857   1.942   .     S
Zn645  O1899   1.929   1_545 S
Zn646  O1244   1.931   1_455 S
Zn647  O1235   1.929   1_455 S
Zn648  O1903   1.929   1_545 S
Zn649  O1889   1.931   1_545 S
Zn650  O1241   1.930   1_455 S
Zn651  O1250   1.931   1_455 S
Zn652  O1238   1.943   .     S
C653   O1270   1.389   .     S
C653   C731    1.406   .     A
C653   C656    1.412   .     A
C654   C666    1.411   .     A
C654   C787    1.411   .     A
C654   O1280   1.393   .     S
C655   C806    1.418   .     A
C655   C690    1.420   .     A
C655   C2167   1.413   1_545 S
C656   C686    1.421   .     A
C656   C807    1.418   .     A
C657   C809    1.418   .     A
C657   C36     1.420   1_655 S
C657   C112    1.412   1_655 S
C658   C810    1.419   .     A
C658   C689    1.422   .     A
C658   C808    1.413   .     A
C659   C811    1.417   .     A
C659   C1994   1.421   .     S
C659   C2123   1.411   .     S
C660   C687    1.411   .     A
C660   C691    1.417   .     A
C660   C812    1.415   .     A
C661   C698    1.411   .     A
C661   C813    1.418   .     A
C661   C1996   1.417   1_545 S
C662   C814    1.414   .     A
C662   C709    1.411   .     A
C663   C815    1.420   .     A
C663   C720    1.412   .     A
C663   C694    1.419   .     A
C664   C874    1.411   .     A
C664   C816    1.415   .     A
C664   C1995   1.417   1_545 S
C665   C667    1.411   .     A
C665   C798    1.408   .     A
C665   O1281   1.387   .     S
C666   C692    1.417   .     A
C666   C817    1.418   .     A
C667   C818    1.414   .     A
C667   C693    1.415   .     A
C668   C676    1.412   .     A
C668   C820    1.420   .     A
C669   C836    1.450   .     S
C669   C864    1.410   .     A
C669   C866    1.410   .     A
C670   C862    1.410   .     A
C670   C837    1.450   .     S
C670   C865    1.410   .     A
C671   C861    1.409   .     A
C671   C829    1.448   .     S
C671   C868    1.409   .     A
C672   C867    1.410   .     A
C672   C831    1.449   .     S
C672   C860    1.410   .     A
C673   C832    1.450   .     S
C673   C870    1.410   .     A
C673   C859    1.410   .     A
C674   C833    1.451   .     S
C674   C869    1.410   .     A
C674   C858    1.410   .     A
C675   C834    1.448   .     S
C675   C857    1.409   .     A
C675   C872    1.409   .     A
C676   C802    1.410   .     A
C676   O1283   1.394   .     S
C677   C856    1.410   .     A
C677   C871    1.410   .     A
C677   C835    1.449   .     S
C678   C855    1.409   .     A
C678   C875    1.410   .     A
C678   C845    1.448   .     S
C679   C854    1.409   .     A
C679   C873    1.410   .     A
C679   C846    1.449   .     S
C680   C853    1.410   .     A
C680   C838    1.450   .     S
C680   C877    1.410   .     A
C681   C851    1.410   .     A
C681   C876    1.410   .     A
C681   C839    1.451   .     S
C682   C850    1.409   .     A
C682   C840    1.448   .     S
C682   C879    1.410   .     A
C683   C878    1.409   .     A
C683   C842    1.449   .     S
C683   C849    1.409   .     A
C684   C848    1.410   .     A
C684   C881    1.410   .     A
C684   C843    1.450   .     S
C685   C847    1.410   .     A
C685   C880    1.410   .     A
C685   C844    1.451   .     S
C686   C688    1.411   .     A
C687   C776    1.407   .     A
C687   O1284   1.388   .     S
C688   C883    1.420   .     A
C689   C690    1.411   .     A
C689   C2188   1.422   1_545 S
C690   C1963   1.421   1_545 S
C691   C1968   1.417   .     S
C691   C692    1.409   1_556 S
C692   C1965   1.417   .     S
C692   C691    1.409   1_554 S
C693   C10     1.415   1_655 S
C693   C694    1.407   1_556 S
C694   C16     1.419   1_655 S
C694   C693    1.407   1_554 S
C695   C696    1.529   .     S
C695   H885    1.109   .     S
C695   O1253   1.416   .     S
C695   H996    1.110   .     S
C696   H1096   1.111   .     S
C696   H1107   1.111   .     S
C696   C697    1.527   .     S
C697   H1118   1.110   .     S
C697   H1129   1.110   .     S
C697   H1140   1.111   .     S
C698   O1285   1.393   .     S
C698   C2091   1.411   1_545 S
C699   C700    1.531   .     S
C699   H1151   1.110   .     S
C699   H1162   1.111   .     S
C699   O602    1.414   1_655 S
C700   H897    1.110   .     S
C700   C701    1.525   .     S
C700   H886    1.111   .     S
C701   H908    1.109   .     S
C701   H919    1.110   .     S
C701   H930    1.111   .     S
C702   H952    1.110   .     S
C702   O1255   1.416   .     S
C702   H941    1.109   .     S
C702   C703    1.530   .     S
C703   C704    1.527   .     S
C703   H963    1.111   .     S
C703   H974    1.112   .     S
C704   H985    1.110   .     S
C704   H1008   1.111   .     S
C704   H997    1.110   .     S
C705   C706    1.530   .     S
C705   H1030   1.110   .     S
C705   H1019   1.109   .     S
C705   O2560   1.414   .     S
C706   H1052   1.111   .     S
C706   H1041   1.111   .     S
C706   C707    1.525   .     S
C707   H1085   1.111   .     S
C707   H1074   1.110   .     S
C707   H1063   1.109   .     S
C708   H1095   1.109   .     S
C708   O1257   1.416   .     S
C708   H1097   1.111   .     S
C708   C710    1.529   .     S
C709   O1286   1.387   .     S
C710   H1099   1.112   .     S
C710   H1098   1.111   .     S
C710   C711    1.527   .     S
C711   H1102   1.111   .     S
C711   H1100   1.110   .     S
C711   H1101   1.111   .     S
C712   H1104   1.112   .     S
C712   C713    1.533   .     S
C712   H1103   1.109   .     S
C713   H1106   1.111   .     S
C713   C714    1.526   .     S
C713   H1105   1.111   .     S
C714   H1110   1.110   .     S
C714   H1109   1.110   .     S
C714   H1108   1.107   .     S
C715   H1112   1.112   .     S
C715   C716    1.531   .     S
C715   H1111   1.106   .     S
C715   O1259   1.419   .     S
C716   H1114   1.111   .     S
C716   C717    1.527   .     S
C716   H1113   1.111   .     S
C717   H1115   1.110   .     S
C717   H1117   1.111   .     S
C717   H1116   1.110   .     S
C718   C719    1.530   .     S
C718   H1119   1.109   .     S
C718   H1120   1.111   .     S
C718   O2565   1.414   1_545 S
C719   H1121   1.111   .     S
C719   H1122   1.110   .     S
C719   C721    1.525   .     S
C720   O1287   1.394   .     S
C720   C150    1.410   1_655 S
C721   H1123   1.109   .     S
C721   H1125   1.111   .     S
C721   H1124   1.110   .     S
C722   H1126   1.112   .     S
C722   C723    1.530   .     S
C722   O1262   1.417   .     S
C722   H1127   1.110   1_556 S
C723   H1130   1.111   .     S
C723   H1128   1.110   .     S
C723   C724    1.527   .     S
C724   H1131   1.111   .     S
C724   H1132   1.111   .     S
C724   H1133   1.111   .     S
C725   C726    1.532   .     S
C725   H1134   1.110   .     S
C725   O1263   1.419   .     S
C725   H1135   1.117   .     S
C726   C727    1.525   .     S
C726   H1136   1.108   .     S
C726   H1137   1.110   1_554 S
C727   H1138   1.110   .     S
C727   H1141   1.110   .     S
C727   H1139   1.110   1_554 S
C728   C729    1.530   .     S
C728   O1264   1.415   .     S
C728   H1142   1.113   .     S
C728   H1143   1.110   1_556 S
C729   C730    1.527   .     S
C729   H1145   1.111   .     S
C729   H1144   1.110   .     S
C730   H1148   1.111   .     S
C730   H1146   1.111   .     S
C730   H1147   1.111   .     S
C731   C823    1.456   .     S
C732   O1265   1.417   .     S
C732   H1149   1.116   .     S
C732   C733    1.527   .     S
C732   H1150   1.110   1_554 S
C733   H1153   1.110   .     S
C733   C734    1.524   .     S
C733   H1152   1.106   .     S
C734   H1155   1.110   .     S
C734   H1156   1.111   .     S
C734   H1154   1.111   .     S
C735   C736    1.530   .     S
C735   O1266   1.417   .     S
C735   H1157   1.112   .     S
C735   H1158   1.110   1_556 S
C736   H1160   1.111   .     S
C736   C737    1.527   .     S
C736   H1159   1.111   .     S
C737   H1164   1.111   .     S
C737   H1161   1.111   .     S
C737   H1163   1.111   .     S
C738   H1165   1.110   .     S
C738   H1166   1.117   .     S
C738   O1267   1.419   .     S
C738   C739    1.532   .     S
C739   H1167   1.108   .     S
C739   C740    1.525   .     S
C739   H1168   1.110   1_554 S
C740   H1169   1.110   .     S
C740   H1171   1.110   .     S
C740   H1170   1.110   1_554 S
C741   H1172   1.113   .     S
C741   C743    1.530   .     S
C741   O1268   1.415   .     S
C741   H887    1.110   1_556 S
C742   C764    1.407   .     A
C742   C824    1.448   .     S
C743   H889    1.111   .     S
C743   C744    1.527   .     S
C743   H888    1.110   .     S
C744   H891    1.111   .     S
C744   H890    1.111   .     S
C744   H892    1.111   .     S
C745   H893    1.116   .     S
C745   O1269   1.417   .     S
C745   C746    1.527   .     S
C745   H894    1.110   1_554 S
C746   H895    1.106   .     S
C746   C747    1.524   .     S
C746   H896    1.110   .     S
C747   H898    1.111   .     S
C747   H900    1.111   .     S
C747   H899    1.110   .     S
C748   H972    1.108   .     S
C748   O1270   1.430   .     S
C748   H971    1.108   .     S
C748   C749    1.552   .     S
C749   H975    1.110   .     S
C749   H973    1.109   .     S
C749   C750    1.526   .     S
C750   H978    1.111   .     S
C750   H977    1.110   .     S
C750   H976    1.111   .     S
C751   H979    1.109   .     S
C751   O1272   1.428   .     S
C751   H980    1.108   .     S
C751   C752    1.550   .     S
C752   H982    1.109   .     S
C752   H981    1.107   .     S
C752   C754    1.527   .     S
C753   C852    1.405   .     A
C753   C821    1.454   .     S
C753   C2112   1.406   .     S
C754   H983    1.111   .     S
C754   H986    1.111   .     S
C754   H984    1.110   .     S
C755   H988    1.107   .     S
C755   H987    1.107   .     S
C755   C756    1.551   .     S
C755   O1273   1.428   .     S
C756   C757    1.526   .     S
C756   H990    1.110   .     S
C756   H989    1.110   .     S
C757   H992    1.111   .     S
C757   H991    1.110   .     S
C757   H993    1.111   .     S
C758   C759    1.550   .     S
C758   O1274   1.428   .     S
C758   H995    1.108   .     S
C758   H994    1.109   .     S
C759   H998    1.108   .     S
C759   H999    1.109   .     S
C759   C760    1.527   .     S
C760   H1000   1.110   .     S
C760   H1002   1.111   .     S
C760   H1001   1.111   .     S
C761   O1275   1.430   .     S
C761   H1004   1.108   .     S
C761   C762    1.552   .     S
C761   H1003   1.108   .     S
C762   C763    1.526   .     S
C762   H1005   1.109   .     S
C762   H1006   1.110   .     S
C763   H1007   1.111   .     S
C763   H1009   1.110   .     S
C763   H1010   1.111   .     S
C764   O1272   1.391   .     S
C765   C822    1.449   .     S
C765   C819    1.406   .     A
C765   C2167   1.407   1_545 S
C766   C767    1.550   .     S
C766   H1011   1.109   .     S
C766   H1012   1.108   .     S
C766   O1276   1.428   .     S
C767   H1013   1.107   .     S
C767   C768    1.527   .     S
C767   H1014   1.109   .     S
C768   H1016   1.111   .     S
C768   H1015   1.110   .     S
C768   H1017   1.111   .     S
C769   H1018   1.108   .     S
C769   H1020   1.108   .     S
C769   O1277   1.430   .     S
C769   C770    1.553   .     S
C770   H1021   1.109   .     S
C770   C771    1.526   .     S
C770   H1022   1.110   .     S
C771   H1023   1.110   .     S
C771   H1025   1.111   .     S
C771   H1024   1.111   .     S
C772   O1278   1.428   .     S
C772   H1027   1.108   .     S
C772   C773    1.550   .     S
C772   H1026   1.109   .     S
C773   H1028   1.108   .     S
C773   C774    1.527   .     S
C773   H1029   1.109   .     S
C774   H1032   1.110   .     S
C774   H1033   1.111   .     S
C774   H1031   1.111   .     S
C775   H1035   1.109   .     S
C775   C777    1.552   .     S
C775   H1034   1.108   .     S
C775   O1279   1.432   .     S
C776   C2131   1.460   .     S
C776   C2178   1.407   .     S
C777   H1036   1.110   .     S
C777   C778    1.526   .     S
C777   H2341   1.111   1_545 S
C778   H1040   1.111   .     S
C778   H2342   1.111   1_545 S
C778   H2343   1.111   1_545 S
C779   C780    1.548   .     S
C779   H1042   1.111   .     S
C779   H1043   1.108   .     S
C779   O1280   1.427   .     S
C780   H1045   1.110   .     S
C780   H1044   1.106   .     S
C780   C781    1.526   .     S
C781   H1047   1.111   .     S
C781   H1046   1.110   .     S
C781   H1048   1.110   .     S
C782   H1050   1.109   .     S
C782   H1049   1.108   .     S
C782   O1281   1.432   .     S
C782   C131    1.551   1_655 S
C783   H1053   1.112   .     S
C783   C784    1.526   .     S
C784   H1056   1.111   .     S
C784   H1054   1.110   .     S
C785   O1283   1.426   .     S
C785   H1057   1.109   .     S
C785   C786    1.546   .     S
C785   H1058   1.107   .     S
C786   H1060   1.111   .     S
C786   H1059   1.107   .     S
C786   C788    1.526   .     S
C787   C2132   1.447   .     S
C787   C2002   1.411   .     S
C788   H1062   1.111   .     S
C788   H1064   1.110   .     S
C788   H1061   1.110   .     S
C789   H1065   1.108   .     S
C789   O1284   1.432   .     S
C789   H1066   1.109   .     S
C789   C790    1.552   .     S
C790   C791    1.526   .     S
C790   H1067   1.110   .     S
C790   H2372   1.111   .     S
C791   H1071   1.111   .     S
C791   H2373   1.111   .     S
C791   H2374   1.111   .     S
C792   C793    1.548   .     S
C792   O1285   1.427   .     S
C792   H1073   1.108   .     S
C792   H1072   1.111   .     S
C793   H1076   1.110   .     S
C793   H1075   1.106   .     S
C793   C794    1.526   .     S
C794   H1079   1.111   .     S
C794   H1077   1.110   .     S
C794   H1078   1.110   .     S
C795   O1286   1.432   .     S
C795   H1081   1.109   .     S
C795   H1080   1.108   .     S
C796   C797    1.526   .     S
C796   H1083   1.112   .     S
C796   C143    1.551   1_655 S
C796   H430    1.110   1_655 S
C797   H1084   1.110   .     S
C797   H1087   1.111   .     S
C797   H434    1.111   1_655 S
C798   C825    1.463   .     S
C798   C57     1.408   1_655 S
C799   H1088   1.109   .     S
C799   C800    1.546   .     S
C799   O1287   1.426   .     S
C799   H1089   1.107   .     S
C800   H1090   1.107   .     S
C800   H1091   1.111   .     S
C800   C801    1.526   .     S
C801   H1093   1.110   .     S
C801   H1094   1.111   .     S
C801   H1092   1.110   .     S
C802   C826    1.444   .     S
C803   C882    1.419   .     A
C803   C809    1.409   .     A
C803   O1253   1.388   .     S
C804   C883    1.417   .     A
C804   C807    1.409   .     A
C804   O1254   1.387   .     S
C805   O1255   1.388   .     S
C805   C884    1.419   .     A
C805   C811    1.409   .     A
C806   C810    1.412   .     A
C806   O1256   1.388   .     S
C807   O1257   1.388   .     S
C808   O1273   1.390   .     S
C808   C2057   1.406   1_545 S
C809   O1258   1.387   .     S
C810   O1259   1.390   .     S
C811   O1261   1.388   .     S
C812   O1262   1.388   .     S
C812   C817    1.409   1_556 S
C813   O1263   1.385   .     S
C813   C816    1.409   1_554 S
C814   O1264   1.389   .     S
C814   C820    1.416   1_556 S
C815   O1265   1.390   .     S
C815   C818    1.416   1_554 S
C816   O1266   1.388   .     S
C816   C813    1.409   1_556 S
C817   O1267   1.385   .     S
C817   C812    1.409   1_554 S
C818   O1268   1.389   .     S
C818   C815    1.416   1_556 S
C819   O1274   1.391   .     S
C819   C1963   1.411   1_545 S
C820   O1269   1.390   .     S
C820   C814    1.416   1_554 S
C821   O1249   1.274   .     A
C821   O2592   1.276   .     S
C822   O1260   1.273   .     A
C822   O2510   1.274   1_545 S
C823   O1271   1.276   .     A
C824   O1208   1.274   .     S
C825   O557    1.278   1_655 S
C825   O561    1.278   1_655 S
C826   O1214   1.273   .     A
C826   O1210   1.273   .     A
C827   C2080   1.460   1_545 S
C827   O1215   1.277   .     A
C827   O1211   1.277   .     A
C828   C2091   1.447   1_545 S
C828   O1212   1.274   .     S
C828   O1217   1.274   .     S
C829   O1246   1.277   .     A
C829   O1218   1.276   .     A
C830   O1275   1.389   .     S
C830   C882    1.413   .     A
C830   C79     1.407   1_655 S
C831   O1247   1.277   .     A
C831   O1219   1.276   .     A
C832   O1244   1.277   .     A
C832   O1220   1.277   .     A
C833   O1245   1.277   .     A
C833   O1221   1.277   .     A
C834   O1251   1.276   .     A
C834   O1222   1.276   .     A
C835   O1223   1.276   .     A
C835   O1252   1.277   .     A
C836   O1248   1.276   .     A
C836   O1224   1.276   .     A
C837   O1250   1.276   .     A
C837   O1225   1.276   .     A
C838   O1237   1.277   .     A
C838   O1226   1.276   .     A
C839   O1228   1.277   .     A
C839   O1239   1.277   .     A
C840   O1229   1.276   .     A
C840   O1235   1.277   .     A
C841   O1276   1.391   .     S
C841   C90     1.407   1_655 S
C841   C231    1.411   1_655 S
C842   O1236   1.276   .     A
C842   O1230   1.277   .     A
C843   O1242   1.276   .     A
C843   O1231   1.276   .     A
C844   O1243   1.276   .     A
C844   O1232   1.276   .     A
C845   O1240   1.277   .     A
C845   O1233   1.276   .     A
C846   O1241   1.276   .     A
C846   O1234   1.277   .     A
C847   C864    1.392   .     A
C847   N1173   1.436   .     S
C848   C862    1.393   .     A
C848   N1184   1.436   .     S
C849   N1195   1.436   .     S
C849   C861    1.393   .     A
C850   N1199   1.436   .     S
C850   C860    1.392   .     A
C851   C859    1.393   .     A
C851   N1200   1.436   .     S
C852   C884    1.411   .     A
C852   O1277   1.389   .     S
C853   C858    1.393   .     A
C853   N1201   1.436   .     S
C854   N1202   1.436   .     S
C854   C857    1.393   .     A
C855   N1203   1.436   .     S
C855   C856    1.393   .     A
C856   N1204   1.436   .     S
C857   N1174   1.436   .     S
C858   N1175   1.436   .     S
C859   N1176   1.436   .     S
C860   N1177   1.436   .     S
C861   N1178   1.436   .     S
C862   N1179   1.436   .     S
C863   O1278   1.391   .     S
C863   C2069   1.407   .     S
C863   C1959   1.413   .     S
C864   N1180   1.436   .     S
C865   C881    1.392   .     A
C865   N1181   1.436   .     S
C866   N1182   1.436   .     S
C866   C880    1.393   .     A
C867   C879    1.392   .     A
C867   N1183   1.436   .     S
C868   C878    1.393   .     A
C868   N1185   1.436   .     S
C869   N1186   1.436   .     S
C869   C877    1.393   .     A
C870   N1187   1.436   .     S
C870   C876    1.393   .     A
C871   N1188   1.436   .     S
C871   C875    1.392   .     A
C872   C873    1.393   .     A
C872   N1189   1.436   .     S
C873   N1190   1.436   .     S
C874   O1279   1.388   .     S
C874   C2080   1.407   1_545 S
C875   N1191   1.436   .     S
C876   N1192   1.436   .     S
C877   N1193   1.436   .     S
C878   N1194   1.436   .     S
C879   N1196   1.436   .     S
C880   N1197   1.436   .     S
C881   N1198   1.436   .     S
C882   C34     1.421   1_655 S
C884   C1993   1.422   .     S
H887   C741    1.110   1_554 S
H894   C745    1.110   1_556 S
H901   N1173   1.046   .     S
H902   N1173   1.045   .     S
H903   N1184   1.046   .     S
H904   N1184   1.044   .     S
H905   N1195   1.046   .     S
H906   N1195   1.045   .     S
H907   N1199   1.046   .     S
H909   N1199   1.044   .     S
H910   N1200   1.046   .     S
H911   N1200   1.045   .     S
H912   N1201   1.046   .     S
H913   N1201   1.044   .     S
H914   N1202   1.046   .     S
H915   N1202   1.045   .     S
H916   N1203   1.046   .     S
H917   N1203   1.044   .     S
H918   N1204   1.046   .     S
H920   N1204   1.045   .     S
H921   N1174   1.046   .     S
H922   N1174   1.045   .     S
H923   N1175   1.046   .     S
H924   N1175   1.045   .     S
H925   N1176   1.046   .     S
H926   N1176   1.045   .     S
H927   N1177   1.046   .     S
H928   N1177   1.045   .     S
H929   N1178   1.046   .     S
H931   N1178   1.045   .     S
H932   N1179   1.046   .     S
H933   N1179   1.045   .     S
H934   N1180   1.046   .     S
H935   N1180   1.045   .     S
H936   N1181   1.046   .     S
H937   N1181   1.044   .     S
H938   N1182   1.046   .     S
H939   N1182   1.045   .     S
H940   N1183   1.046   .     S
H942   N1183   1.045   .     S
H943   N1185   1.046   .     S
H944   N1185   1.045   .     S
H945   N1186   1.046   .     S
H946   N1186   1.045   .     S
H947   N1187   1.046   .     S
H948   N1187   1.045   .     S
H949   N1188   1.046   .     S
H950   N1188   1.045   .     S
H951   N1189   1.046   .     S
H953   N1189   1.045   .     S
H954   N1190   1.046   .     S
H955   N1190   1.045   .     S
H956   N1191   1.046   .     S
H957   N1191   1.045   .     S
H958   N1192   1.046   .     S
H959   N1192   1.045   .     S
H960   N1193   1.046   .     S
H961   N1193   1.045   .     S
H962   N1194   1.046   .     S
H964   N1194   1.045   .     S
H965   N1196   1.046   .     S
H966   N1196   1.045   .     S
H967   N1197   1.046   .     S
H968   N1197   1.045   .     S
H969   N1198   1.046   .     S
H970   N1198   1.045   .     S
H1037  C2081   1.111   .     S
H1038  C2082   1.111   .     S
H1039  C2082   1.111   .     S
H1051  C131    1.110   1_655 S
H1055  C132    1.111   1_655 S
H1068  C2094   1.111   1_545 S
H1069  C2095   1.111   1_545 S
H1070  C2095   1.111   1_545 S
H1127  C722    1.110   1_554 S
H1137  C726    1.110   1_556 S
H1139  C727    1.110   1_556 S
H1143  C728    1.110   1_554 S
H1150  C732    1.110   1_556 S
H1158  C735    1.110   1_554 S
H1168  C739    1.110   1_556 S
H1170  C740    1.110   1_556 S
O1205  Zn1292  1.943   .     S
O1205  Zn1289  1.943   .     S
O1205  Zn1300  1.944   .     S
O1205  Zn2600  1.942   1_545 S
O1206  Zn1291  1.946   .     S
O1206  C2126   1.274   .     S
O1207  Zn1294  1.946   .     S
O1207  C171    1.276   1_655 S
O1208  Zn1293  1.946   .     S
O1209  Zn1303  1.946   .     S
O1210  Zn1302  1.946   .     S
O1211  Zn1297  1.946   .     S
O1212  Zn1289  1.946   .     S
O1213  Zn1299  1.946   .     S
O1214  Zn1298  1.946   .     S
O1215  Zn1301  1.946   .     S
O1216  Zn1295  1.942   .     S
O1216  Zn1297  1.943   .     S
O1216  Zn1301  1.944   .     S
O1216  Zn2595  1.943   1_545 S
O1217  Zn1300  1.946   .     S
O1218  Zn1292  1.929   .     S
O1219  Zn1291  1.929   .     S
O1220  Zn1294  1.931   .     S
O1221  Zn1293  1.931   .     S
O1222  Zn1296  1.930   .     S
O1223  Zn1295  1.930   .     S
O1224  Zn1290  1.931   .     S
O1225  Zn1304  1.931   .     S
O1226  Zn1291  1.931   .     S
O1227  Zn1298  1.943   .     S
O1227  Zn1290  1.943   .     S
O1227  Zn1302  1.942   .     S
O1228  Zn1292  1.931   .     S
O1229  Zn1304  1.929   .     S
O1230  Zn1290  1.929   .     S
O1231  Zn1295  1.931   .     S
O1232  Zn1296  1.931   .     S
O1233  Zn1293  1.929   .     S
O1234  Zn1294  1.929   .     S
O1235  Zn647   1.929   1_655 S
O1236  Zn1298  1.929   .     S
O1237  Zn2605  1.931   .     S
O1238  Zn1299  1.943   .     S
O1238  Zn1293  1.944   .     S
O1238  Zn1303  1.942   .     S
O1239  Zn1300  1.931   .     S
O1240  Zn1303  1.930   .     S
O1241  Zn650   1.930   1_655 S
O1242  Zn1297  1.931   .     S
O1243  Zn2593  1.931   .     S
O1244  Zn646   1.931   1_655 S
O1245  Zn1299  1.931   .     S
O1246  Zn1289  1.929   .     S
O1247  Zn2601  1.929   .     S
O1248  Zn1302  1.931   .     S
O1249  Zn1296  1.946   .     S
O1250  Zn651   1.931   1_655 S
O1251  Zn2604  1.929   .     S
O1252  Zn1301  1.929   .     S
O1256  C2009   1.414   1_545 S
O1258  C60     1.414   1_655 S
O1260  Zn1295  1.946   .     S
O1261  C2022   1.414   .     S
O1271  Zn1290  1.946   .     S
O1282  C172    1.274   1_655 A
O1282  Zn1304  1.946   .     S
O1288  Zn1292  1.946   .     S
O1288  C2125   1.276   1_545 S
Zn1289 O2547   1.931   1_545 S
Zn1291 O2520   1.943   .     S
Zn1294 O575    1.944   1_655 S
Zn1296 O2509   1.942   .     S
Zn1297 O2551   1.929   1_545 S
Zn1300 O2555   1.929   1_545 S
Zn1301 O2541   1.931   1_545 S
Zn1304 O586    1.943   1_655 S
C1305  O1922   1.389   .     S
C1305  C1383   1.406   .     A
C1305  C1308   1.412   .     A
C1306  C1318   1.411   .     A
C1306  C1439   1.411   .     A
C1306  O1932   1.393   .     S
C1307  C1458   1.418   .     A
C1307  C1342   1.420   .     A
C1308  C1338   1.421   .     A
C1308  C1459   1.418   .     A
C1309  C1461   1.418   .     A
C1309  C1992   1.420   .     S
C1309  C2068   1.412   .     S
C1310  C1462   1.419   .     A
C1310  C1341   1.422   .     A
C1310  C1460   1.413   .     A
C1311  C1463   1.417   .     A
C1311  C38     1.421   1_565 S
C1311  C167    1.411   1_565 S
C1312  C1339   1.411   .     A
C1312  C1343   1.417   .     A
C1312  C1464   1.415   .     A
C1313  C1350   1.411   .     A
C1313  C1465   1.418   .     A
C1314  C1466   1.414   .     A
C1314  C1361   1.411   .     A
C1314  C1997   1.415   1_455 S
C1315  C1467   1.420   .     A
C1315  C1372   1.412   .     A
C1315  C1346   1.419   .     A
C1316  C1526   1.411   .     A
C1316  C1468   1.415   .     A
C1317  C1319   1.411   .     A
C1317  C1450   1.408   .     A
C1317  O1933   1.387   .     S
C1318  C1344   1.417   .     A
C1318  C1469   1.418   .     A
C1319  C1470   1.414   .     A
C1319  C1345   1.415   .     A
C1320  C1328   1.412   .     A
C1320  C1472   1.420   .     A
C1320  C1998   1.419   1_455 S
C1321  C1488   1.450   .     S
C1321  C1516   1.410   .     A
C1321  C1518   1.410   .     A
C1322  C1514   1.410   .     A
C1322  C1489   1.450   .     S
C1322  C1517   1.410   .     A
C1323  C1513   1.409   .     A
C1323  C1481   1.448   .     S
C1323  C1520   1.409   .     A
C1324  C1519   1.410   .     A
C1324  C1483   1.449   .     S
C1324  C1512   1.410   .     A
C1325  C1484   1.450   .     S
C1325  C1522   1.410   .     A
C1325  C1511   1.410   .     A
C1326  C1485   1.451   .     S
C1326  C1521   1.410   .     A
C1326  C1510   1.410   .     A
C1327  C1486   1.448   .     S
C1327  C1509   1.409   .     A
C1327  C1524   1.409   .     A
C1328  C1454   1.410   .     A
C1328  O1935   1.394   .     S
C1329  C1508   1.410   .     A
C1329  C1523   1.410   .     A
C1329  C1487   1.449   .     S
C1330  C1507   1.409   .     A
C1330  C1527   1.410   .     A
C1330  C1497   1.448   .     S
C1331  C1506   1.409   .     A
C1331  C1525   1.410   .     A
C1331  C1498   1.449   .     S
C1332  C1505   1.410   .     A
C1332  C1490   1.450   .     S
C1332  C1529   1.410   .     A
C1333  C1503   1.410   .     A
C1333  C1528   1.410   .     A
C1333  C1491   1.451   .     S
C1334  C1502   1.409   .     A
C1334  C1492   1.448   .     S
C1334  C1531   1.410   .     A
C1335  C1530   1.409   .     A
C1335  C1494   1.449   .     S
C1335  C1501   1.409   .     A
C1336  C1500   1.410   .     A
C1336  C1533   1.410   .     A
C1336  C1495   1.450   .     S
C1337  C1499   1.410   .     A
C1337  C1532   1.410   .     A
C1337  C1496   1.451   .     S
C1338  C1340   1.411   .     A
C1338  C2186   1.421   1_455 S
C1339  C1428   1.407   .     A
C1339  O1936   1.388   .     S
C1340  C1535   1.420   .     A
C1340  C1961   1.420   1_455 S
C1341  C1342   1.411   .     A
C1343  C12     1.417   1_565 S
C1343  C1344   1.409   1_556 S
C1344  C9      1.417   1_565 S
C1344  C1343   1.409   1_554 S
C1345  C1966   1.415   .     S
C1345  C1346   1.407   1_556 S
C1346  C1972   1.419   .     S
C1346  C1345   1.407   1_554 S
C1347  C1348   1.529   .     S
C1347  H1537   1.109   .     S
C1347  O1905   1.416   .     S
C1347  H1648   1.110   .     S
C1348  H1748   1.111   .     S
C1348  H1759   1.111   .     S
C1348  C1349   1.527   .     S
C1349  H1770   1.110   .     S
C1349  H1781   1.110   .     S
C1349  H1792   1.111   .     S
C1350  O1937   1.393   .     S
C1351  C1352   1.531   .     S
C1351  H1803   1.110   .     S
C1351  H1814   1.111   .     S
C1351  O2558   1.414   .     S
C1352  H1549   1.110   .     S
C1352  C1353   1.525   .     S
C1352  H1538   1.111   .     S
C1353  H1560   1.109   .     S
C1353  H1571   1.110   .     S
C1353  H1582   1.111   .     S
C1354  H1604   1.110   .     S
C1354  O1907   1.416   .     S
C1354  H1593   1.109   .     S
C1354  C1355   1.530   .     S
C1355  C1356   1.527   .     S
C1355  H1615   1.111   .     S
C1355  H1626   1.112   .     S
C1356  H1637   1.110   .     S
C1356  H1660   1.111   .     S
C1356  H1649   1.110   .     S
C1357  C1358   1.530   .     S
C1357  H1682   1.110   .     S
C1357  H1671   1.109   .     S
C1357  O604    1.414   1_565 S
C1358  H1704   1.111   .     S
C1358  H1693   1.111   .     S
C1358  C1359   1.525   .     S
C1359  H1737   1.111   .     S
C1359  H1726   1.110   .     S
C1359  H1715   1.109   .     S
C1360  H1747   1.109   .     S
C1360  O1909   1.416   .     S
C1360  H1749   1.111   .     S
C1360  C1362   1.529   .     S
C1361  O1938   1.387   .     S
C1361  C2102   1.408   1_455 S
C1362  H1751   1.112   .     S
C1362  H1750   1.111   .     S
C1362  C1363   1.527   .     S
C1363  H1754   1.111   .     S
C1363  H1752   1.110   .     S
C1363  H1753   1.111   .     S
C1364  H1756   1.112   .     S
C1364  C1365   1.533   .     S
C1364  H1755   1.109   .     S
C1364  O2562   1.414   1_455 S
C1365  H1758   1.111   .     S
C1365  C1366   1.526   .     S
C1365  H1757   1.111   .     S
C1366  H1762   1.110   .     S
C1366  H1761   1.110   .     S
C1366  H1760   1.107   .     S
C1367  H1764   1.112   .     S
C1367  C1368   1.531   .     S
C1367  H1763   1.106   .     S
C1367  O1911   1.419   .     S
C1368  H1766   1.111   .     S
C1368  C1369   1.527   .     S
C1368  H1765   1.111   .     S
C1369  H1767   1.110   .     S
C1369  H1769   1.111   .     S
C1369  H1768   1.110   .     S
C1370  C1371   1.530   .     S
C1370  H1771   1.109   .     S
C1370  H1772   1.111   .     S
C1371  H1773   1.111   .     S
C1371  H1774   1.110   .     S
C1371  C1373   1.525   .     S
C1372  O1939   1.394   .     S
C1372  C2106   1.410   .     S
C1373  H1775   1.109   .     S
C1373  H1777   1.111   .     S
C1373  H1776   1.110   .     S
C1374  H1778   1.112   .     S
C1374  C1375   1.530   .     S
C1374  O1914   1.417   .     S
C1374  H1779   1.110   1_556 S
C1375  H1782   1.111   .     S
C1375  H1780   1.110   .     S
C1375  C1376   1.527   .     S
C1376  H1783   1.111   .     S
C1376  H1784   1.111   .     S
C1376  H1785   1.111   .     S
C1377  C1378   1.532   .     S
C1377  H1786   1.110   .     S
C1377  O1915   1.419   .     S
C1377  H1787   1.117   .     S
C1378  C1379   1.525   .     S
C1378  H1788   1.108   .     S
C1378  H1789   1.110   1_554 S
C1379  H1790   1.110   .     S
C1379  H1793   1.110   .     S
C1379  H1791   1.110   1_554 S
C1380  C1381   1.530   .     S
C1380  O1916   1.415   .     S
C1380  H1794   1.113   .     S
C1380  H1795   1.110   1_556 S
C1381  C1382   1.527   .     S
C1381  H1797   1.111   .     S
C1381  H1796   1.110   .     S
C1382  H1800   1.111   .     S
C1382  H1798   1.111   .     S
C1382  H1799   1.111   .     S
C1383  C1475   1.456   .     S
C1383  C2134   1.407   1_455 S
C1384  O1917   1.417   .     S
C1384  H1801   1.116   .     S
C1384  C1385   1.527   .     S
C1384  H1802   1.110   1_554 S
C1385  H1805   1.110   .     S
C1385  C1386   1.524   .     S
C1385  H1804   1.106   .     S
C1386  H1807   1.110   .     S
C1386  H1808   1.111   .     S
C1386  H1806   1.111   .     S
C1387  C1388   1.530   .     S
C1387  O1918   1.417   .     S
C1387  H1809   1.112   .     S
C1387  H1810   1.110   1_556 S
C1388  H1812   1.111   .     S
C1388  C1389   1.527   .     S
C1388  H1811   1.111   .     S
C1389  H1816   1.111   .     S
C1389  H1813   1.111   .     S
C1389  H1815   1.111   .     S
C1390  H1817   1.110   .     S
C1390  H1818   1.117   .     S
C1390  O1919   1.419   .     S
C1390  C1391   1.532   .     S
C1391  H1819   1.108   .     S
C1391  C1392   1.525   .     S
C1391  H1820   1.110   1_554 S
C1392  H1821   1.110   .     S
C1392  H1823   1.110   .     S
C1392  H1822   1.110   1_554 S
C1393  H1824   1.113   .     S
C1393  C1395   1.530   .     S
C1393  O1920   1.415   .     S
C1393  H1539   1.110   1_556 S
C1394  C1416   1.407   .     A
C1394  C1476   1.448   .     S
C1394  C2145   1.407   1_455 S
C1395  H1541   1.111   .     S
C1395  C1396   1.527   .     S
C1395  H1540   1.110   .     S
C1396  H1543   1.111   .     S
C1396  H1542   1.111   .     S
C1396  H1544   1.111   .     S
C1397  H1545   1.116   .     S
C1397  O1921   1.417   .     S
C1397  C1398   1.527   .     S
C1397  H1546   1.110   1_554 S
C1398  H1547   1.106   .     S
C1398  C1399   1.524   .     S
C1398  H1548   1.110   .     S
C1399  H1550   1.111   .     S
C1399  H1552   1.111   .     S
C1399  H1551   1.110   .     S
C1400  H1624   1.108   .     S
C1400  O1922   1.430   .     S
C1400  H1623   1.108   .     S
C1400  C1401   1.552   .     S
C1401  H1627   1.110   .     S
C1401  H1625   1.109   .     S
C1401  C1402   1.526   .     S
C1402  H1630   1.111   .     S
C1402  H1629   1.110   .     S
C1402  H1628   1.111   .     S
C1403  H1631   1.109   .     S
C1403  O1924   1.428   .     S
C1403  H1632   1.108   .     S
C1403  C1404   1.550   .     S
C1404  H1634   1.109   .     S
C1404  H1633   1.107   .     S
C1404  C1406   1.527   .     S
C1405  C1504   1.405   .     A
C1405  C1473   1.454   .     S
C1405  C156    1.406   1_565 S
C1406  H1635   1.111   .     S
C1406  H1638   1.111   .     S
C1406  H1636   1.110   .     S
C1407  H1640   1.107   .     S
C1407  H1639   1.107   .     S
C1407  C1408   1.551   .     S
C1407  O1925   1.428   .     S
C1408  C1409   1.526   .     S
C1408  H1642   1.110   .     S
C1408  H1641   1.110   .     S
C1409  H1644   1.111   .     S
C1409  H1643   1.110   .     S
C1409  H1645   1.111   .     S
C1410  C1411   1.550   .     S
C1410  O1926   1.428   .     S
C1410  H1647   1.108   .     S
C1410  H1646   1.109   .     S
C1411  H1650   1.108   .     S
C1411  H1651   1.109   .     S
C1411  C1412   1.527   .     S
C1412  H1652   1.110   .     S
C1412  H1654   1.111   .     S
C1412  H1653   1.111   .     S
C1413  O1927   1.430   .     S
C1413  H1656   1.108   .     S
C1413  C1414   1.552   .     S
C1413  H1655   1.108   .     S
C1414  C1415   1.526   .     S
C1414  H1657   1.109   .     S
C1414  H1658   1.110   .     S
C1415  H1659   1.111   .     S
C1415  H1661   1.110   .     S
C1415  H1662   1.111   .     S
C1416  O1924   1.391   .     S
C1416  C1961   1.412   1_455 S
C1417  C1474   1.449   .     S
C1417  C1471   1.406   .     A
C1418  C1419   1.550   .     S
C1418  H1663   1.109   .     S
C1418  H1664   1.108   .     S
C1418  O1928   1.428   .     S
C1419  H1665   1.107   .     S
C1419  C1420   1.527   .     S
C1419  H1666   1.109   .     S
C1420  H1668   1.111   .     S
C1420  H1667   1.110   .     S
C1420  H1669   1.111   .     S
C1421  H1670   1.108   .     S
C1421  H1672   1.108   .     S
C1421  O1929   1.430   .     S
C1421  C1422   1.553   .     S
C1422  H1673   1.109   .     S
C1422  C1423   1.526   .     S
C1422  H1674   1.110   .     S
C1423  H1675   1.110   .     S
C1423  H1677   1.111   .     S
C1423  H1676   1.111   .     S
C1424  O1930   1.428   .     S
C1424  H1679   1.108   .     S
C1424  C1425   1.550   .     S
C1424  H1678   1.109   .     S
C1425  H1680   1.108   .     S
C1425  C1426   1.527   .     S
C1425  H1681   1.109   .     S
C1426  H1684   1.110   .     S
C1426  H1685   1.111   .     S
C1426  H1683   1.111   .     S
C1427  H1687   1.109   .     S
C1427  C1429   1.552   .     S
C1427  H1686   1.108   .     S
C1427  O1931   1.432   .     S
C1428  C175    1.460   1_565 S
C1428  C222    1.407   1_565 S
C1429  H1688   1.110   .     S
C1429  C1430   1.526   .     S
C1430  H1692   1.111   .     S
C1431  C1432   1.548   .     S
C1431  H1694   1.111   .     S
C1431  H1695   1.108   .     S
C1431  O1932   1.427   .     S
C1432  H1697   1.110   .     S
C1432  H1696   1.106   .     S
C1432  C1433   1.526   .     S
C1433  H1699   1.111   .     S
C1433  H1698   1.110   .     S
C1433  H1700   1.110   .     S
C1434  H1702   1.109   .     S
C1434  H1701   1.108   .     S
C1434  O1933   1.432   .     S
C1434  C2087   1.551   .     S
C1435  H1705   1.112   .     S
C1435  C1436   1.526   .     S
C1435  C2086   1.551   1_455 S
C1435  H2355   1.110   1_455 S
C1436  H1708   1.111   .     S
C1436  H1706   1.110   .     S
C1436  H2359   1.111   1_455 S
C1437  O1935   1.426   .     S
C1437  H1709   1.109   .     S
C1437  C1438   1.546   .     S
C1437  H1710   1.107   .     S
C1438  H1712   1.111   .     S
C1438  H1711   1.107   .     S
C1438  C1440   1.526   .     S
C1439  C176    1.447   1_565 S
C1439  C46     1.411   1_565 S
C1440  H1714   1.111   .     S
C1440  H1716   1.110   .     S
C1440  H1713   1.110   .     S
C1441  H1717   1.108   .     S
C1441  O1936   1.432   .     S
C1441  H1718   1.109   .     S
C1441  C1442   1.552   .     S
C1442  C1443   1.526   .     S
C1442  H1719   1.110   .     S
C1442  H416    1.111   1_565 S
C1443  H1723   1.111   .     S
C1443  H417    1.111   1_565 S
C1443  H418    1.111   1_565 S
C1444  C1445   1.548   .     S
C1444  O1937   1.427   .     S
C1444  H1725   1.108   .     S
C1444  H1724   1.111   .     S
C1445  H1728   1.110   .     S
C1445  H1727   1.106   .     S
C1445  C1446   1.526   .     S
C1446  H1731   1.111   .     S
C1446  H1729   1.110   .     S
C1446  H1730   1.110   .     S
C1447  O1938   1.432   .     S
C1447  H1733   1.109   .     S
C1447  H1732   1.108   .     S
C1447  C2100   1.551   1_455 S
C1448  C1449   1.526   .     S
C1448  H1735   1.112   .     S
C1448  C2099   1.551   .     S
C1448  H2386   1.110   .     S
C1449  H1736   1.110   .     S
C1449  H1739   1.111   .     S
C1449  H2390   1.111   .     S
C1450  C1477   1.463   .     S
C1450  C2013   1.408   .     S
C1451  H1740   1.109   .     S
C1451  C1452   1.546   .     S
C1451  O1939   1.426   .     S
C1451  H1741   1.107   .     S
C1452  H1742   1.107   .     S
C1452  H1743   1.111   .     S
C1452  C1453   1.526   .     S
C1453  H1745   1.110   .     S
C1453  H1746   1.111   .     S
C1453  H1744   1.110   .     S
C1454  C1478   1.444   .     S
C1454  C2024   1.410   1_455 S
C1455  C1534   1.419   .     A
C1455  C1461   1.409   .     A
C1455  O1905   1.388   .     S
C1456  C1535   1.417   .     A
C1456  C1459   1.409   .     A
C1456  O1906   1.387   .     S
C1457  O1907   1.388   .     S
C1457  C1536   1.419   .     A
C1457  C1463   1.409   .     A
C1458  C1462   1.412   .     A
C1458  O1908   1.388   .     S
C1459  O1909   1.388   .     S
C1460  O1925   1.390   .     S
C1461  O1910   1.387   .     S
C1462  O1911   1.390   .     S
C1463  O1913   1.388   .     S
C1464  O1914   1.388   .     S
C1464  C1469   1.409   1_556 S
C1465  O1915   1.385   .     S
C1465  C1468   1.409   1_554 S
C1466  O1916   1.389   .     S
C1466  C1472   1.416   1_556 S
C1467  O1917   1.390   .     S
C1467  C1470   1.416   1_554 S
C1468  O1918   1.388   .     S
C1468  C1465   1.409   1_556 S
C1469  O1919   1.385   .     S
C1469  C1464   1.409   1_554 S
C1470  O1920   1.389   .     S
C1470  C1467   1.416   1_556 S
C1471  O1926   1.391   .     S
C1472  O1921   1.390   .     S
C1472  C1466   1.416   1_554 S
C1473  O1901   1.274   .     A
C1473  O636    1.276   1_565 S
C1474  O1912   1.273   .     A
C1475  O1923   1.276   .     A
C1475  O2511   1.276   1_455 S
C1476  O2586   1.274   1_455 A
C1476  O1860   1.274   .     S
C1477  O2513   1.278   .     S
C1477  O2517   1.278   .     S
C1478  O1866   1.273   .     A
C1478  O1862   1.273   .     A
C1479  O1867   1.277   .     A
C1479  O1863   1.277   .     A
C1480  O1864   1.274   .     S
C1480  O1869   1.274   .     S
C1481  O1898   1.277   .     A
C1481  O1870   1.276   .     A
C1482  O1927   1.389   .     S
C1482  C1534   1.413   .     A
C1482  C2035   1.407   .     S
C1483  O1899   1.277   .     A
C1483  O1871   1.276   .     A
C1484  O1896   1.277   .     A
C1484  O1872   1.277   .     A
C1485  O1897   1.277   .     A
C1485  O1873   1.277   .     A
C1486  O1903   1.276   .     A
C1486  O1874   1.276   .     A
C1487  O1875   1.276   .     A
C1487  O1904   1.277   .     A
C1488  O1900   1.276   .     A
C1488  O1876   1.276   .     A
C1489  O1902   1.276   .     A
C1489  O1877   1.276   .     A
C1490  O1889   1.277   .     A
C1490  O1878   1.276   .     A
C1491  O1880   1.277   .     A
C1491  O1891   1.277   .     A
C1492  O1881   1.276   .     A
C1492  O1887   1.277   .     A
C1493  O1928   1.391   .     S
C1493  C2046   1.407   .     S
C1493  C2187   1.411   .     S
C1494  O1888   1.276   .     A
C1494  O1882   1.277   .     A
C1495  O1894   1.276   .     A
C1495  O1883   1.276   .     A
C1496  O1895   1.276   .     A
C1496  O1884   1.276   .     A
C1497  O1892   1.277   .     A
C1497  O1885   1.276   .     A
C1498  O1893   1.276   .     A
C1498  O1886   1.277   .     A
C1499  C1516   1.392   .     A
C1499  N1825   1.436   .     S
C1500  C1514   1.393   .     A
C1500  N1836   1.436   .     S
C1501  N1847   1.436   .     S
C1501  C1513   1.393   .     A
C1502  N1851   1.436   .     S
C1502  C1512   1.392   .     A
C1503  C1511   1.393   .     A
C1503  N1852   1.436   .     S
C1504  C1536   1.411   .     A
C1504  O1929   1.389   .     S
C1505  C1510   1.393   .     A
C1505  N1853   1.436   .     S
C1506  N1854   1.436   .     S
C1506  C1509   1.393   .     A
C1507  N1855   1.436   .     S
C1507  C1508   1.393   .     A
C1508  N1856   1.436   .     S
C1509  N1826   1.436   .     S
C1510  N1827   1.436   .     S
C1511  N1828   1.436   .     S
C1512  N1829   1.436   .     S
C1513  N1830   1.436   .     S
C1514  N1831   1.436   .     S
C1515  O1930   1.391   .     S
C1515  C113    1.407   1_565 S
C1515  C3      1.413   1_565 S
C1516  N1832   1.436   .     S
C1517  C1533   1.392   .     A
C1517  N1833   1.436   .     S
C1518  N1834   1.436   .     S
C1518  C1532   1.393   .     A
C1519  C1531   1.392   .     A
C1519  N1835   1.436   .     S
C1520  C1530   1.393   .     A
C1520  N1837   1.436   .     S
C1521  N1838   1.436   .     S
C1521  C1529   1.393   .     A
C1522  N1839   1.436   .     S
C1522  C1528   1.393   .     A
C1523  N1840   1.436   .     S
C1523  C1527   1.392   .     A
C1524  C1525   1.393   .     A
C1524  N1841   1.436   .     S
C1525  N1842   1.436   .     S
C1526  O1931   1.388   .     S
C1527  N1843   1.436   .     S
C1528  N1844   1.436   .     S
C1529  N1845   1.436   .     S
C1530  N1846   1.436   .     S
C1531  N1848   1.436   .     S
C1532  N1849   1.436   .     S
C1533  N1850   1.436   .     S
C1534  C1990   1.421   .     S
C1535  C2145   1.411   1_455 S
C1536  C37     1.422   1_565 S
H1539  C1393   1.110   1_554 S
H1546  C1397   1.110   1_556 S
H1553  N1825   1.046   .     S
H1554  N1825   1.045   .     S
H1555  N1836   1.046   .     S
H1556  N1836   1.044   .     S
H1557  N1847   1.046   .     S
H1558  N1847   1.045   .     S
H1559  N1851   1.046   .     S
H1561  N1851   1.044   .     S
H1562  N1852   1.046   .     S
H1563  N1852   1.045   .     S
H1564  N1853   1.046   .     S
H1565  N1853   1.044   .     S
H1566  N1854   1.046   .     S
H1567  N1854   1.045   .     S
H1568  N1855   1.046   .     S
H1569  N1855   1.044   .     S
H1570  N1856   1.046   .     S
H1572  N1856   1.045   .     S
H1573  N1826   1.046   .     S
H1574  N1826   1.045   .     S
H1575  N1827   1.046   .     S
H1576  N1827   1.045   .     S
H1577  N1828   1.046   .     S
H1578  N1828   1.045   .     S
H1579  N1829   1.046   .     S
H1580  N1829   1.045   .     S
H1581  N1830   1.046   .     S
H1583  N1830   1.045   .     S
H1584  N1831   1.046   .     S
H1585  N1831   1.045   .     S
H1586  N1832   1.046   .     S
H1587  N1832   1.045   .     S
H1588  N1833   1.046   .     S
H1589  N1833   1.044   .     S
H1590  N1834   1.046   .     S
H1591  N1834   1.045   .     S
H1592  N1835   1.046   .     S
H1594  N1835   1.045   .     S
H1595  N1837   1.046   .     S
H1596  N1837   1.045   .     S
H1597  N1838   1.046   .     S
H1598  N1838   1.045   .     S
H1599  N1839   1.046   .     S
H1600  N1839   1.045   .     S
H1601  N1840   1.046   .     S
H1602  N1840   1.045   .     S
H1603  N1841   1.046   .     S
H1605  N1841   1.045   .     S
H1606  N1842   1.046   .     S
H1607  N1842   1.045   .     S
H1608  N1843   1.046   .     S
H1609  N1843   1.045   .     S
H1610  N1844   1.046   .     S
H1611  N1844   1.045   .     S
H1612  N1845   1.046   .     S
H1613  N1845   1.045   .     S
H1614  N1846   1.046   .     S
H1616  N1846   1.045   .     S
H1617  N1848   1.046   .     S
H1618  N1848   1.045   .     S
H1619  N1849   1.046   .     S
H1620  N1849   1.045   .     S
H1621  N1850   1.046   .     S
H1622  N1850   1.045   .     S
H1689  C125    1.111   1_565 S
H1690  C126    1.111   1_565 S
H1691  C126    1.111   1_565 S
H1703  C2087   1.110   .     S
H1707  C2088   1.111   .     S
H1734  C2100   1.110   1_455 S
H1738  C2101   1.111   1_455 S
H1779  C1374   1.110   1_554 S
H1789  C1378   1.110   1_556 S
H1791  C1379   1.110   1_556 S
H1795  C1380   1.110   1_554 S
H1802  C1384   1.110   1_556 S
H1810  C1387   1.110   1_554 S
H1820  C1391   1.110   1_556 S
H1822  C1392   1.110   1_556 S
O1857  Zn1944  1.943   .     S
O1857  Zn1941  1.943   .     S
O1857  Zn1952  1.944   .     S
O1858  Zn1943  1.946   .     S
O1858  C170    1.274   1_565 S
O1859  Zn1946  1.946   .     S
O1859  C2127   1.276   .     S
O1860  Zn1945  1.946   .     S
O1861  Zn1955  1.946   .     S
O1861  C2129   1.278   1_455 S
O1862  Zn1954  1.946   .     S
O1863  Zn1949  1.946   .     S
O1864  Zn1941  1.946   .     S
O1865  Zn1951  1.946   .     S
O1865  C2129   1.278   1_455 S
O1866  Zn1950  1.946   .     S
O1867  Zn1953  1.946   .     S
O1868  Zn1947  1.942   .     S
O1868  Zn1949  1.943   .     S
O1868  Zn1953  1.944   .     S
O1869  Zn1952  1.946   .     S
O1870  Zn1944  1.929   .     S
O1871  Zn1943  1.929   .     S
O1872  Zn1946  1.931   .     S
O1873  Zn1945  1.931   .     S
O1874  Zn1948  1.930   .     S
O1875  Zn1947  1.930   .     S
O1876  Zn1942  1.931   .     S
O1877  Zn1956  1.931   .     S
O1878  Zn1943  1.931   .     S
O1879  Zn1950  1.943   .     S
O1879  Zn1942  1.943   .     S
O1879  Zn1954  1.942   .     S
O1879  Zn2598  1.944   1_455 S
O1880  Zn1944  1.931   .     S
O1881  Zn1956  1.929   .     S
O1882  Zn1942  1.929   .     S
O1883  Zn1947  1.931   .     S
O1884  Zn1948  1.931   .     S
O1885  Zn1945  1.929   .     S
O1886  Zn1946  1.929   .     S
O1887  Zn2603  1.929   .     S
O1888  Zn1950  1.929   .     S
O1889  Zn649   1.931   1_565 S
O1890  Zn1951  1.943   .     S
O1890  Zn1945  1.944   .     S
O1890  Zn1955  1.942   .     S
O1890  Zn2608  1.943   1_455 S
O1891  Zn1952  1.931   .     S
O1892  Zn1955  1.930   .     S
O1893  Zn2606  1.930   .     S
O1894  Zn1949  1.931   .     S
O1895  Zn637   1.931   1_565 S
O1896  Zn2602  1.931   .     S
O1897  Zn1951  1.931   .     S
O1898  Zn1941  1.929   .     S
O1899  Zn645   1.929   1_565 S
O1900  Zn1954  1.931   .     S
O1901  Zn1948  1.946   .     S
O1902  Zn2607  1.931   .     S
O1903  Zn648   1.929   1_565 S
O1904  Zn1953  1.929   .     S
O1906  C2003   1.414   1_455 S
O1910  C2016   1.414   .     S
O1912  Zn1947  1.946   .     S
O1913  C66     1.414   1_565 S
O1923  Zn1942  1.946   .     S
O1934  C2128   1.274   .     A
O1934  Zn1956  1.946   .     S
O1940  Zn1944  1.946   .     S
Zn1943 O564    1.943   1_565 S
Zn1946 O2531   1.944   .     S
Zn1948 O553    1.942   1_565 S
Zn1950 O2548   1.931   1_455 S
Zn1951 O2539   1.929   1_455 S
Zn1954 O2545   1.930   1_455 S
Zn1955 O2554   1.931   1_455 S
Zn1956 O2542   1.943   .     S
C1957  O2574   1.389   .     S
C1957  C2035   1.406   .     A
C1957  C1960   1.412   .     A
C1958  C1970   1.411   .     A
C1958  C2091   1.411   .     A
C1958  O2584   1.393   .     S
C1959  C2110   1.418   .     A
C1959  C1994   1.420   .     A
C1960  C1990   1.421   .     A
C1960  C2111   1.418   .     A
C1961  C2113   1.418   .     A
C1961  C1340   1.420   1_655 S
C1961  C1416   1.412   1_655 S
C1962  C2114   1.419   .     A
C1962  C1993   1.422   .     A
C1962  C2112   1.413   .     A
C1963  C2115   1.417   .     A
C1963  C690    1.421   1_565 S
C1963  C819    1.411   1_565 S
C1964  C1991   1.411   .     A
C1964  C1995   1.417   .     A
C1964  C2116   1.415   .     A
C1965  C2002   1.411   .     A
C1965  C2117   1.418   .     A
C1966  C2118   1.414   .     A
C1966  C2013   1.411   .     A
C1967  C2119   1.420   .     A
C1967  C2024   1.412   .     A
C1967  C1998   1.419   .     A
C1968  C2178   1.411   .     A
C1968  C2120   1.415   .     A
C1969  C1971   1.411   .     A
C1969  C2102   1.408   .     A
C1969  O2585   1.387   .     S
C1970  C1996   1.417   .     A
C1970  C2121   1.418   .     A
C1971  C2122   1.414   .     A
C1971  C1997   1.415   .     A
C1972  C1980   1.412   .     A
C1972  C2124   1.420   .     A
C1973  C2140   1.450   .     S
C1973  C2168   1.410   .     A
C1973  C2170   1.410   .     A
C1974  C2166   1.410   .     A
C1974  C2141   1.450   .     S
C1974  C2169   1.410   .     A
C1975  C2165   1.409   .     A
C1975  C2133   1.448   .     S
C1975  C2172   1.409   .     A
C1976  C2171   1.410   .     A
C1976  C2135   1.449   .     S
C1976  C2164   1.410   .     A
C1977  C2136   1.450   .     S
C1977  C2174   1.410   .     A
C1977  C2163   1.410   .     A
C1978  C2137   1.451   .     S
C1978  C2173   1.410   .     A
C1978  C2162   1.410   .     A
C1979  C2138   1.448   .     S
C1979  C2161   1.409   .     A
C1979  C2176   1.409   .     A
C1980  C2106   1.410   .     A
C1980  O2587   1.394   .     S
C1981  C2160   1.410   .     A
C1981  C2175   1.410   .     A
C1981  C2139   1.449   .     S
C1982  C2159   1.409   .     A
C1982  C2179   1.410   .     A
C1982  C2149   1.448   .     S
C1983  C2158   1.409   .     A
C1983  C2177   1.410   .     A
C1983  C2150   1.449   .     S
C1984  C2157   1.410   .     A
C1984  C2142   1.450   .     S
C1984  C2181   1.410   .     A
C1985  C2155   1.410   .     A
C1985  C2180   1.410   .     A
C1985  C2143   1.451   .     S
C1986  C2154   1.409   .     A
C1986  C2144   1.448   .     S
C1986  C2183   1.410   .     A
C1987  C2182   1.409   .     A
C1987  C2146   1.449   .     S
C1987  C2153   1.409   .     A
C1988  C2152   1.410   .     A
C1988  C2185   1.410   .     A
C1988  C2147   1.450   .     S
C1989  C2151   1.410   .     A
C1989  C2184   1.410   .     A
C1989  C2148   1.451   .     S
C1990  C1992   1.411   .     A
C1991  C2080   1.407   .     A
C1991  O2588   1.388   .     S
C1992  C2187   1.420   .     A
C1993  C1994   1.411   .     A
C1995  C664    1.417   1_565 S
C1995  C1996   1.409   1_556 S
C1996  C661    1.417   1_565 S
C1996  C1995   1.409   1_554 S
C1997  C1314   1.415   1_655 S
C1997  C1998   1.407   1_556 S
C1998  C1320   1.419   1_655 S
C1998  C1997   1.407   1_554 S
C1999  C2000   1.529   .     S
C1999  H2189   1.109   .     S
C1999  O2557   1.416   .     S
C1999  H2300   1.110   .     S
C2000  H2400   1.111   .     S
C2000  H2411   1.111   .     S
C2000  C2001   1.527   .     S
C2001  H2422   1.110   .     S
C2001  H2433   1.110   .     S
C2001  H2444   1.111   .     S
C2002  O2589   1.393   .     S
C2003  C2004   1.531   .     S
C2003  H2455   1.110   .     S
C2003  H2466   1.111   .     S
C2003  O1906   1.414   1_655 S
C2004  H2201   1.110   .     S
C2004  C2005   1.525   .     S
C2004  H2190   1.111   .     S
C2005  H2212   1.109   .     S
C2005  H2223   1.110   .     S
C2005  H2234   1.111   .     S
C2006  H2256   1.110   .     S
C2006  O2559   1.416   .     S
C2006  H2245   1.109   .     S
C2006  C2007   1.530   .     S
C2007  C2008   1.527   .     S
C2007  H2267   1.111   .     S
C2007  H2278   1.112   .     S
C2008  H2289   1.110   .     S
C2008  H2312   1.111   .     S
C2008  H2301   1.110   .     S
C2009  C2010   1.530   .     S
C2009  H2334   1.110   .     S
C2009  H2323   1.109   .     S
C2009  O1256   1.414   1_565 S
C2010  H2356   1.111   .     S
C2010  H2345   1.111   .     S
C2010  C2011   1.525   .     S
C2011  H2389   1.111   .     S
C2011  H2378   1.110   .     S
C2011  H2367   1.109   .     S
C2012  H2399   1.109   .     S
C2012  O2561   1.416   .     S
C2012  H2401   1.111   .     S
C2012  C2014   1.529   .     S
C2013  O2590   1.387   .     S
C2014  H2403   1.112   .     S
C2014  H2402   1.111   .     S
C2014  C2015   1.527   .     S
C2015  H2406   1.111   .     S
C2015  H2404   1.110   .     S
C2015  H2405   1.111   .     S
C2016  H2408   1.112   .     S
C2016  C2017   1.533   .     S
C2016  H2407   1.109   .     S
C2017  H2410   1.111   .     S
C2017  C2018   1.526   .     S
C2017  H2409   1.111   .     S
C2018  H2414   1.110   .     S
C2018  H2413   1.110   .     S
C2018  H2412   1.107   .     S
C2019  H2416   1.112   .     S
C2019  C2020   1.531   .     S
C2019  H2415   1.106   .     S
C2019  O2563   1.419   .     S
C2020  H2418   1.111   .     S
C2020  C2021   1.527   .     S
C2020  H2417   1.111   .     S
C2021  H2419   1.110   .     S
C2021  H2421   1.111   .     S
C2021  H2420   1.110   .     S
C2022  C2023   1.530   .     S
C2022  H2423   1.109   .     S
C2022  H2424   1.111   .     S
C2023  H2425   1.111   .     S
C2023  H2426   1.110   .     S
C2023  C2025   1.525   .     S
C2024  O2591   1.394   .     S
C2024  C1454   1.410   1_655 S
C2025  H2427   1.109   .     S
C2025  H2429   1.111   .     S
C2025  H2428   1.110   .     S
C2026  H2430   1.112   .     S
C2026  C2027   1.530   .     S
C2026  O2566   1.417   .     S
C2026  H2431   1.110   1_556 S
C2027  H2434   1.111   .     S
C2027  H2432   1.110   .     S
C2027  C2028   1.527   .     S
C2028  H2435   1.111   .     S
C2028  H2436   1.111   .     S
C2028  H2437   1.111   .     S
C2029  C2030   1.532   .     S
C2029  H2438   1.110   .     S
C2029  O2567   1.419   .     S
C2029  H2439   1.117   .     S
C2030  C2031   1.525   .     S
C2030  H2440   1.108   .     S
C2030  H2441   1.110   1_554 S
C2031  H2442   1.110   .     S
C2031  H2445   1.110   .     S
C2031  H2443   1.110   1_554 S
C2032  C2033   1.530   .     S
C2032  O2568   1.415   .     S
C2032  H2446   1.113   .     S
C2032  H2447   1.110   1_556 S
C2033  C2034   1.527   .     S
C2033  H2449   1.111   .     S
C2033  H2448   1.110   .     S
C2034  H2452   1.111   .     S
C2034  H2450   1.111   .     S
C2034  H2451   1.111   .     S
C2035  C2127   1.456   .     S
C2036  O2569   1.417   .     S
C2036  H2453   1.116   .     S
C2036  C2037   1.527   .     S
C2036  H2454   1.110   1_554 S
C2037  H2457   1.110   .     S
C2037  C2038   1.524   .     S
C2037  H2456   1.106   .     S
C2038  H2459   1.110   .     S
C2038  H2460   1.111   .     S
C2038  H2458   1.111   .     S
C2039  C2040   1.530   .     S
C2039  O2570   1.417   .     S
C2039  H2461   1.112   .     S
C2039  H2462   1.110   1_556 S
C2040  H2464   1.111   .     S
C2040  C2041   1.527   .     S
C2040  H2463   1.111   .     S
C2041  H2468   1.111   .     S
C2041  H2465   1.111   .     S
C2041  H2467   1.111   .     S
C2042  H2469   1.110   .     S
C2042  H2470   1.117   .     S
C2042  O2571   1.419   .     S
C2042  C2043   1.532   .     S
C2043  H2471   1.108   .     S
C2043  C2044   1.525   .     S
C2043  H2472   1.110   1_554 S
C2044  H2473   1.110   .     S
C2044  H2475   1.110   .     S
C2044  H2474   1.110   1_554 S
C2045  H2476   1.113   .     S
C2045  C2047   1.530   .     S
C2045  O2572   1.415   .     S
C2045  H2191   1.110   1_556 S
C2046  C2068   1.407   .     A
C2046  C2128   1.448   .     S
C2047  H2193   1.111   .     S
C2047  C2048   1.527   .     S
C2047  H2192   1.110   .     S
C2048  H2195   1.111   .     S
C2048  H2194   1.111   .     S
C2048  H2196   1.111   .     S
C2049  H2197   1.116   .     S
C2049  O2573   1.417   .     S
C2049  C2050   1.527   .     S
C2049  H2198   1.110   1_554 S
C2050  H2199   1.106   .     S
C2050  C2051   1.524   .     S
C2050  H2200   1.110   .     S
C2051  H2202   1.111   .     S
C2051  H2204   1.111   .     S
C2051  H2203   1.110   .     S
C2052  H2276   1.108   .     S
C2052  O2574   1.430   .     S
C2052  H2275   1.108   .     S
C2052  C2053   1.552   .     S
C2053  H2279   1.110   .     S
C2053  H2277   1.109   .     S
C2053  C2054   1.526   .     S
C2054  H2282   1.111   .     S
C2054  H2281   1.110   .     S
C2054  H2280   1.111   .     S
C2055  H2283   1.109   .     S
C2055  O2576   1.428   .     S
C2055  H2284   1.108   .     S
C2055  C2056   1.550   .     S
C2056  H2286   1.109   .     S
C2056  H2285   1.107   .     S
C2056  C2058   1.527   .     S
C2057  C2156   1.405   .     A
C2057  C2125   1.454   .     S
C2057  C808    1.406   1_565 S
C2058  H2287   1.111   .     S
C2058  H2290   1.111   .     S
C2058  H2288   1.110   .     S
C2059  H2292   1.107   .     S
C2059  H2291   1.107   .     S
C2059  C2060   1.551   .     S
C2059  O2577   1.428   .     S
C2060  C2061   1.526   .     S
C2060  H2294   1.110   .     S
C2060  H2293   1.110   .     S
C2061  H2296   1.111   .     S
C2061  H2295   1.110   .     S
C2061  H2297   1.111   .     S
C2062  C2063   1.550   .     S
C2062  O2578   1.428   .     S
C2062  H2299   1.108   .     S
C2062  H2298   1.109   .     S
C2063  H2302   1.108   .     S
C2063  H2303   1.109   .     S
C2063  C2064   1.527   .     S
C2064  H2304   1.110   .     S
C2064  H2306   1.111   .     S
C2064  H2305   1.111   .     S
C2065  O2579   1.430   .     S
C2065  H2308   1.108   .     S
C2065  C2066   1.552   .     S
C2065  H2307   1.108   .     S
C2066  C2067   1.526   .     S
C2066  H2309   1.109   .     S
C2066  H2310   1.110   .     S
C2067  H2311   1.111   .     S
C2067  H2313   1.110   .     S
C2067  H2314   1.111   .     S
C2068  O2576   1.391   .     S
C2069  C2126   1.449   .     S
C2069  C2123   1.406   .     A
C2070  C2071   1.550   .     S
C2070  H2315   1.109   .     S
C2070  H2316   1.108   .     S
C2070  O2580   1.428   .     S
C2071  H2317   1.107   .     S
C2071  C2072   1.527   .     S
C2071  H2318   1.109   .     S
C2072  H2320   1.111   .     S
C2072  H2319   1.110   .     S
C2072  H2321   1.111   .     S
C2073  H2322   1.108   .     S
C2073  H2324   1.108   .     S
C2073  O2581   1.430   .     S
C2073  C2074   1.553   .     S
C2074  H2325   1.109   .     S
C2074  C2075   1.526   .     S
C2074  H2326   1.110   .     S
C2075  H2327   1.110   .     S
C2075  H2329   1.111   .     S
C2075  H2328   1.111   .     S
C2076  O2582   1.428   .     S
C2076  H2331   1.108   .     S
C2076  C2077   1.550   .     S
C2076  H2330   1.109   .     S
C2077  H2332   1.108   .     S
C2077  C2078   1.527   .     S
C2077  H2333   1.109   .     S
C2078  H2336   1.110   .     S
C2078  H2337   1.111   .     S
C2078  H2335   1.111   .     S
C2079  H2339   1.109   .     S
C2079  C2081   1.552   .     S
C2079  H2338   1.108   .     S
C2079  O2583   1.432   .     S
C2080  C827    1.460   1_565 S
C2080  C874    1.407   1_565 S
C2081  H2340   1.110   .     S
C2081  C2082   1.526   .     S
C2082  H2344   1.111   .     S
C2083  C2084   1.548   .     S
C2083  H2346   1.111   .     S
C2083  H2347   1.108   .     S
C2083  O2584   1.427   .     S
C2084  H2349   1.110   .     S
C2084  H2348   1.106   .     S
C2084  C2085   1.526   .     S
C2085  H2351   1.111   .     S
C2085  H2350   1.110   .     S
C2085  H2352   1.110   .     S
C2086  H2354   1.109   .     S
C2086  H2353   1.108   .     S
C2086  O2585   1.432   .     S
C2086  C1435   1.551   1_655 S
C2087  H2357   1.112   .     S
C2087  C2088   1.526   .     S
C2088  H2360   1.111   .     S
C2088  H2358   1.110   .     S
C2089  O2587   1.426   .     S
C2089  H2361   1.109   .     S
C2089  C2090   1.546   .     S
C2089  H2362   1.107   .     S
C2090  H2364   1.111   .     S
C2090  H2363   1.107   .     S
C2090  C2092   1.526   .     S
C2091  C828    1.447   1_565 S
C2091  C698    1.411   1_565 S
C2092  H2366   1.111   .     S
C2092  H2368   1.110   .     S
C2092  H2365   1.110   .     S
C2093  H2369   1.108   .     S
C2093  O2588   1.432   .     S
C2093  H2370   1.109   .     S
C2093  C2094   1.552   .     S
C2094  C2095   1.526   .     S
C2094  H2371   1.110   .     S
C2094  H1068   1.111   1_565 S
C2095  H2375   1.111   .     S
C2095  H1069   1.111   1_565 S
C2095  H1070   1.111   1_565 S
C2096  C2097   1.548   .     S
C2096  O2589   1.427   .     S
C2096  H2377   1.108   .     S
C2096  H2376   1.111   .     S
C2097  H2380   1.110   .     S
C2097  H2379   1.106   .     S
C2097  C2098   1.526   .     S
C2098  H2383   1.111   .     S
C2098  H2381   1.110   .     S
C2098  H2382   1.110   .     S
C2099  O2590   1.432   .     S
C2099  H2385   1.109   .     S
C2099  H2384   1.108   .     S
C2100  C2101   1.526   .     S
C2100  H2387   1.112   .     S
C2100  C1447   1.551   1_655 S
C2100  H1734   1.110   1_655 S
C2101  H2388   1.110   .     S
C2101  H2391   1.111   .     S
C2101  H1738   1.111   1_655 S
C2102  C2129   1.463   .     S
C2102  C1361   1.408   1_655 S
C2103  H2392   1.109   .     S
C2103  C2104   1.546   .     S
C2103  O2591   1.426   .     S
C2103  H2393   1.107   .     S
C2104  H2394   1.107   .     S
C2104  H2395   1.111   .     S
C2104  C2105   1.526   .     S
C2105  H2397   1.110   .     S
C2105  H2398   1.111   .     S
C2105  H2396   1.110   .     S
C2106  C2130   1.444   .     S
C2107  C2186   1.419   .     A
C2107  C2113   1.409   .     A
C2107  O2557   1.388   .     S
C2108  C2187   1.417   .     A
C2108  C2111   1.409   .     A
C2108  O2558   1.387   .     S
C2109  O2559   1.388   .     S
C2109  C2188   1.419   .     A
C2109  C2115   1.409   .     A
C2110  C2114   1.412   .     A
C2110  O2560   1.388   .     S
C2111  O2561   1.388   .     S
C2112  O2577   1.390   .     S
C2113  O2562   1.387   .     S
C2114  O2563   1.390   .     S
C2115  O2565   1.388   .     S
C2116  O2566   1.388   .     S
C2116  C2121   1.409   1_556 S
C2117  O2567   1.385   .     S
C2117  C2120   1.409   1_554 S
C2118  O2568   1.389   .     S
C2118  C2124   1.416   1_556 S
C2119  O2569   1.390   .     S
C2119  C2122   1.416   1_554 S
C2120  O2570   1.388   .     S
C2120  C2117   1.409   1_556 S
C2121  O2571   1.385   .     S
C2121  C2116   1.409   1_554 S
C2122  O2572   1.389   .     S
C2122  C2119   1.416   1_556 S
C2123  O2578   1.391   .     S
C2124  O2573   1.390   .     S
C2124  C2118   1.416   1_554 S
C2125  O2553   1.274   .     A
C2125  O1288   1.276   1_565 S
C2126  O2564   1.273   .     A
C2127  O2575   1.276   .     A
C2128  O2512   1.274   .     S
C2129  O1861   1.278   1_655 S
C2129  O1865   1.278   1_655 S
C2130  O2518   1.273   .     A
C2130  O2514   1.273   .     A
C2131  O2519   1.277   .     A
C2131  O2515   1.277   .     A
C2132  O2516   1.274   .     S
C2132  O2521   1.274   .     S
C2133  O2550   1.277   .     A
C2133  O2522   1.276   .     A
C2134  O2579   1.389   .     S
C2134  C2186   1.413   .     A
C2134  C1383   1.407   1_655 S
C2135  O2551   1.277   .     A
C2135  O2523   1.276   .     A
C2136  O2548   1.277   .     A
C2136  O2524   1.277   .     A
C2137  O2549   1.277   .     A
C2137  O2525   1.277   .     A
C2138  O2555   1.276   .     A
C2138  O2526   1.276   .     A
C2139  O2527   1.276   .     A
C2139  O2556   1.277   .     A
C2140  O2552   1.276   .     A
C2140  O2528   1.276   .     A
C2141  O2554   1.276   .     A
C2141  O2529   1.276   .     A
C2142  O2541   1.277   .     A
C2142  O2530   1.276   .     A
C2143  O2532   1.277   .     A
C2143  O2543   1.277   .     A
C2144  O2533   1.276   .     A
C2144  O2539   1.277   .     A
C2145  O2580   1.391   .     S
C2145  C1394   1.407   1_655 S
C2145  C1535   1.411   1_655 S
C2146  O2540   1.276   .     A
C2146  O2534   1.277   .     A
C2147  O2546   1.276   .     A
C2147  O2535   1.276   .     A
C2148  O2547   1.276   .     A
C2148  O2536   1.276   .     A
C2149  O2544   1.277   .     A
C2149  O2537   1.276   .     A
C2150  O2545   1.276   .     A
C2150  O2538   1.277   .     A
C2151  C2168   1.392   .     A
C2151  N2477   1.436   .     S
C2152  C2166   1.393   .     A
C2152  N2488   1.436   .     S
C2153  N2499   1.436   .     S
C2153  C2165   1.393   .     A
C2154  N2503   1.436   .     S
C2154  C2164   1.392   .     A
C2155  C2163   1.393   .     A
C2155  N2504   1.436   .     S
C2156  C2188   1.411   .     A
C2156  O2581   1.389   .     S
C2157  C2162   1.393   .     A
C2157  N2505   1.436   .     S
C2158  N2506   1.436   .     S
C2158  C2161   1.393   .     A
C2159  N2507   1.436   .     S
C2159  C2160   1.393   .     A
C2160  N2508   1.436   .     S
C2161  N2478   1.436   .     S
C2162  N2479   1.436   .     S
C2163  N2480   1.436   .     S
C2164  N2481   1.436   .     S
C2165  N2482   1.436   .     S
C2166  N2483   1.436   .     S
C2167  O2582   1.391   .     S
C2167  C765    1.407   1_565 S
C2167  C655    1.413   1_565 S
C2168  N2484   1.436   .     S
C2169  C2185   1.392   .     A
C2169  N2485   1.436   .     S
C2170  N2486   1.436   .     S
C2170  C2184   1.393   .     A
C2171  C2183   1.392   .     A
C2171  N2487   1.436   .     S
C2172  C2182   1.393   .     A
C2172  N2489   1.436   .     S
C2173  N2490   1.436   .     S
C2173  C2181   1.393   .     A
C2174  N2491   1.436   .     S
C2174  C2180   1.393   .     A
C2175  N2492   1.436   .     S
C2175  C2179   1.392   .     A
C2176  C2177   1.393   .     A
C2176  N2493   1.436   .     S
C2177  N2494   1.436   .     S
C2178  O2583   1.388   .     S
C2179  N2495   1.436   .     S
C2180  N2496   1.436   .     S
C2181  N2497   1.436   .     S
C2182  N2498   1.436   .     S
C2183  N2500   1.436   .     S
C2184  N2501   1.436   .     S
C2185  N2502   1.436   .     S
C2186  C1338   1.421   1_655 S
C2188  C689    1.422   1_565 S
H2191  C2045   1.110   1_554 S
H2198  C2049   1.110   1_556 S
H2205  N2477   1.046   .     S
H2206  N2477   1.045   .     S
H2207  N2488   1.046   .     S
H2208  N2488   1.044   .     S
H2209  N2499   1.046   .     S
H2210  N2499   1.045   .     S
H2211  N2503   1.046   .     S
H2213  N2503   1.044   .     S
H2214  N2504   1.046   .     S
H2215  N2504   1.045   .     S
H2216  N2505   1.046   .     S
H2217  N2505   1.044   .     S
H2218  N2506   1.046   .     S
H2219  N2506   1.045   .     S
H2220  N2507   1.046   .     S
H2221  N2507   1.044   .     S
H2222  N2508   1.046   .     S
H2224  N2508   1.045   .     S
H2225  N2478   1.046   .     S
H2226  N2478   1.045   .     S
H2227  N2479   1.046   .     S
H2228  N2479   1.045   .     S
H2229  N2480   1.046   .     S
H2230  N2480   1.045   .     S
H2231  N2481   1.046   .     S
H2232  N2481   1.045   .     S
H2233  N2482   1.046   .     S
H2235  N2482   1.045   .     S
H2236  N2483   1.046   .     S
H2237  N2483   1.045   .     S
H2238  N2484   1.046   .     S
H2239  N2484   1.045   .     S
H2240  N2485   1.046   .     S
H2241  N2485   1.044   .     S
H2242  N2486   1.046   .     S
H2243  N2486   1.045   .     S
H2244  N2487   1.046   .     S
H2246  N2487   1.045   .     S
H2247  N2489   1.046   .     S
H2248  N2489   1.045   .     S
H2249  N2490   1.046   .     S
H2250  N2490   1.045   .     S
H2251  N2491   1.046   .     S
H2252  N2491   1.045   .     S
H2253  N2492   1.046   .     S
H2254  N2492   1.045   .     S
H2255  N2493   1.046   .     S
H2257  N2493   1.045   .     S
H2258  N2494   1.046   .     S
H2259  N2494   1.045   .     S
H2260  N2495   1.046   .     S
H2261  N2495   1.045   .     S
H2262  N2496   1.046   .     S
H2263  N2496   1.045   .     S
H2264  N2497   1.046   .     S
H2265  N2497   1.045   .     S
H2266  N2498   1.046   .     S
H2268  N2498   1.045   .     S
H2269  N2500   1.046   .     S
H2270  N2500   1.045   .     S
H2271  N2501   1.046   .     S
H2272  N2501   1.045   .     S
H2273  N2502   1.046   .     S
H2274  N2502   1.045   .     S
H2341  C777    1.111   1_565 S
H2342  C778    1.111   1_565 S
H2343  C778    1.111   1_565 S
H2355  C1435   1.110   1_655 S
H2359  C1436   1.111   1_655 S
H2431  C2026   1.110   1_554 S
H2441  C2030   1.110   1_556 S
H2443  C2031   1.110   1_556 S
H2447  C2032   1.110   1_554 S
H2454  C2036   1.110   1_556 S
H2462  C2039   1.110   1_554 S
H2472  C2043   1.110   1_556 S
H2474  C2044   1.110   1_556 S
O2509  Zn2596  1.943   .     S
O2509  Zn2593  1.943   .     S
O2509  Zn2604  1.944   .     S
O2510  Zn2595  1.946   .     S
O2510  C822    1.274   1_565 S
O2511  Zn2598  1.946   .     S
O2511  C1475   1.276   1_655 S
O2512  Zn2597  1.946   .     S
O2513  Zn2607  1.946   .     S
O2514  Zn2606  1.946   .     S
O2515  Zn2601  1.946   .     S
O2516  Zn2593  1.946   .     S
O2517  Zn2603  1.946   .     S
O2518  Zn2602  1.946   .     S
O2519  Zn2605  1.946   .     S
O2520  Zn2599  1.942   .     S
O2520  Zn2601  1.943   .     S
O2520  Zn2605  1.944   .     S
O2521  Zn2604  1.946   .     S
O2522  Zn2596  1.929   .     S
O2523  Zn2595  1.929   .     S
O2524  Zn2598  1.931   .     S
O2525  Zn2597  1.931   .     S
O2526  Zn2600  1.930   .     S
O2527  Zn2599  1.930   .     S
O2528  Zn2594  1.931   .     S
O2529  Zn2608  1.931   .     S
O2530  Zn2595  1.931   .     S
O2531  Zn2602  1.943   .     S
O2531  Zn2594  1.943   .     S
O2531  Zn2606  1.942   .     S
O2532  Zn2596  1.931   .     S
O2533  Zn2608  1.929   .     S
O2534  Zn2594  1.929   .     S
O2535  Zn2599  1.931   .     S
O2536  Zn2600  1.931   .     S
O2537  Zn2597  1.929   .     S
O2538  Zn2598  1.929   .     S
O2539  Zn1951  1.929   1_655 S
O2540  Zn2602  1.929   .     S
O2541  Zn1301  1.931   1_565 S
O2542  Zn2603  1.943   .     S
O2542  Zn2597  1.944   .     S
O2542  Zn2607  1.942   .     S
O2543  Zn2604  1.931   .     S
O2544  Zn2607  1.930   .     S
O2545  Zn1954  1.930   1_655 S
O2546  Zn2601  1.931   .     S
O2547  Zn1289  1.931   1_565 S
O2548  Zn1950  1.931   1_655 S
O2549  Zn2603  1.931   .     S
O2550  Zn2593  1.929   .     S
O2551  Zn1297  1.929   1_565 S
O2552  Zn2606  1.931   .     S
O2553  Zn2600  1.946   .     S
O2554  Zn1955  1.931   1_655 S
O2555  Zn1300  1.929   1_565 S
O2556  Zn2605  1.929   .     S
O2562  C1364   1.414   1_655 S
O2564  Zn2599  1.946   .     S
O2565  C718    1.414   1_565 S
O2575  Zn2594  1.946   .     S
O2586  C1476   1.274   1_655 A
O2586  Zn2608  1.946   .     S
O2592  Zn2596  1.946   .     S
Zn2595 O1216   1.943   1_565 S
Zn2598 O1879   1.944   1_655 S
Zn2600 O1205   1.942   1_565 S
Zn2608 O1890   1.943   1_655 S
