data_str_m2_o10_o18_pcu_sym.144
_audit_creation_date              2020-01-03
_audit_creation_method            'Materials Studio'
_symmetry_space_group_name_H-M    'P1'
_symmetry_Int_Tables_number       1
_symmetry_cell_setting            triclinic
loop_
_symmetry_equiv_pos_as_xyz
  x,y,z
_cell_length_a                    22.4413
_cell_length_b                    26.0821
_cell_length_c                    31.4374
_cell_angle_alpha                 95.2285
_cell_angle_beta                  75.2660
_cell_angle_gamma                 103.5550
loop_
_atom_site_label
_atom_site_type_symbol
_atom_site_fract_x
_atom_site_fract_y
_atom_site_fract_z
_atom_site_U_iso_or_equiv
_atom_site_adp_type
_atom_site_occupancy
C1     C     0.18177   0.26674   0.25139   0.00000  Uiso   1.00
C2     C     0.15157   0.06659   0.24861   0.00000  Uiso   1.00
C3     C     0.09046   0.13989   0.04214   0.00000  Uiso   1.00
C4     C     0.24174   0.17852   0.45734   0.00000  Uiso   1.00
C5     C     0.04967   0.11506   0.01528   0.00000  Uiso   1.00
C6     C     0.28330   0.20346   0.48292   0.00000  Uiso   1.00
C7     C     0.19014   0.32284   0.25201   0.00000  Uiso   1.00
C8     C     0.14321   0.01049   0.24797   0.00000  Uiso   1.00
C9     C     0.12769   0.16113   0.33313   0.00000  Uiso   1.00
C10    C     0.20533   0.17198   0.16700   0.00000  Uiso   1.00
C11    C     0.10278   0.15143   0.38066   0.00000  Uiso   1.00
C12    C     0.22903   0.18026   0.11950   0.00000  Uiso   1.00
C13    C     0.02759   0.10380   0.44187   0.00000  Uiso   1.00
C14    C     0.30508   0.22206   0.05625   0.00000  Uiso   1.00
C15    C     0.04506   0.11557   0.39741   0.00000  Uiso   1.00
C16    C     0.28587   0.21649   0.10164   0.00000  Uiso   1.00
C17    C     0.14152   0.17395   0.40924   0.00000  Uiso   1.00
C18    C     0.19127   0.15326   0.09147   0.00000  Uiso   1.00
C19    C     0.12988   0.15298   0.45143   0.00000  Uiso   1.00
C20    C     0.20235   0.17062   0.04830   0.00000  Uiso   1.00
C21    C     0.06905   0.12250   0.46948   0.00000  Uiso   1.00
C22    C     0.26369   0.20013   0.02909   0.00000  Uiso   1.00
C23    C     0.17600   0.16322   0.47676   0.00000  Uiso   1.00
C24    C     0.15605   0.15718   0.02292   0.00000  Uiso   1.00
Cu25   Cu    0.10737   0.16108   0.24517   0.00000  Uiso   1.00
Cu26   Cu    0.22596   0.17225   0.25484   0.00000  Uiso   1.00
H27    H     0.31406   0.08016   0.45421   0.00000  Uiso   1.00
H28    H     0.01849   0.24550   0.04329   0.00000  Uiso   1.00
H29    H     0.23522   0.01363   0.25579   0.00000  Uiso   1.00
H30    H     0.09813   0.31970   0.24420   0.00000  Uiso   1.00
N31    N     0.31506   0.18068   0.26212   0.00000  Uiso   1.00
N32    N     0.01827   0.15265   0.23788   0.00000  Uiso   1.00
O33    O     0.12815   0.23809   0.24686   0.00000  Uiso   1.00
O34    O     0.20518   0.09524   0.25314   0.00000  Uiso   1.00
O35    O     0.22829   0.24753   0.25502   0.00000  Uiso   1.00
O36    O     0.10504   0.08580   0.24498   0.00000  Uiso   1.00
O37    O     0.08851   0.15930   0.30855   0.00000  Uiso   1.00
O38    O     0.24482   0.17403   0.19145   0.00000  Uiso   1.00
O39    O     0.18866   0.16874   0.31671   0.00000  Uiso   1.00
O40    O     0.14468   0.16460   0.18329   0.00000  Uiso   1.00
O41    O     0.32333   0.08763   0.03507   0.00000  Uiso   1.00
H42    H     0.31360   0.05495   0.01716   0.00000  Uiso   1.00
O43    O     0.01111   0.22556   0.46132   0.00000  Uiso   1.00
H44    H     0.02512   0.25927   0.47676   0.00000  Uiso   1.00
O45    O     0.14434   0.10923   0.10629   0.00000  Uiso   1.00
C46    C     0.17040   0.06408   0.10265   0.00000  Uiso   1.00
H47    H     0.14374   0.03942   0.13130   0.00000  Uiso   1.00
H48    H     0.22094   0.07321   0.10428   0.00000  Uiso   1.00
C49    C     0.16223   0.03198   0.06036   0.00000  Uiso   1.00
H50    H     0.11213   0.02485   0.05846   0.00000  Uiso   1.00
H51    H     0.19216   0.05465   0.03132   0.00000  Uiso   1.00
C52    C     0.18053   0.31220   0.05890   0.00000  Uiso   1.00
H53    H     0.23017   0.31801   0.06138   0.00000  Uiso   1.00
H54    H     0.17593   0.29068   0.02736   0.00000  Uiso   1.00
H55    H     0.14894   0.28769   0.08637   0.00000  Uiso   1.00
O56    O     0.19167   0.21574   0.39485   0.00000  Uiso   1.00
C57    C     0.17546   0.26333   0.41371   0.00000  Uiso   1.00
H58    H     0.16330   0.26307   0.45034   0.00000  Uiso   1.00
H59    H     0.13445   0.26988   0.40270   0.00000  Uiso   1.00
C60    C     0.23150   0.30933   0.39855   0.00000  Uiso   1.00
H61    H     0.24244   0.31137   0.36212   0.00000  Uiso   1.00
H62    H     0.21873   0.01354   0.41322   0.00000  Uiso   1.00
C63    C     0.29002   0.30315   0.41222   0.00000  Uiso   1.00
H64    H     0.28056   0.30287   0.44864   0.00000  Uiso   1.00
H65    H     0.33039   0.00266   0.40018   0.00000  Uiso   1.00
H66    H     0.30441   0.26644   0.39733   0.00000  Uiso   1.00
O67    O     0.32464   0.24618   0.12675   0.00000  Uiso   1.00
H68    H     0.29812   0.25456   0.15568   0.00000  Uiso   1.00
O69    O     0.00517   0.08995   0.37157   0.00000  Uiso   1.00
H70    H     0.33215   0.11616   0.35341   0.00000  Uiso   1.00
O71    O     0.06687   0.15037   0.08642   0.00000  Uiso   1.00
H72    H     0.02073   0.13609   0.09499   0.00000  Uiso   1.00
O73    O     0.26758   0.16784   0.41372   0.00000  Uiso   1.00
H74    H     0.23961   0.13611   0.40391   0.00000  Uiso   1.00
O75    O     0.00463   0.21094   0.29359   0.00000  Uiso   1.00
H76    H     0.30370   0.22859   0.30938   0.00000  Uiso   1.00
O77    O     0.32867   0.12237   0.20644   0.00000  Uiso   1.00
H78    H     0.02959   0.10470   0.19066   0.00000  Uiso   1.00
C79    C     0.51510   0.26674   0.25139   0.00000  Uiso   1.00
C80    C     0.48490   0.06659   0.24861   0.00000  Uiso   1.00
C81    C     0.42379   0.13989   0.04214   0.00000  Uiso   1.00
C82    C     0.57507   0.17852   0.45734   0.00000  Uiso   1.00
C83    C     0.38300   0.11506   0.01528   0.00000  Uiso   1.00
C84    C     0.61663   0.20346   0.48292   0.00000  Uiso   1.00
C85    C     0.52347   0.32284   0.25201   0.00000  Uiso   1.00
C86    C     0.47655   0.01049   0.24797   0.00000  Uiso   1.00
C87    C     0.46102   0.16113   0.33313   0.00000  Uiso   1.00
C88    C     0.53867   0.17198   0.16700   0.00000  Uiso   1.00
C89    C     0.43612   0.15143   0.38066   0.00000  Uiso   1.00
C90    C     0.56237   0.18026   0.11950   0.00000  Uiso   1.00
C91    C     0.36092   0.10380   0.44187   0.00000  Uiso   1.00
C92    C     0.63842   0.22206   0.05625   0.00000  Uiso   1.00
C93    C     0.37839   0.11557   0.39741   0.00000  Uiso   1.00
C94    C     0.61920   0.21649   0.10164   0.00000  Uiso   1.00
C95    C     0.47486   0.17395   0.40924   0.00000  Uiso   1.00
C96    C     0.52460   0.15326   0.09147   0.00000  Uiso   1.00
C97    C     0.46322   0.15298   0.45143   0.00000  Uiso   1.00
C98    C     0.53569   0.17062   0.04830   0.00000  Uiso   1.00
C99    C     0.40238   0.12250   0.46948   0.00000  Uiso   1.00
C100   C     0.59703   0.20013   0.02909   0.00000  Uiso   1.00
C101   C     0.50933   0.16322   0.47676   0.00000  Uiso   1.00
C102   C     0.48938   0.15718   0.02292   0.00000  Uiso   1.00
Cu103  Cu    0.44071   0.16108   0.24517   0.00000  Uiso   1.00
Cu104  Cu    0.55929   0.17225   0.25484   0.00000  Uiso   1.00
H105   H     0.64740   0.08016   0.45421   0.00000  Uiso   1.00
H106   H     0.35182   0.24550   0.04329   0.00000  Uiso   1.00
H107   H     0.56855   0.01363   0.25579   0.00000  Uiso   1.00
H108   H     0.43146   0.31970   0.24420   0.00000  Uiso   1.00
N109   N     0.64839   0.18068   0.26212   0.00000  Uiso   1.00
N110   N     0.35161   0.15265   0.23788   0.00000  Uiso   1.00
O111   O     0.46148   0.23809   0.24686   0.00000  Uiso   1.00
O112   O     0.53852   0.09524   0.25314   0.00000  Uiso   1.00
O113   O     0.56163   0.24753   0.25502   0.00000  Uiso   1.00
O114   O     0.43837   0.08580   0.24498   0.00000  Uiso   1.00
O115   O     0.42185   0.15930   0.30855   0.00000  Uiso   1.00
O116   O     0.57815   0.17403   0.19145   0.00000  Uiso   1.00
O117   O     0.52199   0.16874   0.31671   0.00000  Uiso   1.00
O118   O     0.47801   0.16460   0.18329   0.00000  Uiso   1.00
O119   O     0.65667   0.08763   0.03507   0.00000  Uiso   1.00
H120   H     0.64693   0.05495   0.01716   0.00000  Uiso   1.00
O121   O     0.34444   0.22556   0.46132   0.00000  Uiso   1.00
H122   H     0.35845   0.25927   0.47676   0.00000  Uiso   1.00
O123   O     0.47767   0.10923   0.10629   0.00000  Uiso   1.00
C124   C     0.50374   0.06408   0.10265   0.00000  Uiso   1.00
H125   H     0.47707   0.03942   0.13130   0.00000  Uiso   1.00
H126   H     0.55427   0.07321   0.10428   0.00000  Uiso   1.00
C127   C     0.49556   0.03198   0.06036   0.00000  Uiso   1.00
H128   H     0.44547   0.02485   0.05846   0.00000  Uiso   1.00
H129   H     0.52549   0.05465   0.03132   0.00000  Uiso   1.00
C130   C     0.51387   0.31220   0.05890   0.00000  Uiso   1.00
H131   H     0.56350   0.31801   0.06138   0.00000  Uiso   1.00
H132   H     0.50926   0.29068   0.02736   0.00000  Uiso   1.00
H133   H     0.48227   0.28769   0.08637   0.00000  Uiso   1.00
O134   O     0.52501   0.21574   0.39485   0.00000  Uiso   1.00
C135   C     0.50879   0.26333   0.41371   0.00000  Uiso   1.00
H136   H     0.49663   0.26307   0.45034   0.00000  Uiso   1.00
H137   H     0.46778   0.26988   0.40270   0.00000  Uiso   1.00
C138   C     0.56483   0.30933   0.39855   0.00000  Uiso   1.00
H139   H     0.57578   0.31137   0.36212   0.00000  Uiso   1.00
H140   H     0.55207   0.01354   0.41322   0.00000  Uiso   1.00
C141   C     0.62335   0.30315   0.41222   0.00000  Uiso   1.00
H142   H     0.61390   0.30287   0.44864   0.00000  Uiso   1.00
H143   H     0.66372   0.00266   0.40018   0.00000  Uiso   1.00
H144   H     0.63774   0.26644   0.39733   0.00000  Uiso   1.00
O145   O     0.65798   0.24618   0.12675   0.00000  Uiso   1.00
H146   H     0.63146   0.25456   0.15568   0.00000  Uiso   1.00
O147   O     0.33850   0.08995   0.37157   0.00000  Uiso   1.00
H148   H     0.66549   0.11616   0.35341   0.00000  Uiso   1.00
O149   O     0.40021   0.15037   0.08642   0.00000  Uiso   1.00
H150   H     0.35407   0.13609   0.09499   0.00000  Uiso   1.00
O151   O     0.60092   0.16784   0.41372   0.00000  Uiso   1.00
H152   H     0.57294   0.13611   0.40391   0.00000  Uiso   1.00
O153   O     0.33797   0.21094   0.29359   0.00000  Uiso   1.00
H154   H     0.63704   0.22859   0.30938   0.00000  Uiso   1.00
O155   O     0.66201   0.12237   0.20644   0.00000  Uiso   1.00
H156   H     0.36292   0.10470   0.19066   0.00000  Uiso   1.00
C157   C     0.84843   0.26674   0.25139   0.00000  Uiso   1.00
C158   C     0.81824   0.06659   0.24861   0.00000  Uiso   1.00
C159   C     0.75713   0.13989   0.04214   0.00000  Uiso   1.00
C160   C     0.90840   0.17852   0.45734   0.00000  Uiso   1.00
C161   C     0.71634   0.11506   0.01528   0.00000  Uiso   1.00
C162   C     0.94997   0.20346   0.48292   0.00000  Uiso   1.00
C163   C     0.85680   0.32284   0.25201   0.00000  Uiso   1.00
C164   C     0.80988   0.01049   0.24797   0.00000  Uiso   1.00
C165   C     0.79436   0.16113   0.33313   0.00000  Uiso   1.00
C166   C     0.87200   0.17198   0.16700   0.00000  Uiso   1.00
C167   C     0.76945   0.15143   0.38066   0.00000  Uiso   1.00
C168   C     0.89570   0.18026   0.11950   0.00000  Uiso   1.00
C169   C     0.69425   0.10380   0.44187   0.00000  Uiso   1.00
C170   C     0.97175   0.22206   0.05625   0.00000  Uiso   1.00
C171   C     0.71173   0.11557   0.39741   0.00000  Uiso   1.00
C172   C     0.95254   0.21649   0.10164   0.00000  Uiso   1.00
C173   C     0.80819   0.17395   0.40924   0.00000  Uiso   1.00
C174   C     0.85793   0.15326   0.09147   0.00000  Uiso   1.00
C175   C     0.79655   0.15298   0.45143   0.00000  Uiso   1.00
C176   C     0.86902   0.17062   0.04830   0.00000  Uiso   1.00
C177   C     0.73572   0.12250   0.46948   0.00000  Uiso   1.00
C178   C     0.93036   0.20013   0.02909   0.00000  Uiso   1.00
C179   C     0.84267   0.16322   0.47676   0.00000  Uiso   1.00
C180   C     0.82271   0.15718   0.02292   0.00000  Uiso   1.00
Cu181  Cu    0.77404   0.16108   0.24517   0.00000  Uiso   1.00
Cu182  Cu    0.89263   0.17225   0.25484   0.00000  Uiso   1.00
H183   H     0.98073   0.08016   0.45421   0.00000  Uiso   1.00
H184   H     0.68516   0.24550   0.04329   0.00000  Uiso   1.00
H185   H     0.90189   0.01363   0.25579   0.00000  Uiso   1.00
H186   H     0.76479   0.31970   0.24420   0.00000  Uiso   1.00
N187   N     0.98173   0.18068   0.26212   0.00000  Uiso   1.00
N188   N     0.68494   0.15265   0.23788   0.00000  Uiso   1.00
O189   O     0.79482   0.23809   0.24686   0.00000  Uiso   1.00
O190   O     0.87185   0.09524   0.25314   0.00000  Uiso   1.00
O191   O     0.89496   0.24753   0.25502   0.00000  Uiso   1.00
O192   O     0.77171   0.08580   0.24498   0.00000  Uiso   1.00
O193   O     0.75518   0.15930   0.30855   0.00000  Uiso   1.00
O194   O     0.91149   0.17403   0.19145   0.00000  Uiso   1.00
O195   O     0.85532   0.16874   0.31671   0.00000  Uiso   1.00
O196   O     0.81134   0.16460   0.18329   0.00000  Uiso   1.00
O197   O     0.99000   0.08763   0.03507   0.00000  Uiso   1.00
H198   H     0.98026   0.05495   0.01716   0.00000  Uiso   1.00
O199   O     0.67778   0.22556   0.46132   0.00000  Uiso   1.00
H200   H     0.69179   0.25927   0.47676   0.00000  Uiso   1.00
O201   O     0.81101   0.10923   0.10629   0.00000  Uiso   1.00
C202   C     0.83707   0.06408   0.10265   0.00000  Uiso   1.00
H203   H     0.81041   0.03942   0.13130   0.00000  Uiso   1.00
H204   H     0.88761   0.07321   0.10428   0.00000  Uiso   1.00
C205   C     0.82890   0.03198   0.06036   0.00000  Uiso   1.00
H206   H     0.77880   0.02485   0.05846   0.00000  Uiso   1.00
H207   H     0.85883   0.05465   0.03132   0.00000  Uiso   1.00
C208   C     0.84720   0.31220   0.05890   0.00000  Uiso   1.00
H209   H     0.89683   0.31801   0.06138   0.00000  Uiso   1.00
H210   H     0.84260   0.29068   0.02736   0.00000  Uiso   1.00
H211   H     0.81561   0.28769   0.08637   0.00000  Uiso   1.00
O212   O     0.85834   0.21574   0.39485   0.00000  Uiso   1.00
C213   C     0.84212   0.26333   0.41371   0.00000  Uiso   1.00
H214   H     0.82997   0.26307   0.45034   0.00000  Uiso   1.00
H215   H     0.80111   0.26988   0.40270   0.00000  Uiso   1.00
C216   C     0.89816   0.30933   0.39855   0.00000  Uiso   1.00
H217   H     0.90911   0.31137   0.36212   0.00000  Uiso   1.00
H218   H     0.88540   0.01354   0.41322   0.00000  Uiso   1.00
C219   C     0.95669   0.30315   0.41222   0.00000  Uiso   1.00
H220   H     0.94723   0.30287   0.44864   0.00000  Uiso   1.00
H221   H     0.99706   0.00266   0.40018   0.00000  Uiso   1.00
H222   H     0.97108   0.26644   0.39733   0.00000  Uiso   1.00
O223   O     0.99131   0.24618   0.12675   0.00000  Uiso   1.00
H224   H     0.96479   0.25456   0.15568   0.00000  Uiso   1.00
O225   O     0.67184   0.08995   0.37157   0.00000  Uiso   1.00
H226   H     0.99882   0.11616   0.35341   0.00000  Uiso   1.00
O227   O     0.73354   0.15037   0.08642   0.00000  Uiso   1.00
H228   H     0.68740   0.13609   0.09499   0.00000  Uiso   1.00
O229   O     0.93425   0.16784   0.41372   0.00000  Uiso   1.00
H230   H     0.90627   0.13611   0.40391   0.00000  Uiso   1.00
O231   O     0.67130   0.21094   0.29359   0.00000  Uiso   1.00
H232   H     0.97037   0.22859   0.30938   0.00000  Uiso   1.00
O233   O     0.99534   0.12237   0.20644   0.00000  Uiso   1.00
H234   H     0.69625   0.10470   0.19066   0.00000  Uiso   1.00
C235   C     0.18177   0.60007   0.25139   0.00000  Uiso   1.00
C236   C     0.15157   0.39993   0.24861   0.00000  Uiso   1.00
C237   C     0.09046   0.47323   0.04214   0.00000  Uiso   1.00
C238   C     0.24174   0.51185   0.45734   0.00000  Uiso   1.00
C239   C     0.04967   0.44839   0.01528   0.00000  Uiso   1.00
C240   C     0.28330   0.53679   0.48292   0.00000  Uiso   1.00
C241   C     0.19014   0.65617   0.25201   0.00000  Uiso   1.00
C242   C     0.14321   0.34383   0.24797   0.00000  Uiso   1.00
C243   C     0.12769   0.49447   0.33313   0.00000  Uiso   1.00
C244   C     0.20533   0.50531   0.16700   0.00000  Uiso   1.00
C245   C     0.10278   0.48476   0.38066   0.00000  Uiso   1.00
C246   C     0.22903   0.51360   0.11950   0.00000  Uiso   1.00
C247   C     0.02759   0.43713   0.44187   0.00000  Uiso   1.00
C248   C     0.30508   0.55539   0.05625   0.00000  Uiso   1.00
C249   C     0.04506   0.44890   0.39741   0.00000  Uiso   1.00
C250   C     0.28587   0.54983   0.10164   0.00000  Uiso   1.00
C251   C     0.14152   0.50728   0.40924   0.00000  Uiso   1.00
C252   C     0.19127   0.48660   0.09147   0.00000  Uiso   1.00
C253   C     0.12988   0.48631   0.45143   0.00000  Uiso   1.00
C254   C     0.20235   0.50395   0.04830   0.00000  Uiso   1.00
C255   C     0.06905   0.45583   0.46948   0.00000  Uiso   1.00
C256   C     0.26369   0.53347   0.02909   0.00000  Uiso   1.00
C257   C     0.17600   0.49655   0.47676   0.00000  Uiso   1.00
C258   C     0.15605   0.49051   0.02292   0.00000  Uiso   1.00
Cu259  Cu    0.10737   0.49441   0.24517   0.00000  Uiso   1.00
Cu260  Cu    0.22596   0.50559   0.25484   0.00000  Uiso   1.00
H261   H     0.31406   0.41349   0.45421   0.00000  Uiso   1.00
H262   H     0.01849   0.57883   0.04329   0.00000  Uiso   1.00
H263   H     0.23522   0.34696   0.25579   0.00000  Uiso   1.00
H264   H     0.09813   0.65304   0.24420   0.00000  Uiso   1.00
N265   N     0.31506   0.51401   0.26212   0.00000  Uiso   1.00
N266   N     0.01827   0.48599   0.23788   0.00000  Uiso   1.00
O267   O     0.12815   0.57142   0.24686   0.00000  Uiso   1.00
O268   O     0.20518   0.42858   0.25314   0.00000  Uiso   1.00
O269   O     0.22829   0.58086   0.25502   0.00000  Uiso   1.00
O270   O     0.10504   0.41914   0.24498   0.00000  Uiso   1.00
O271   O     0.08851   0.49263   0.30855   0.00000  Uiso   1.00
O272   O     0.24482   0.50737   0.19145   0.00000  Uiso   1.00
O273   O     0.18866   0.50207   0.31671   0.00000  Uiso   1.00
O274   O     0.14468   0.49793   0.18329   0.00000  Uiso   1.00
O275   O     0.32333   0.42097   0.03507   0.00000  Uiso   1.00
H276   H     0.31360   0.38829   0.01716   0.00000  Uiso   1.00
O277   O     0.01111   0.55890   0.46132   0.00000  Uiso   1.00
H278   H     0.02512   0.59260   0.47676   0.00000  Uiso   1.00
O279   O     0.14434   0.44256   0.10629   0.00000  Uiso   1.00
C280   C     0.17040   0.39741   0.10265   0.00000  Uiso   1.00
H281   H     0.14374   0.37275   0.13130   0.00000  Uiso   1.00
H282   H     0.22094   0.40655   0.10428   0.00000  Uiso   1.00
C283   C     0.16223   0.36531   0.06036   0.00000  Uiso   1.00
H284   H     0.11213   0.35819   0.05846   0.00000  Uiso   1.00
H285   H     0.19216   0.38798   0.03132   0.00000  Uiso   1.00
C286   C     0.18053   0.64553   0.05890   0.00000  Uiso   1.00
H287   H     0.23017   0.65134   0.06138   0.00000  Uiso   1.00
H288   H     0.17593   0.62402   0.02736   0.00000  Uiso   1.00
H289   H     0.14894   0.62102   0.08637   0.00000  Uiso   1.00
O290   O     0.19167   0.54908   0.39485   0.00000  Uiso   1.00
C291   C     0.17546   0.59666   0.41371   0.00000  Uiso   1.00
H292   H     0.16330   0.59640   0.45034   0.00000  Uiso   1.00
H293   H     0.13445   0.60321   0.40270   0.00000  Uiso   1.00
C294   C     0.23150   0.64266   0.39855   0.00000  Uiso   1.00
H295   H     0.24244   0.64470   0.36212   0.00000  Uiso   1.00
H296   H     0.21873   0.34688   0.41322   0.00000  Uiso   1.00
C297   C     0.29002   0.63648   0.41222   0.00000  Uiso   1.00
H298   H     0.28056   0.63621   0.44864   0.00000  Uiso   1.00
H299   H     0.33039   0.33599   0.40018   0.00000  Uiso   1.00
H300   H     0.30441   0.59977   0.39733   0.00000  Uiso   1.00
O301   O     0.32464   0.57952   0.12675   0.00000  Uiso   1.00
H302   H     0.29812   0.58789   0.15568   0.00000  Uiso   1.00
O303   O     0.00517   0.42328   0.37157   0.00000  Uiso   1.00
H304   H     0.33215   0.44950   0.35341   0.00000  Uiso   1.00
O305   O     0.06687   0.48370   0.08642   0.00000  Uiso   1.00
H306   H     0.02073   0.46943   0.09499   0.00000  Uiso   1.00
O307   O     0.26758   0.50118   0.41372   0.00000  Uiso   1.00
H308   H     0.23961   0.46945   0.40391   0.00000  Uiso   1.00
O309   O     0.00463   0.54427   0.29359   0.00000  Uiso   1.00
H310   H     0.30370   0.56192   0.30938   0.00000  Uiso   1.00
O311   O     0.32867   0.45571   0.20644   0.00000  Uiso   1.00
H312   H     0.02959   0.43803   0.19066   0.00000  Uiso   1.00
C313   C     0.51510   0.60007   0.25139   0.00000  Uiso   1.00
C314   C     0.48490   0.39993   0.24861   0.00000  Uiso   1.00
C315   C     0.42379   0.47323   0.04214   0.00000  Uiso   1.00
C316   C     0.57507   0.51185   0.45734   0.00000  Uiso   1.00
C317   C     0.38300   0.44839   0.01528   0.00000  Uiso   1.00
C318   C     0.61663   0.53679   0.48292   0.00000  Uiso   1.00
C319   C     0.52347   0.65617   0.25201   0.00000  Uiso   1.00
C320   C     0.47655   0.34383   0.24797   0.00000  Uiso   1.00
C321   C     0.46102   0.49447   0.33313   0.00000  Uiso   1.00
C322   C     0.53867   0.50531   0.16700   0.00000  Uiso   1.00
C323   C     0.43612   0.48476   0.38066   0.00000  Uiso   1.00
C324   C     0.56237   0.51360   0.11950   0.00000  Uiso   1.00
C325   C     0.36092   0.43713   0.44187   0.00000  Uiso   1.00
C326   C     0.63842   0.55539   0.05625   0.00000  Uiso   1.00
C327   C     0.37839   0.44890   0.39741   0.00000  Uiso   1.00
C328   C     0.61920   0.54983   0.10164   0.00000  Uiso   1.00
C329   C     0.47486   0.50728   0.40924   0.00000  Uiso   1.00
C330   C     0.52460   0.48660   0.09147   0.00000  Uiso   1.00
C331   C     0.46322   0.48631   0.45143   0.00000  Uiso   1.00
C332   C     0.53569   0.50395   0.04830   0.00000  Uiso   1.00
C333   C     0.40238   0.45583   0.46948   0.00000  Uiso   1.00
C334   C     0.59703   0.53347   0.02909   0.00000  Uiso   1.00
C335   C     0.50933   0.49655   0.47676   0.00000  Uiso   1.00
C336   C     0.48938   0.49051   0.02292   0.00000  Uiso   1.00
Cu337  Cu    0.44071   0.49441   0.24517   0.00000  Uiso   1.00
Cu338  Cu    0.55929   0.50559   0.25484   0.00000  Uiso   1.00
H339   H     0.64740   0.41349   0.45421   0.00000  Uiso   1.00
H340   H     0.35182   0.57883   0.04329   0.00000  Uiso   1.00
H341   H     0.56855   0.34696   0.25579   0.00000  Uiso   1.00
H342   H     0.43146   0.65304   0.24420   0.00000  Uiso   1.00
N343   N     0.64839   0.51401   0.26212   0.00000  Uiso   1.00
N344   N     0.35161   0.48599   0.23788   0.00000  Uiso   1.00
O345   O     0.46148   0.57142   0.24686   0.00000  Uiso   1.00
O346   O     0.53852   0.42858   0.25314   0.00000  Uiso   1.00
O347   O     0.56163   0.58086   0.25502   0.00000  Uiso   1.00
O348   O     0.43837   0.41914   0.24498   0.00000  Uiso   1.00
O349   O     0.42185   0.49263   0.30855   0.00000  Uiso   1.00
O350   O     0.57815   0.50737   0.19145   0.00000  Uiso   1.00
O351   O     0.52199   0.50207   0.31671   0.00000  Uiso   1.00
O352   O     0.47801   0.49793   0.18329   0.00000  Uiso   1.00
O353   O     0.65667   0.42097   0.03507   0.00000  Uiso   1.00
H354   H     0.64693   0.38829   0.01716   0.00000  Uiso   1.00
O355   O     0.34444   0.55890   0.46132   0.00000  Uiso   1.00
H356   H     0.35845   0.59260   0.47676   0.00000  Uiso   1.00
O357   O     0.47767   0.44256   0.10629   0.00000  Uiso   1.00
C358   C     0.50374   0.39741   0.10265   0.00000  Uiso   1.00
H359   H     0.47707   0.37275   0.13130   0.00000  Uiso   1.00
H360   H     0.55427   0.40655   0.10428   0.00000  Uiso   1.00
C361   C     0.49556   0.36531   0.06036   0.00000  Uiso   1.00
H362   H     0.44547   0.35819   0.05846   0.00000  Uiso   1.00
H363   H     0.52549   0.38798   0.03132   0.00000  Uiso   1.00
C364   C     0.51387   0.64553   0.05890   0.00000  Uiso   1.00
H365   H     0.56350   0.65134   0.06138   0.00000  Uiso   1.00
H366   H     0.50926   0.62402   0.02736   0.00000  Uiso   1.00
H367   H     0.48227   0.62102   0.08637   0.00000  Uiso   1.00
O368   O     0.52501   0.54908   0.39485   0.00000  Uiso   1.00
C369   C     0.50879   0.59666   0.41371   0.00000  Uiso   1.00
H370   H     0.49663   0.59640   0.45034   0.00000  Uiso   1.00
H371   H     0.46778   0.60321   0.40270   0.00000  Uiso   1.00
C372   C     0.56483   0.64266   0.39855   0.00000  Uiso   1.00
H373   H     0.57578   0.64470   0.36212   0.00000  Uiso   1.00
H374   H     0.55207   0.34688   0.41322   0.00000  Uiso   1.00
C375   C     0.62335   0.63648   0.41222   0.00000  Uiso   1.00
H376   H     0.61390   0.63621   0.44864   0.00000  Uiso   1.00
H377   H     0.66372   0.33599   0.40018   0.00000  Uiso   1.00
H378   H     0.63774   0.59977   0.39733   0.00000  Uiso   1.00
O379   O     0.65798   0.57952   0.12675   0.00000  Uiso   1.00
H380   H     0.63146   0.58789   0.15568   0.00000  Uiso   1.00
O381   O     0.33850   0.42328   0.37157   0.00000  Uiso   1.00
H382   H     0.66549   0.44950   0.35341   0.00000  Uiso   1.00
O383   O     0.40021   0.48370   0.08642   0.00000  Uiso   1.00
H384   H     0.35407   0.46943   0.09499   0.00000  Uiso   1.00
O385   O     0.60092   0.50118   0.41372   0.00000  Uiso   1.00
H386   H     0.57294   0.46945   0.40391   0.00000  Uiso   1.00
O387   O     0.33797   0.54427   0.29359   0.00000  Uiso   1.00
H388   H     0.63704   0.56192   0.30938   0.00000  Uiso   1.00
O389   O     0.66201   0.45571   0.20644   0.00000  Uiso   1.00
H390   H     0.36292   0.43803   0.19066   0.00000  Uiso   1.00
C391   C     0.84843   0.60007   0.25139   0.00000  Uiso   1.00
C392   C     0.81824   0.39993   0.24861   0.00000  Uiso   1.00
C393   C     0.75713   0.47323   0.04214   0.00000  Uiso   1.00
C394   C     0.90840   0.51185   0.45734   0.00000  Uiso   1.00
C395   C     0.71634   0.44839   0.01528   0.00000  Uiso   1.00
C396   C     0.94997   0.53679   0.48292   0.00000  Uiso   1.00
C397   C     0.85680   0.65617   0.25201   0.00000  Uiso   1.00
C398   C     0.80988   0.34383   0.24797   0.00000  Uiso   1.00
C399   C     0.79436   0.49447   0.33313   0.00000  Uiso   1.00
C400   C     0.87200   0.50531   0.16700   0.00000  Uiso   1.00
C401   C     0.76945   0.48476   0.38066   0.00000  Uiso   1.00
C402   C     0.89570   0.51360   0.11950   0.00000  Uiso   1.00
C403   C     0.69425   0.43713   0.44187   0.00000  Uiso   1.00
C404   C     0.97175   0.55539   0.05625   0.00000  Uiso   1.00
C405   C     0.71173   0.44890   0.39741   0.00000  Uiso   1.00
C406   C     0.95254   0.54983   0.10164   0.00000  Uiso   1.00
C407   C     0.80819   0.50728   0.40924   0.00000  Uiso   1.00
C408   C     0.85793   0.48660   0.09147   0.00000  Uiso   1.00
C409   C     0.79655   0.48631   0.45143   0.00000  Uiso   1.00
C410   C     0.86902   0.50395   0.04830   0.00000  Uiso   1.00
C411   C     0.73572   0.45583   0.46948   0.00000  Uiso   1.00
C412   C     0.93036   0.53347   0.02909   0.00000  Uiso   1.00
C413   C     0.84267   0.49655   0.47676   0.00000  Uiso   1.00
C414   C     0.82271   0.49051   0.02292   0.00000  Uiso   1.00
Cu415  Cu    0.77404   0.49441   0.24517   0.00000  Uiso   1.00
Cu416  Cu    0.89263   0.50559   0.25484   0.00000  Uiso   1.00
H417   H     0.98073   0.41349   0.45421   0.00000  Uiso   1.00
H418   H     0.68516   0.57883   0.04329   0.00000  Uiso   1.00
H419   H     0.90189   0.34696   0.25579   0.00000  Uiso   1.00
H420   H     0.76479   0.65304   0.24420   0.00000  Uiso   1.00
N421   N     0.98173   0.51401   0.26212   0.00000  Uiso   1.00
N422   N     0.68494   0.48599   0.23788   0.00000  Uiso   1.00
O423   O     0.79482   0.57142   0.24686   0.00000  Uiso   1.00
O424   O     0.87185   0.42858   0.25314   0.00000  Uiso   1.00
O425   O     0.89496   0.58086   0.25502   0.00000  Uiso   1.00
O426   O     0.77171   0.41914   0.24498   0.00000  Uiso   1.00
O427   O     0.75518   0.49263   0.30855   0.00000  Uiso   1.00
O428   O     0.91149   0.50737   0.19145   0.00000  Uiso   1.00
O429   O     0.85532   0.50207   0.31671   0.00000  Uiso   1.00
O430   O     0.81134   0.49793   0.18329   0.00000  Uiso   1.00
O431   O     0.99000   0.42097   0.03507   0.00000  Uiso   1.00
H432   H     0.98026   0.38829   0.01716   0.00000  Uiso   1.00
O433   O     0.67778   0.55890   0.46132   0.00000  Uiso   1.00
H434   H     0.69179   0.59260   0.47676   0.00000  Uiso   1.00
O435   O     0.81101   0.44256   0.10629   0.00000  Uiso   1.00
C436   C     0.83707   0.39741   0.10265   0.00000  Uiso   1.00
H437   H     0.81041   0.37275   0.13130   0.00000  Uiso   1.00
H438   H     0.88761   0.40655   0.10428   0.00000  Uiso   1.00
C439   C     0.82890   0.36531   0.06036   0.00000  Uiso   1.00
H440   H     0.77880   0.35819   0.05846   0.00000  Uiso   1.00
H441   H     0.85883   0.38798   0.03132   0.00000  Uiso   1.00
C442   C     0.84720   0.64553   0.05890   0.00000  Uiso   1.00
H443   H     0.89683   0.65134   0.06138   0.00000  Uiso   1.00
H444   H     0.84260   0.62402   0.02736   0.00000  Uiso   1.00
H445   H     0.81561   0.62102   0.08637   0.00000  Uiso   1.00
O446   O     0.85834   0.54908   0.39485   0.00000  Uiso   1.00
C447   C     0.84212   0.59666   0.41371   0.00000  Uiso   1.00
H448   H     0.82997   0.59640   0.45034   0.00000  Uiso   1.00
H449   H     0.80111   0.60321   0.40270   0.00000  Uiso   1.00
C450   C     0.89816   0.64266   0.39855   0.00000  Uiso   1.00
H451   H     0.90911   0.64470   0.36212   0.00000  Uiso   1.00
H452   H     0.88540   0.34688   0.41322   0.00000  Uiso   1.00
C453   C     0.95669   0.63648   0.41222   0.00000  Uiso   1.00
H454   H     0.94723   0.63621   0.44864   0.00000  Uiso   1.00
H455   H     0.99706   0.33599   0.40018   0.00000  Uiso   1.00
H456   H     0.97108   0.59977   0.39733   0.00000  Uiso   1.00
O457   O     0.99131   0.57952   0.12675   0.00000  Uiso   1.00
H458   H     0.96479   0.58789   0.15568   0.00000  Uiso   1.00
O459   O     0.67184   0.42328   0.37157   0.00000  Uiso   1.00
H460   H     0.99882   0.44950   0.35341   0.00000  Uiso   1.00
O461   O     0.73354   0.48370   0.08642   0.00000  Uiso   1.00
H462   H     0.68740   0.46943   0.09499   0.00000  Uiso   1.00
O463   O     0.93425   0.50118   0.41372   0.00000  Uiso   1.00
H464   H     0.90627   0.46945   0.40391   0.00000  Uiso   1.00
O465   O     0.67130   0.54427   0.29359   0.00000  Uiso   1.00
H466   H     0.97037   0.56192   0.30938   0.00000  Uiso   1.00
O467   O     0.99534   0.45571   0.20644   0.00000  Uiso   1.00
H468   H     0.69625   0.43803   0.19066   0.00000  Uiso   1.00
C469   C     0.18177   0.93341   0.25139   0.00000  Uiso   1.00
C470   C     0.15157   0.73326   0.24861   0.00000  Uiso   1.00
C471   C     0.09046   0.80656   0.04214   0.00000  Uiso   1.00
C472   C     0.24174   0.84518   0.45734   0.00000  Uiso   1.00
C473   C     0.04967   0.78173   0.01528   0.00000  Uiso   1.00
C474   C     0.28330   0.87012   0.48292   0.00000  Uiso   1.00
C475   C     0.19014   0.98951   0.25201   0.00000  Uiso   1.00
C476   C     0.14321   0.67716   0.24797   0.00000  Uiso   1.00
C477   C     0.12769   0.82780   0.33313   0.00000  Uiso   1.00
C478   C     0.20533   0.83865   0.16700   0.00000  Uiso   1.00
C479   C     0.10278   0.81809   0.38066   0.00000  Uiso   1.00
C480   C     0.22903   0.84693   0.11950   0.00000  Uiso   1.00
C481   C     0.02759   0.77046   0.44187   0.00000  Uiso   1.00
C482   C     0.30508   0.88873   0.05625   0.00000  Uiso   1.00
C483   C     0.04506   0.78223   0.39741   0.00000  Uiso   1.00
C484   C     0.28587   0.88316   0.10164   0.00000  Uiso   1.00
C485   C     0.14152   0.84061   0.40924   0.00000  Uiso   1.00
C486   C     0.19127   0.81993   0.09147   0.00000  Uiso   1.00
C487   C     0.12988   0.81965   0.45143   0.00000  Uiso   1.00
C488   C     0.20235   0.83728   0.04830   0.00000  Uiso   1.00
C489   C     0.06905   0.78917   0.46948   0.00000  Uiso   1.00
C490   C     0.26369   0.86680   0.02909   0.00000  Uiso   1.00
C491   C     0.17600   0.82988   0.47676   0.00000  Uiso   1.00
C492   C     0.15605   0.82384   0.02292   0.00000  Uiso   1.00
Cu493  Cu    0.10737   0.82775   0.24517   0.00000  Uiso   1.00
Cu494  Cu    0.22596   0.83892   0.25484   0.00000  Uiso   1.00
H495   H     0.31406   0.74683   0.45421   0.00000  Uiso   1.00
H496   H     0.01849   0.91217   0.04329   0.00000  Uiso   1.00
H497   H     0.23522   0.68030   0.25579   0.00000  Uiso   1.00
H498   H     0.09813   0.98637   0.24420   0.00000  Uiso   1.00
N499   N     0.31506   0.84735   0.26212   0.00000  Uiso   1.00
N500   N     0.01827   0.81932   0.23788   0.00000  Uiso   1.00
O501   O     0.12815   0.90476   0.24686   0.00000  Uiso   1.00
O502   O     0.20518   0.76191   0.25314   0.00000  Uiso   1.00
O503   O     0.22829   0.91420   0.25502   0.00000  Uiso   1.00
O504   O     0.10504   0.75247   0.24498   0.00000  Uiso   1.00
O505   O     0.08851   0.82597   0.30855   0.00000  Uiso   1.00
O506   O     0.24482   0.84070   0.19145   0.00000  Uiso   1.00
O507   O     0.18866   0.83540   0.31671   0.00000  Uiso   1.00
O508   O     0.14468   0.83126   0.18329   0.00000  Uiso   1.00
O509   O     0.32333   0.75430   0.03507   0.00000  Uiso   1.00
H510   H     0.31360   0.72162   0.01716   0.00000  Uiso   1.00
O511   O     0.01111   0.89223   0.46132   0.00000  Uiso   1.00
H512   H     0.02512   0.92594   0.47676   0.00000  Uiso   1.00
O513   O     0.14434   0.77589   0.10629   0.00000  Uiso   1.00
C514   C     0.17040   0.73075   0.10265   0.00000  Uiso   1.00
H515   H     0.14374   0.70609   0.13130   0.00000  Uiso   1.00
H516   H     0.22094   0.73988   0.10428   0.00000  Uiso   1.00
C517   C     0.16223   0.69865   0.06036   0.00000  Uiso   1.00
H518   H     0.11213   0.69152   0.05846   0.00000  Uiso   1.00
H519   H     0.19216   0.72131   0.03132   0.00000  Uiso   1.00
C520   C     0.18053   0.97887   0.05890   0.00000  Uiso   1.00
H521   H     0.23017   0.98468   0.06138   0.00000  Uiso   1.00
H522   H     0.17593   0.95735   0.02736   0.00000  Uiso   1.00
H523   H     0.14894   0.95435   0.08637   0.00000  Uiso   1.00
O524   O     0.19167   0.88241   0.39485   0.00000  Uiso   1.00
C525   C     0.17546   0.93000   0.41371   0.00000  Uiso   1.00
H526   H     0.16330   0.92974   0.45034   0.00000  Uiso   1.00
H527   H     0.13445   0.93655   0.40270   0.00000  Uiso   1.00
C528   C     0.23150   0.97599   0.39855   0.00000  Uiso   1.00
H529   H     0.24244   0.97803   0.36212   0.00000  Uiso   1.00
H530   H     0.21873   0.68021   0.41322   0.00000  Uiso   1.00
C531   C     0.29002   0.96981   0.41222   0.00000  Uiso   1.00
H532   H     0.28056   0.96954   0.44864   0.00000  Uiso   1.00
H533   H     0.33039   0.66932   0.40018   0.00000  Uiso   1.00
H534   H     0.30441   0.93311   0.39733   0.00000  Uiso   1.00
O535   O     0.32464   0.91285   0.12675   0.00000  Uiso   1.00
H536   H     0.29812   0.92122   0.15568   0.00000  Uiso   1.00
O537   O     0.00517   0.75661   0.37157   0.00000  Uiso   1.00
H538   H     0.33215   0.78283   0.35341   0.00000  Uiso   1.00
O539   O     0.06687   0.81703   0.08642   0.00000  Uiso   1.00
H540   H     0.02073   0.80276   0.09499   0.00000  Uiso   1.00
O541   O     0.26758   0.83451   0.41372   0.00000  Uiso   1.00
H542   H     0.23961   0.80278   0.40391   0.00000  Uiso   1.00
O543   O     0.00463   0.87760   0.29359   0.00000  Uiso   1.00
H544   H     0.30370   0.89525   0.30938   0.00000  Uiso   1.00
O545   O     0.32867   0.78904   0.20644   0.00000  Uiso   1.00
H546   H     0.02959   0.77137   0.19066   0.00000  Uiso   1.00
C547   C     0.51510   0.93341   0.25139   0.00000  Uiso   1.00
C548   C     0.48490   0.73326   0.24861   0.00000  Uiso   1.00
C549   C     0.42379   0.80656   0.04214   0.00000  Uiso   1.00
C550   C     0.57507   0.84518   0.45734   0.00000  Uiso   1.00
C551   C     0.38300   0.78173   0.01528   0.00000  Uiso   1.00
C552   C     0.61663   0.87012   0.48292   0.00000  Uiso   1.00
C553   C     0.52347   0.98951   0.25201   0.00000  Uiso   1.00
C554   C     0.47655   0.67716   0.24797   0.00000  Uiso   1.00
C555   C     0.46102   0.82780   0.33313   0.00000  Uiso   1.00
C556   C     0.53867   0.83865   0.16700   0.00000  Uiso   1.00
C557   C     0.43612   0.81809   0.38066   0.00000  Uiso   1.00
C558   C     0.56237   0.84693   0.11950   0.00000  Uiso   1.00
C559   C     0.36092   0.77046   0.44187   0.00000  Uiso   1.00
C560   C     0.63842   0.88873   0.05625   0.00000  Uiso   1.00
C561   C     0.37839   0.78223   0.39741   0.00000  Uiso   1.00
C562   C     0.61920   0.88316   0.10164   0.00000  Uiso   1.00
C563   C     0.47486   0.84061   0.40924   0.00000  Uiso   1.00
C564   C     0.52460   0.81993   0.09147   0.00000  Uiso   1.00
C565   C     0.46322   0.81965   0.45143   0.00000  Uiso   1.00
C566   C     0.53569   0.83728   0.04830   0.00000  Uiso   1.00
C567   C     0.40238   0.78917   0.46948   0.00000  Uiso   1.00
C568   C     0.59703   0.86680   0.02909   0.00000  Uiso   1.00
C569   C     0.50933   0.82988   0.47676   0.00000  Uiso   1.00
C570   C     0.48938   0.82384   0.02292   0.00000  Uiso   1.00
Cu571  Cu    0.44071   0.82775   0.24517   0.00000  Uiso   1.00
Cu572  Cu    0.55929   0.83892   0.25484   0.00000  Uiso   1.00
H573   H     0.64740   0.74683   0.45421   0.00000  Uiso   1.00
H574   H     0.35182   0.91217   0.04329   0.00000  Uiso   1.00
H575   H     0.56855   0.68030   0.25579   0.00000  Uiso   1.00
H576   H     0.43146   0.98637   0.24420   0.00000  Uiso   1.00
N577   N     0.64839   0.84735   0.26212   0.00000  Uiso   1.00
N578   N     0.35161   0.81932   0.23788   0.00000  Uiso   1.00
O579   O     0.46148   0.90476   0.24686   0.00000  Uiso   1.00
O580   O     0.53852   0.76191   0.25314   0.00000  Uiso   1.00
O581   O     0.56163   0.91420   0.25502   0.00000  Uiso   1.00
O582   O     0.43837   0.75247   0.24498   0.00000  Uiso   1.00
O583   O     0.42185   0.82597   0.30855   0.00000  Uiso   1.00
O584   O     0.57815   0.84070   0.19145   0.00000  Uiso   1.00
O585   O     0.52199   0.83540   0.31671   0.00000  Uiso   1.00
O586   O     0.47801   0.83126   0.18329   0.00000  Uiso   1.00
O587   O     0.65667   0.75430   0.03507   0.00000  Uiso   1.00
H588   H     0.64693   0.72162   0.01716   0.00000  Uiso   1.00
O589   O     0.34444   0.89223   0.46132   0.00000  Uiso   1.00
H590   H     0.35845   0.92594   0.47676   0.00000  Uiso   1.00
O591   O     0.47767   0.77589   0.10629   0.00000  Uiso   1.00
C592   C     0.50374   0.73075   0.10265   0.00000  Uiso   1.00
H593   H     0.47707   0.70609   0.13130   0.00000  Uiso   1.00
H594   H     0.55427   0.73988   0.10428   0.00000  Uiso   1.00
C595   C     0.49556   0.69865   0.06036   0.00000  Uiso   1.00
H596   H     0.44547   0.69152   0.05846   0.00000  Uiso   1.00
H597   H     0.52549   0.72131   0.03132   0.00000  Uiso   1.00
C598   C     0.51387   0.97887   0.05890   0.00000  Uiso   1.00
H599   H     0.56350   0.98468   0.06138   0.00000  Uiso   1.00
H600   H     0.50926   0.95735   0.02736   0.00000  Uiso   1.00
H601   H     0.48227   0.95435   0.08637   0.00000  Uiso   1.00
O602   O     0.52501   0.88241   0.39485   0.00000  Uiso   1.00
C603   C     0.50879   0.93000   0.41371   0.00000  Uiso   1.00
H604   H     0.49663   0.92974   0.45034   0.00000  Uiso   1.00
H605   H     0.46778   0.93655   0.40270   0.00000  Uiso   1.00
C606   C     0.56483   0.97599   0.39855   0.00000  Uiso   1.00
H607   H     0.57578   0.97803   0.36212   0.00000  Uiso   1.00
H608   H     0.55207   0.68021   0.41322   0.00000  Uiso   1.00
C609   C     0.62335   0.96981   0.41222   0.00000  Uiso   1.00
H610   H     0.61390   0.96954   0.44864   0.00000  Uiso   1.00
H611   H     0.66372   0.66932   0.40018   0.00000  Uiso   1.00
H612   H     0.63774   0.93311   0.39733   0.00000  Uiso   1.00
O613   O     0.65798   0.91285   0.12675   0.00000  Uiso   1.00
H614   H     0.63146   0.92122   0.15568   0.00000  Uiso   1.00
O615   O     0.33850   0.75661   0.37157   0.00000  Uiso   1.00
H616   H     0.66549   0.78283   0.35341   0.00000  Uiso   1.00
O617   O     0.40021   0.81703   0.08642   0.00000  Uiso   1.00
H618   H     0.35407   0.80276   0.09499   0.00000  Uiso   1.00
O619   O     0.60092   0.83451   0.41372   0.00000  Uiso   1.00
H620   H     0.57294   0.80278   0.40391   0.00000  Uiso   1.00
O621   O     0.33797   0.87760   0.29359   0.00000  Uiso   1.00
H622   H     0.63704   0.89525   0.30938   0.00000  Uiso   1.00
O623   O     0.66201   0.78904   0.20644   0.00000  Uiso   1.00
H624   H     0.36292   0.77137   0.19066   0.00000  Uiso   1.00
C625   C     0.84843   0.93341   0.25139   0.00000  Uiso   1.00
C626   C     0.81824   0.73326   0.24861   0.00000  Uiso   1.00
C627   C     0.75713   0.80656   0.04214   0.00000  Uiso   1.00
C628   C     0.90840   0.84518   0.45734   0.00000  Uiso   1.00
C629   C     0.71634   0.78173   0.01528   0.00000  Uiso   1.00
C630   C     0.94997   0.87012   0.48292   0.00000  Uiso   1.00
C631   C     0.85680   0.98951   0.25201   0.00000  Uiso   1.00
C632   C     0.80988   0.67716   0.24797   0.00000  Uiso   1.00
C633   C     0.79436   0.82780   0.33313   0.00000  Uiso   1.00
C634   C     0.87200   0.83865   0.16700   0.00000  Uiso   1.00
C635   C     0.76945   0.81809   0.38066   0.00000  Uiso   1.00
C636   C     0.89570   0.84693   0.11950   0.00000  Uiso   1.00
C637   C     0.69425   0.77046   0.44187   0.00000  Uiso   1.00
C638   C     0.97175   0.88873   0.05625   0.00000  Uiso   1.00
C639   C     0.71173   0.78223   0.39741   0.00000  Uiso   1.00
C640   C     0.95254   0.88316   0.10164   0.00000  Uiso   1.00
C641   C     0.80819   0.84061   0.40924   0.00000  Uiso   1.00
C642   C     0.85793   0.81993   0.09147   0.00000  Uiso   1.00
C643   C     0.79655   0.81965   0.45143   0.00000  Uiso   1.00
C644   C     0.86902   0.83728   0.04830   0.00000  Uiso   1.00
C645   C     0.73572   0.78917   0.46948   0.00000  Uiso   1.00
C646   C     0.93036   0.86680   0.02909   0.00000  Uiso   1.00
C647   C     0.84267   0.82988   0.47676   0.00000  Uiso   1.00
C648   C     0.82271   0.82384   0.02292   0.00000  Uiso   1.00
Cu649  Cu    0.77404   0.82775   0.24517   0.00000  Uiso   1.00
Cu650  Cu    0.89263   0.83892   0.25484   0.00000  Uiso   1.00
H651   H     0.98073   0.74683   0.45421   0.00000  Uiso   1.00
H652   H     0.68516   0.91217   0.04329   0.00000  Uiso   1.00
H653   H     0.90189   0.68030   0.25579   0.00000  Uiso   1.00
H654   H     0.76479   0.98637   0.24420   0.00000  Uiso   1.00
N655   N     0.98173   0.84735   0.26212   0.00000  Uiso   1.00
N656   N     0.68494   0.81932   0.23788   0.00000  Uiso   1.00
O657   O     0.79482   0.90476   0.24686   0.00000  Uiso   1.00
O658   O     0.87185   0.76191   0.25314   0.00000  Uiso   1.00
O659   O     0.89496   0.91420   0.25502   0.00000  Uiso   1.00
O660   O     0.77171   0.75247   0.24498   0.00000  Uiso   1.00
O661   O     0.75518   0.82597   0.30855   0.00000  Uiso   1.00
O662   O     0.91149   0.84070   0.19145   0.00000  Uiso   1.00
O663   O     0.85532   0.83540   0.31671   0.00000  Uiso   1.00
O664   O     0.81134   0.83126   0.18329   0.00000  Uiso   1.00
O665   O     0.99000   0.75430   0.03507   0.00000  Uiso   1.00
H666   H     0.98026   0.72162   0.01716   0.00000  Uiso   1.00
O667   O     0.67778   0.89223   0.46132   0.00000  Uiso   1.00
H668   H     0.69179   0.92594   0.47676   0.00000  Uiso   1.00
O669   O     0.81101   0.77589   0.10629   0.00000  Uiso   1.00
C670   C     0.83707   0.73075   0.10265   0.00000  Uiso   1.00
H671   H     0.81041   0.70609   0.13130   0.00000  Uiso   1.00
H672   H     0.88761   0.73988   0.10428   0.00000  Uiso   1.00
C673   C     0.82890   0.69865   0.06036   0.00000  Uiso   1.00
H674   H     0.77880   0.69152   0.05846   0.00000  Uiso   1.00
H675   H     0.85883   0.72131   0.03132   0.00000  Uiso   1.00
C676   C     0.84720   0.97887   0.05890   0.00000  Uiso   1.00
H677   H     0.89683   0.98468   0.06138   0.00000  Uiso   1.00
H678   H     0.84260   0.95735   0.02736   0.00000  Uiso   1.00
H679   H     0.81561   0.95435   0.08637   0.00000  Uiso   1.00
O680   O     0.85834   0.88241   0.39485   0.00000  Uiso   1.00
C681   C     0.84212   0.93000   0.41371   0.00000  Uiso   1.00
H682   H     0.82997   0.92974   0.45034   0.00000  Uiso   1.00
H683   H     0.80111   0.93655   0.40270   0.00000  Uiso   1.00
C684   C     0.89816   0.97599   0.39855   0.00000  Uiso   1.00
H685   H     0.90911   0.97803   0.36212   0.00000  Uiso   1.00
H686   H     0.88540   0.68021   0.41322   0.00000  Uiso   1.00
C687   C     0.95669   0.96981   0.41222   0.00000  Uiso   1.00
H688   H     0.94723   0.96954   0.44864   0.00000  Uiso   1.00
H689   H     0.99706   0.66932   0.40018   0.00000  Uiso   1.00
H690   H     0.97108   0.93311   0.39733   0.00000  Uiso   1.00
O691   O     0.99131   0.91285   0.12675   0.00000  Uiso   1.00
H692   H     0.96479   0.92122   0.15568   0.00000  Uiso   1.00
O693   O     0.67184   0.75661   0.37157   0.00000  Uiso   1.00
H694   H     0.99882   0.78283   0.35341   0.00000  Uiso   1.00
O695   O     0.73354   0.81703   0.08642   0.00000  Uiso   1.00
H696   H     0.68740   0.80276   0.09499   0.00000  Uiso   1.00
O697   O     0.93425   0.83451   0.41372   0.00000  Uiso   1.00
H698   H     0.90627   0.80278   0.40391   0.00000  Uiso   1.00
O699   O     0.67130   0.87760   0.29359   0.00000  Uiso   1.00
H700   H     0.97037   0.89525   0.30938   0.00000  Uiso   1.00
O701   O     0.99534   0.78904   0.20644   0.00000  Uiso   1.00
H702   H     0.69625   0.77137   0.19066   0.00000  Uiso   1.00
C703   C     0.18177   0.26674   0.75139   0.00000  Uiso   1.00
C704   C     0.15157   0.06659   0.74861   0.00000  Uiso   1.00
C705   C     0.09046   0.13989   0.54214   0.00000  Uiso   1.00
C706   C     0.24174   0.17852   0.95734   0.00000  Uiso   1.00
C707   C     0.04967   0.11506   0.51528   0.00000  Uiso   1.00
C708   C     0.28330   0.20346   0.98292   0.00000  Uiso   1.00
C709   C     0.19014   0.32284   0.75201   0.00000  Uiso   1.00
C710   C     0.14321   0.01049   0.74797   0.00000  Uiso   1.00
C711   C     0.12769   0.16113   0.83313   0.00000  Uiso   1.00
C712   C     0.20533   0.17198   0.66700   0.00000  Uiso   1.00
C713   C     0.10278   0.15143   0.88066   0.00000  Uiso   1.00
C714   C     0.22903   0.18026   0.61950   0.00000  Uiso   1.00
C715   C     0.02759   0.10380   0.94187   0.00000  Uiso   1.00
C716   C     0.30508   0.22206   0.55625   0.00000  Uiso   1.00
C717   C     0.04506   0.11557   0.89741   0.00000  Uiso   1.00
C718   C     0.28587   0.21649   0.60164   0.00000  Uiso   1.00
C719   C     0.14152   0.17395   0.90924   0.00000  Uiso   1.00
C720   C     0.19127   0.15326   0.59147   0.00000  Uiso   1.00
C721   C     0.12988   0.15298   0.95143   0.00000  Uiso   1.00
C722   C     0.20235   0.17062   0.54830   0.00000  Uiso   1.00
C723   C     0.06905   0.12250   0.96948   0.00000  Uiso   1.00
C724   C     0.26369   0.20013   0.52909   0.00000  Uiso   1.00
C725   C     0.17600   0.16322   0.97676   0.00000  Uiso   1.00
C726   C     0.15605   0.15718   0.52292   0.00000  Uiso   1.00
Cu727  Cu    0.10737   0.16108   0.74517   0.00000  Uiso   1.00
Cu728  Cu    0.22596   0.17225   0.75484   0.00000  Uiso   1.00
H729   H     0.31406   0.08016   0.95421   0.00000  Uiso   1.00
H730   H     0.01849   0.24550   0.54329   0.00000  Uiso   1.00
H731   H     0.23522   0.01363   0.75579   0.00000  Uiso   1.00
H732   H     0.09813   0.31970   0.74420   0.00000  Uiso   1.00
N733   N     0.31506   0.18068   0.76212   0.00000  Uiso   1.00
N734   N     0.01827   0.15265   0.73788   0.00000  Uiso   1.00
O735   O     0.12815   0.23809   0.74686   0.00000  Uiso   1.00
O736   O     0.20518   0.09524   0.75314   0.00000  Uiso   1.00
O737   O     0.22829   0.24753   0.75502   0.00000  Uiso   1.00
O738   O     0.10504   0.08580   0.74498   0.00000  Uiso   1.00
O739   O     0.08851   0.15930   0.80855   0.00000  Uiso   1.00
O740   O     0.24482   0.17403   0.69145   0.00000  Uiso   1.00
O741   O     0.18866   0.16874   0.81671   0.00000  Uiso   1.00
O742   O     0.14468   0.16460   0.68329   0.00000  Uiso   1.00
O743   O     0.32333   0.08763   0.53507   0.00000  Uiso   1.00
H744   H     0.31360   0.05495   0.51716   0.00000  Uiso   1.00
O745   O     0.01111   0.22556   0.96132   0.00000  Uiso   1.00
H746   H     0.02512   0.25927   0.97676   0.00000  Uiso   1.00
O747   O     0.14434   0.10923   0.60629   0.00000  Uiso   1.00
C748   C     0.17040   0.06408   0.60265   0.00000  Uiso   1.00
H749   H     0.14374   0.03942   0.63130   0.00000  Uiso   1.00
H750   H     0.22094   0.07321   0.60428   0.00000  Uiso   1.00
C751   C     0.16223   0.03198   0.56036   0.00000  Uiso   1.00
H752   H     0.11213   0.02485   0.55846   0.00000  Uiso   1.00
H753   H     0.19216   0.05465   0.53132   0.00000  Uiso   1.00
C754   C     0.18053   0.31220   0.55890   0.00000  Uiso   1.00
H755   H     0.23017   0.31801   0.56138   0.00000  Uiso   1.00
H756   H     0.17593   0.29068   0.52736   0.00000  Uiso   1.00
H757   H     0.14894   0.28769   0.58637   0.00000  Uiso   1.00
O758   O     0.19167   0.21574   0.89485   0.00000  Uiso   1.00
C759   C     0.17546   0.26333   0.91371   0.00000  Uiso   1.00
H760   H     0.16330   0.26307   0.95034   0.00000  Uiso   1.00
H761   H     0.13445   0.26988   0.90270   0.00000  Uiso   1.00
C762   C     0.23150   0.30933   0.89855   0.00000  Uiso   1.00
H763   H     0.24244   0.31137   0.86212   0.00000  Uiso   1.00
H764   H     0.21873   0.01354   0.91322   0.00000  Uiso   1.00
C765   C     0.29002   0.30315   0.91222   0.00000  Uiso   1.00
H766   H     0.28056   0.30287   0.94864   0.00000  Uiso   1.00
H767   H     0.33039   0.00266   0.90018   0.00000  Uiso   1.00
H768   H     0.30441   0.26644   0.89733   0.00000  Uiso   1.00
O769   O     0.32464   0.24618   0.62675   0.00000  Uiso   1.00
H770   H     0.29812   0.25456   0.65568   0.00000  Uiso   1.00
O771   O     0.00517   0.08995   0.87157   0.00000  Uiso   1.00
H772   H     0.33215   0.11616   0.85341   0.00000  Uiso   1.00
O773   O     0.06687   0.15037   0.58642   0.00000  Uiso   1.00
H774   H     0.02073   0.13609   0.59499   0.00000  Uiso   1.00
O775   O     0.26758   0.16784   0.91372   0.00000  Uiso   1.00
H776   H     0.23961   0.13611   0.90391   0.00000  Uiso   1.00
O777   O     0.00463   0.21094   0.79359   0.00000  Uiso   1.00
H778   H     0.30370   0.22859   0.80938   0.00000  Uiso   1.00
O779   O     0.32867   0.12237   0.70644   0.00000  Uiso   1.00
H780   H     0.02959   0.10470   0.69066   0.00000  Uiso   1.00
C781   C     0.51510   0.26674   0.75139   0.00000  Uiso   1.00
C782   C     0.48490   0.06659   0.74861   0.00000  Uiso   1.00
C783   C     0.42379   0.13989   0.54214   0.00000  Uiso   1.00
C784   C     0.57507   0.17852   0.95734   0.00000  Uiso   1.00
C785   C     0.38300   0.11506   0.51528   0.00000  Uiso   1.00
C786   C     0.61663   0.20346   0.98292   0.00000  Uiso   1.00
C787   C     0.52347   0.32284   0.75201   0.00000  Uiso   1.00
C788   C     0.47655   0.01049   0.74797   0.00000  Uiso   1.00
C789   C     0.46102   0.16113   0.83313   0.00000  Uiso   1.00
C790   C     0.53867   0.17198   0.66700   0.00000  Uiso   1.00
C791   C     0.43612   0.15143   0.88066   0.00000  Uiso   1.00
C792   C     0.56237   0.18026   0.61950   0.00000  Uiso   1.00
C793   C     0.36092   0.10380   0.94187   0.00000  Uiso   1.00
C794   C     0.63842   0.22206   0.55625   0.00000  Uiso   1.00
C795   C     0.37839   0.11557   0.89741   0.00000  Uiso   1.00
C796   C     0.61920   0.21649   0.60164   0.00000  Uiso   1.00
C797   C     0.47486   0.17395   0.90924   0.00000  Uiso   1.00
C798   C     0.52460   0.15326   0.59147   0.00000  Uiso   1.00
C799   C     0.46322   0.15298   0.95143   0.00000  Uiso   1.00
C800   C     0.53569   0.17062   0.54830   0.00000  Uiso   1.00
C801   C     0.40238   0.12250   0.96948   0.00000  Uiso   1.00
C802   C     0.59703   0.20013   0.52909   0.00000  Uiso   1.00
C803   C     0.50933   0.16322   0.97676   0.00000  Uiso   1.00
C804   C     0.48938   0.15718   0.52292   0.00000  Uiso   1.00
Cu805  Cu    0.44071   0.16108   0.74517   0.00000  Uiso   1.00
Cu806  Cu    0.55929   0.17225   0.75484   0.00000  Uiso   1.00
H807   H     0.64740   0.08016   0.95421   0.00000  Uiso   1.00
H808   H     0.35182   0.24550   0.54329   0.00000  Uiso   1.00
H809   H     0.56855   0.01363   0.75579   0.00000  Uiso   1.00
H810   H     0.43146   0.31970   0.74420   0.00000  Uiso   1.00
N811   N     0.64839   0.18068   0.76212   0.00000  Uiso   1.00
N812   N     0.35161   0.15265   0.73788   0.00000  Uiso   1.00
O813   O     0.46148   0.23809   0.74686   0.00000  Uiso   1.00
O814   O     0.53852   0.09524   0.75314   0.00000  Uiso   1.00
O815   O     0.56163   0.24753   0.75502   0.00000  Uiso   1.00
O816   O     0.43837   0.08580   0.74498   0.00000  Uiso   1.00
O817   O     0.42185   0.15930   0.80855   0.00000  Uiso   1.00
O818   O     0.57815   0.17403   0.69145   0.00000  Uiso   1.00
O819   O     0.52199   0.16874   0.81671   0.00000  Uiso   1.00
O820   O     0.47801   0.16460   0.68329   0.00000  Uiso   1.00
O821   O     0.65667   0.08763   0.53507   0.00000  Uiso   1.00
H822   H     0.64693   0.05495   0.51716   0.00000  Uiso   1.00
O823   O     0.34444   0.22556   0.96132   0.00000  Uiso   1.00
H824   H     0.35845   0.25927   0.97676   0.00000  Uiso   1.00
O825   O     0.47767   0.10923   0.60629   0.00000  Uiso   1.00
C826   C     0.50374   0.06408   0.60265   0.00000  Uiso   1.00
H827   H     0.47707   0.03942   0.63130   0.00000  Uiso   1.00
H828   H     0.55427   0.07321   0.60428   0.00000  Uiso   1.00
C829   C     0.49556   0.03198   0.56036   0.00000  Uiso   1.00
H830   H     0.44547   0.02485   0.55846   0.00000  Uiso   1.00
H831   H     0.52549   0.05465   0.53132   0.00000  Uiso   1.00
C832   C     0.51387   0.31220   0.55890   0.00000  Uiso   1.00
H833   H     0.56350   0.31801   0.56138   0.00000  Uiso   1.00
H834   H     0.50926   0.29068   0.52736   0.00000  Uiso   1.00
H835   H     0.48227   0.28769   0.58637   0.00000  Uiso   1.00
O836   O     0.52501   0.21574   0.89485   0.00000  Uiso   1.00
C837   C     0.50879   0.26333   0.91371   0.00000  Uiso   1.00
H838   H     0.49663   0.26307   0.95034   0.00000  Uiso   1.00
H839   H     0.46778   0.26988   0.90270   0.00000  Uiso   1.00
C840   C     0.56483   0.30933   0.89855   0.00000  Uiso   1.00
H841   H     0.57578   0.31137   0.86212   0.00000  Uiso   1.00
H842   H     0.55207   0.01354   0.91322   0.00000  Uiso   1.00
C843   C     0.62335   0.30315   0.91222   0.00000  Uiso   1.00
H844   H     0.61390   0.30287   0.94864   0.00000  Uiso   1.00
H845   H     0.66372   0.00266   0.90018   0.00000  Uiso   1.00
H846   H     0.63774   0.26644   0.89733   0.00000  Uiso   1.00
O847   O     0.65798   0.24618   0.62675   0.00000  Uiso   1.00
H848   H     0.63146   0.25456   0.65568   0.00000  Uiso   1.00
O849   O     0.33850   0.08995   0.87157   0.00000  Uiso   1.00
H850   H     0.66549   0.11616   0.85341   0.00000  Uiso   1.00
O851   O     0.40021   0.15037   0.58642   0.00000  Uiso   1.00
H852   H     0.35407   0.13609   0.59499   0.00000  Uiso   1.00
O853   O     0.60092   0.16784   0.91372   0.00000  Uiso   1.00
H854   H     0.57294   0.13611   0.90391   0.00000  Uiso   1.00
O855   O     0.33797   0.21094   0.79359   0.00000  Uiso   1.00
H856   H     0.63704   0.22859   0.80938   0.00000  Uiso   1.00
O857   O     0.66201   0.12237   0.70644   0.00000  Uiso   1.00
H858   H     0.36292   0.10470   0.69066   0.00000  Uiso   1.00
C859   C     0.84843   0.26674   0.75139   0.00000  Uiso   1.00
C860   C     0.81824   0.06659   0.74861   0.00000  Uiso   1.00
C861   C     0.75713   0.13989   0.54214   0.00000  Uiso   1.00
C862   C     0.90840   0.17852   0.95734   0.00000  Uiso   1.00
C863   C     0.71634   0.11506   0.51528   0.00000  Uiso   1.00
C864   C     0.94997   0.20346   0.98292   0.00000  Uiso   1.00
C865   C     0.85680   0.32284   0.75201   0.00000  Uiso   1.00
C866   C     0.80988   0.01049   0.74797   0.00000  Uiso   1.00
C867   C     0.79436   0.16113   0.83313   0.00000  Uiso   1.00
C868   C     0.87200   0.17198   0.66700   0.00000  Uiso   1.00
C869   C     0.76945   0.15143   0.88066   0.00000  Uiso   1.00
C870   C     0.89570   0.18026   0.61950   0.00000  Uiso   1.00
C871   C     0.69425   0.10380   0.94187   0.00000  Uiso   1.00
C872   C     0.97175   0.22206   0.55625   0.00000  Uiso   1.00
C873   C     0.71173   0.11557   0.89741   0.00000  Uiso   1.00
C874   C     0.95254   0.21649   0.60164   0.00000  Uiso   1.00
C875   C     0.80819   0.17395   0.90924   0.00000  Uiso   1.00
C876   C     0.85793   0.15326   0.59147   0.00000  Uiso   1.00
C877   C     0.79655   0.15298   0.95143   0.00000  Uiso   1.00
C878   C     0.86902   0.17062   0.54830   0.00000  Uiso   1.00
C879   C     0.73572   0.12250   0.96948   0.00000  Uiso   1.00
C880   C     0.93036   0.20013   0.52909   0.00000  Uiso   1.00
C881   C     0.84267   0.16322   0.97676   0.00000  Uiso   1.00
C882   C     0.82271   0.15718   0.52292   0.00000  Uiso   1.00
Cu883  Cu    0.77404   0.16108   0.74517   0.00000  Uiso   1.00
Cu884  Cu    0.89263   0.17225   0.75484   0.00000  Uiso   1.00
H885   H     0.98073   0.08016   0.95421   0.00000  Uiso   1.00
H886   H     0.68516   0.24550   0.54329   0.00000  Uiso   1.00
H887   H     0.90189   0.01363   0.75579   0.00000  Uiso   1.00
H888   H     0.76479   0.31970   0.74420   0.00000  Uiso   1.00
N889   N     0.98173   0.18068   0.76212   0.00000  Uiso   1.00
N890   N     0.68494   0.15265   0.73788   0.00000  Uiso   1.00
O891   O     0.79482   0.23809   0.74686   0.00000  Uiso   1.00
O892   O     0.87185   0.09524   0.75314   0.00000  Uiso   1.00
O893   O     0.89496   0.24753   0.75502   0.00000  Uiso   1.00
O894   O     0.77171   0.08580   0.74498   0.00000  Uiso   1.00
O895   O     0.75518   0.15930   0.80855   0.00000  Uiso   1.00
O896   O     0.91149   0.17403   0.69145   0.00000  Uiso   1.00
O897   O     0.85532   0.16874   0.81671   0.00000  Uiso   1.00
O898   O     0.81134   0.16460   0.68329   0.00000  Uiso   1.00
O899   O     0.99000   0.08763   0.53507   0.00000  Uiso   1.00
H900   H     0.98026   0.05495   0.51716   0.00000  Uiso   1.00
O901   O     0.67778   0.22556   0.96132   0.00000  Uiso   1.00
H902   H     0.69179   0.25927   0.97676   0.00000  Uiso   1.00
O903   O     0.81101   0.10923   0.60629   0.00000  Uiso   1.00
C904   C     0.83707   0.06408   0.60265   0.00000  Uiso   1.00
H905   H     0.81041   0.03942   0.63130   0.00000  Uiso   1.00
H906   H     0.88761   0.07321   0.60428   0.00000  Uiso   1.00
C907   C     0.82890   0.03198   0.56036   0.00000  Uiso   1.00
H908   H     0.77880   0.02485   0.55846   0.00000  Uiso   1.00
H909   H     0.85883   0.05465   0.53132   0.00000  Uiso   1.00
C910   C     0.84720   0.31220   0.55890   0.00000  Uiso   1.00
H911   H     0.89683   0.31801   0.56138   0.00000  Uiso   1.00
H912   H     0.84260   0.29068   0.52736   0.00000  Uiso   1.00
H913   H     0.81561   0.28769   0.58637   0.00000  Uiso   1.00
O914   O     0.85834   0.21574   0.89485   0.00000  Uiso   1.00
C915   C     0.84212   0.26333   0.91371   0.00000  Uiso   1.00
H916   H     0.82997   0.26307   0.95034   0.00000  Uiso   1.00
H917   H     0.80111   0.26988   0.90270   0.00000  Uiso   1.00
C918   C     0.89816   0.30933   0.89855   0.00000  Uiso   1.00
H919   H     0.90911   0.31137   0.86212   0.00000  Uiso   1.00
H920   H     0.88540   0.01354   0.91322   0.00000  Uiso   1.00
C921   C     0.95669   0.30315   0.91222   0.00000  Uiso   1.00
H922   H     0.94723   0.30287   0.94864   0.00000  Uiso   1.00
H923   H     0.99706   0.00266   0.90018   0.00000  Uiso   1.00
H924   H     0.97108   0.26644   0.89733   0.00000  Uiso   1.00
O925   O     0.99131   0.24618   0.62675   0.00000  Uiso   1.00
H926   H     0.96479   0.25456   0.65568   0.00000  Uiso   1.00
O927   O     0.67184   0.08995   0.87157   0.00000  Uiso   1.00
H928   H     0.99882   0.11616   0.85341   0.00000  Uiso   1.00
O929   O     0.73354   0.15037   0.58642   0.00000  Uiso   1.00
H930   H     0.68740   0.13609   0.59499   0.00000  Uiso   1.00
O931   O     0.93425   0.16784   0.91372   0.00000  Uiso   1.00
H932   H     0.90627   0.13611   0.90391   0.00000  Uiso   1.00
O933   O     0.67130   0.21094   0.79359   0.00000  Uiso   1.00
H934   H     0.97037   0.22859   0.80938   0.00000  Uiso   1.00
O935   O     0.99534   0.12237   0.70644   0.00000  Uiso   1.00
H936   H     0.69625   0.10470   0.69066   0.00000  Uiso   1.00
C937   C     0.18177   0.60007   0.75139   0.00000  Uiso   1.00
C938   C     0.15157   0.39993   0.74861   0.00000  Uiso   1.00
C939   C     0.09046   0.47323   0.54214   0.00000  Uiso   1.00
C940   C     0.24174   0.51185   0.95734   0.00000  Uiso   1.00
C941   C     0.04967   0.44839   0.51528   0.00000  Uiso   1.00
C942   C     0.28330   0.53679   0.98292   0.00000  Uiso   1.00
C943   C     0.19014   0.65617   0.75201   0.00000  Uiso   1.00
C944   C     0.14321   0.34383   0.74797   0.00000  Uiso   1.00
C945   C     0.12769   0.49447   0.83313   0.00000  Uiso   1.00
C946   C     0.20533   0.50531   0.66700   0.00000  Uiso   1.00
C947   C     0.10278   0.48476   0.88066   0.00000  Uiso   1.00
C948   C     0.22903   0.51360   0.61950   0.00000  Uiso   1.00
C949   C     0.02759   0.43713   0.94187   0.00000  Uiso   1.00
C950   C     0.30508   0.55539   0.55625   0.00000  Uiso   1.00
C951   C     0.04506   0.44890   0.89741   0.00000  Uiso   1.00
C952   C     0.28587   0.54983   0.60164   0.00000  Uiso   1.00
C953   C     0.14152   0.50728   0.90924   0.00000  Uiso   1.00
C954   C     0.19127   0.48660   0.59147   0.00000  Uiso   1.00
C955   C     0.12988   0.48631   0.95143   0.00000  Uiso   1.00
C956   C     0.20235   0.50395   0.54830   0.00000  Uiso   1.00
C957   C     0.06905   0.45583   0.96948   0.00000  Uiso   1.00
C958   C     0.26369   0.53347   0.52909   0.00000  Uiso   1.00
C959   C     0.17600   0.49655   0.97676   0.00000  Uiso   1.00
C960   C     0.15605   0.49051   0.52292   0.00000  Uiso   1.00
Cu961  Cu    0.10737   0.49441   0.74517   0.00000  Uiso   1.00
Cu962  Cu    0.22596   0.50559   0.75484   0.00000  Uiso   1.00
H963   H     0.31406   0.41349   0.95421   0.00000  Uiso   1.00
H964   H     0.01849   0.57883   0.54329   0.00000  Uiso   1.00
H965   H     0.23522   0.34696   0.75579   0.00000  Uiso   1.00
H966   H     0.09813   0.65304   0.74420   0.00000  Uiso   1.00
N967   N     0.31506   0.51401   0.76212   0.00000  Uiso   1.00
N968   N     0.01827   0.48599   0.73788   0.00000  Uiso   1.00
O969   O     0.12815   0.57142   0.74686   0.00000  Uiso   1.00
O970   O     0.20518   0.42858   0.75314   0.00000  Uiso   1.00
O971   O     0.22829   0.58086   0.75502   0.00000  Uiso   1.00
O972   O     0.10504   0.41914   0.74498   0.00000  Uiso   1.00
O973   O     0.08851   0.49263   0.80855   0.00000  Uiso   1.00
O974   O     0.24482   0.50737   0.69145   0.00000  Uiso   1.00
O975   O     0.18866   0.50207   0.81671   0.00000  Uiso   1.00
O976   O     0.14468   0.49793   0.68329   0.00000  Uiso   1.00
O977   O     0.32333   0.42097   0.53507   0.00000  Uiso   1.00
H978   H     0.31360   0.38829   0.51716   0.00000  Uiso   1.00
O979   O     0.01111   0.55890   0.96132   0.00000  Uiso   1.00
H980   H     0.02512   0.59260   0.97676   0.00000  Uiso   1.00
O981   O     0.14434   0.44256   0.60629   0.00000  Uiso   1.00
C982   C     0.17040   0.39741   0.60265   0.00000  Uiso   1.00
H983   H     0.14374   0.37275   0.63130   0.00000  Uiso   1.00
H984   H     0.22094   0.40655   0.60428   0.00000  Uiso   1.00
C985   C     0.16223   0.36531   0.56036   0.00000  Uiso   1.00
H986   H     0.11213   0.35819   0.55846   0.00000  Uiso   1.00
H987   H     0.19216   0.38798   0.53132   0.00000  Uiso   1.00
C988   C     0.18053   0.64553   0.55890   0.00000  Uiso   1.00
H989   H     0.23017   0.65134   0.56138   0.00000  Uiso   1.00
H990   H     0.17593   0.62402   0.52736   0.00000  Uiso   1.00
H991   H     0.14894   0.62102   0.58637   0.00000  Uiso   1.00
O992   O     0.19167   0.54908   0.89485   0.00000  Uiso   1.00
C993   C     0.17546   0.59666   0.91371   0.00000  Uiso   1.00
H994   H     0.16330   0.59640   0.95034   0.00000  Uiso   1.00
H995   H     0.13445   0.60321   0.90270   0.00000  Uiso   1.00
C996   C     0.23150   0.64266   0.89855   0.00000  Uiso   1.00
H997   H     0.24244   0.64470   0.86212   0.00000  Uiso   1.00
H998   H     0.21873   0.34688   0.91322   0.00000  Uiso   1.00
C999   C     0.29002   0.63648   0.91222   0.00000  Uiso   1.00
H1000  H     0.28056   0.63621   0.94864   0.00000  Uiso   1.00
H1001  H     0.33039   0.33599   0.90018   0.00000  Uiso   1.00
H1002  H     0.30441   0.59977   0.89733   0.00000  Uiso   1.00
O1003  O     0.32464   0.57952   0.62675   0.00000  Uiso   1.00
H1004  H     0.29812   0.58789   0.65568   0.00000  Uiso   1.00
O1005  O     0.00517   0.42328   0.87157   0.00000  Uiso   1.00
H1006  H     0.33215   0.44950   0.85341   0.00000  Uiso   1.00
O1007  O     0.06687   0.48370   0.58642   0.00000  Uiso   1.00
H1008  H     0.02073   0.46943   0.59499   0.00000  Uiso   1.00
O1009  O     0.26758   0.50118   0.91372   0.00000  Uiso   1.00
H1010  H     0.23961   0.46945   0.90391   0.00000  Uiso   1.00
O1011  O     0.00463   0.54427   0.79359   0.00000  Uiso   1.00
H1012  H     0.30370   0.56192   0.80938   0.00000  Uiso   1.00
O1013  O     0.32867   0.45571   0.70644   0.00000  Uiso   1.00
H1014  H     0.02959   0.43803   0.69066   0.00000  Uiso   1.00
C1015  C     0.51510   0.60007   0.75139   0.00000  Uiso   1.00
C1016  C     0.48490   0.39993   0.74861   0.00000  Uiso   1.00
C1017  C     0.42379   0.47323   0.54214   0.00000  Uiso   1.00
C1018  C     0.57507   0.51185   0.95734   0.00000  Uiso   1.00
C1019  C     0.38300   0.44839   0.51528   0.00000  Uiso   1.00
C1020  C     0.61663   0.53679   0.98292   0.00000  Uiso   1.00
C1021  C     0.52347   0.65617   0.75201   0.00000  Uiso   1.00
C1022  C     0.47655   0.34383   0.74797   0.00000  Uiso   1.00
C1023  C     0.46102   0.49447   0.83313   0.00000  Uiso   1.00
C1024  C     0.53867   0.50531   0.66700   0.00000  Uiso   1.00
C1025  C     0.43612   0.48476   0.88066   0.00000  Uiso   1.00
C1026  C     0.56237   0.51360   0.61950   0.00000  Uiso   1.00
C1027  C     0.36092   0.43713   0.94187   0.00000  Uiso   1.00
C1028  C     0.63842   0.55539   0.55625   0.00000  Uiso   1.00
C1029  C     0.37839   0.44890   0.89741   0.00000  Uiso   1.00
C1030  C     0.61920   0.54983   0.60164   0.00000  Uiso   1.00
C1031  C     0.47486   0.50728   0.90924   0.00000  Uiso   1.00
C1032  C     0.52460   0.48660   0.59147   0.00000  Uiso   1.00
C1033  C     0.46322   0.48631   0.95143   0.00000  Uiso   1.00
C1034  C     0.53569   0.50395   0.54830   0.00000  Uiso   1.00
C1035  C     0.40238   0.45583   0.96948   0.00000  Uiso   1.00
C1036  C     0.59703   0.53347   0.52909   0.00000  Uiso   1.00
C1037  C     0.50933   0.49655   0.97676   0.00000  Uiso   1.00
C1038  C     0.48938   0.49051   0.52292   0.00000  Uiso   1.00
Cu1039 Cu    0.44071   0.49441   0.74517   0.00000  Uiso   1.00
Cu1040 Cu    0.55929   0.50559   0.75484   0.00000  Uiso   1.00
H1041  H     0.64740   0.41349   0.95421   0.00000  Uiso   1.00
H1042  H     0.35182   0.57883   0.54329   0.00000  Uiso   1.00
H1043  H     0.56855   0.34696   0.75579   0.00000  Uiso   1.00
H1044  H     0.43146   0.65304   0.74420   0.00000  Uiso   1.00
N1045  N     0.64839   0.51401   0.76212   0.00000  Uiso   1.00
N1046  N     0.35161   0.48599   0.73788   0.00000  Uiso   1.00
O1047  O     0.46148   0.57142   0.74686   0.00000  Uiso   1.00
O1048  O     0.53852   0.42858   0.75314   0.00000  Uiso   1.00
O1049  O     0.56163   0.58086   0.75502   0.00000  Uiso   1.00
O1050  O     0.43837   0.41914   0.74498   0.00000  Uiso   1.00
O1051  O     0.42185   0.49263   0.80855   0.00000  Uiso   1.00
O1052  O     0.57815   0.50737   0.69145   0.00000  Uiso   1.00
O1053  O     0.52199   0.50207   0.81671   0.00000  Uiso   1.00
O1054  O     0.47801   0.49793   0.68329   0.00000  Uiso   1.00
O1055  O     0.65667   0.42097   0.53507   0.00000  Uiso   1.00
H1056  H     0.64693   0.38829   0.51716   0.00000  Uiso   1.00
O1057  O     0.34444   0.55890   0.96132   0.00000  Uiso   1.00
H1058  H     0.35845   0.59260   0.97676   0.00000  Uiso   1.00
O1059  O     0.47767   0.44256   0.60629   0.00000  Uiso   1.00
C1060  C     0.50374   0.39741   0.60265   0.00000  Uiso   1.00
H1061  H     0.47707   0.37275   0.63130   0.00000  Uiso   1.00
H1062  H     0.55427   0.40655   0.60428   0.00000  Uiso   1.00
C1063  C     0.49556   0.36531   0.56036   0.00000  Uiso   1.00
H1064  H     0.44547   0.35819   0.55846   0.00000  Uiso   1.00
H1065  H     0.52549   0.38798   0.53132   0.00000  Uiso   1.00
C1066  C     0.51387   0.64553   0.55890   0.00000  Uiso   1.00
H1067  H     0.56350   0.65134   0.56138   0.00000  Uiso   1.00
H1068  H     0.50926   0.62402   0.52736   0.00000  Uiso   1.00
H1069  H     0.48227   0.62102   0.58637   0.00000  Uiso   1.00
O1070  O     0.52501   0.54908   0.89485   0.00000  Uiso   1.00
C1071  C     0.50879   0.59666   0.91371   0.00000  Uiso   1.00
H1072  H     0.49663   0.59640   0.95034   0.00000  Uiso   1.00
H1073  H     0.46778   0.60321   0.90270   0.00000  Uiso   1.00
C1074  C     0.56483   0.64266   0.89855   0.00000  Uiso   1.00
H1075  H     0.57578   0.64470   0.86212   0.00000  Uiso   1.00
H1076  H     0.55207   0.34688   0.91322   0.00000  Uiso   1.00
C1077  C     0.62335   0.63648   0.91222   0.00000  Uiso   1.00
H1078  H     0.61390   0.63621   0.94864   0.00000  Uiso   1.00
H1079  H     0.66372   0.33599   0.90018   0.00000  Uiso   1.00
H1080  H     0.63774   0.59977   0.89733   0.00000  Uiso   1.00
O1081  O     0.65798   0.57952   0.62675   0.00000  Uiso   1.00
H1082  H     0.63146   0.58789   0.65568   0.00000  Uiso   1.00
O1083  O     0.33850   0.42328   0.87157   0.00000  Uiso   1.00
H1084  H     0.66549   0.44950   0.85341   0.00000  Uiso   1.00
O1085  O     0.40021   0.48370   0.58642   0.00000  Uiso   1.00
H1086  H     0.35407   0.46943   0.59499   0.00000  Uiso   1.00
O1087  O     0.60092   0.50118   0.91372   0.00000  Uiso   1.00
H1088  H     0.57294   0.46945   0.90391   0.00000  Uiso   1.00
O1089  O     0.33797   0.54427   0.79359   0.00000  Uiso   1.00
H1090  H     0.63704   0.56192   0.80938   0.00000  Uiso   1.00
O1091  O     0.66201   0.45571   0.70644   0.00000  Uiso   1.00
H1092  H     0.36292   0.43803   0.69066   0.00000  Uiso   1.00
C1093  C     0.84843   0.60007   0.75139   0.00000  Uiso   1.00
C1094  C     0.81824   0.39993   0.74861   0.00000  Uiso   1.00
C1095  C     0.75713   0.47323   0.54214   0.00000  Uiso   1.00
C1096  C     0.90840   0.51185   0.95734   0.00000  Uiso   1.00
C1097  C     0.71634   0.44839   0.51528   0.00000  Uiso   1.00
C1098  C     0.94997   0.53679   0.98292   0.00000  Uiso   1.00
C1099  C     0.85680   0.65617   0.75201   0.00000  Uiso   1.00
C1100  C     0.80988   0.34383   0.74797   0.00000  Uiso   1.00
C1101  C     0.79436   0.49447   0.83313   0.00000  Uiso   1.00
C1102  C     0.87200   0.50531   0.66700   0.00000  Uiso   1.00
C1103  C     0.76945   0.48476   0.88066   0.00000  Uiso   1.00
C1104  C     0.89570   0.51360   0.61950   0.00000  Uiso   1.00
C1105  C     0.69425   0.43713   0.94187   0.00000  Uiso   1.00
C1106  C     0.97175   0.55539   0.55625   0.00000  Uiso   1.00
C1107  C     0.71173   0.44890   0.89741   0.00000  Uiso   1.00
C1108  C     0.95254   0.54983   0.60164   0.00000  Uiso   1.00
C1109  C     0.80819   0.50728   0.90924   0.00000  Uiso   1.00
C1110  C     0.85793   0.48660   0.59147   0.00000  Uiso   1.00
C1111  C     0.79655   0.48631   0.95143   0.00000  Uiso   1.00
C1112  C     0.86902   0.50395   0.54830   0.00000  Uiso   1.00
C1113  C     0.73572   0.45583   0.96948   0.00000  Uiso   1.00
C1114  C     0.93036   0.53347   0.52909   0.00000  Uiso   1.00
C1115  C     0.84267   0.49655   0.97676   0.00000  Uiso   1.00
C1116  C     0.82271   0.49051   0.52292   0.00000  Uiso   1.00
Cu1117 Cu    0.77404   0.49441   0.74517   0.00000  Uiso   1.00
Cu1118 Cu    0.89263   0.50559   0.75484   0.00000  Uiso   1.00
H1119  H     0.98073   0.41349   0.95421   0.00000  Uiso   1.00
H1120  H     0.68516   0.57883   0.54329   0.00000  Uiso   1.00
H1121  H     0.90189   0.34696   0.75579   0.00000  Uiso   1.00
H1122  H     0.76479   0.65304   0.74420   0.00000  Uiso   1.00
N1123  N     0.98173   0.51401   0.76212   0.00000  Uiso   1.00
N1124  N     0.68494   0.48599   0.73788   0.00000  Uiso   1.00
O1125  O     0.79482   0.57142   0.74686   0.00000  Uiso   1.00
O1126  O     0.87185   0.42858   0.75314   0.00000  Uiso   1.00
O1127  O     0.89496   0.58086   0.75502   0.00000  Uiso   1.00
O1128  O     0.77171   0.41914   0.74498   0.00000  Uiso   1.00
O1129  O     0.75518   0.49263   0.80855   0.00000  Uiso   1.00
O1130  O     0.91149   0.50737   0.69145   0.00000  Uiso   1.00
O1131  O     0.85532   0.50207   0.81671   0.00000  Uiso   1.00
O1132  O     0.81134   0.49793   0.68329   0.00000  Uiso   1.00
O1133  O     0.99000   0.42097   0.53507   0.00000  Uiso   1.00
H1134  H     0.98026   0.38829   0.51716   0.00000  Uiso   1.00
O1135  O     0.67778   0.55890   0.96132   0.00000  Uiso   1.00
H1136  H     0.69179   0.59260   0.97676   0.00000  Uiso   1.00
O1137  O     0.81101   0.44256   0.60629   0.00000  Uiso   1.00
C1138  C     0.83707   0.39741   0.60265   0.00000  Uiso   1.00
H1139  H     0.81041   0.37275   0.63130   0.00000  Uiso   1.00
H1140  H     0.88761   0.40655   0.60428   0.00000  Uiso   1.00
C1141  C     0.82890   0.36531   0.56036   0.00000  Uiso   1.00
H1142  H     0.77880   0.35819   0.55846   0.00000  Uiso   1.00
H1143  H     0.85883   0.38798   0.53132   0.00000  Uiso   1.00
C1144  C     0.84720   0.64553   0.55890   0.00000  Uiso   1.00
H1145  H     0.89683   0.65134   0.56138   0.00000  Uiso   1.00
H1146  H     0.84260   0.62402   0.52736   0.00000  Uiso   1.00
H1147  H     0.81561   0.62102   0.58637   0.00000  Uiso   1.00
O1148  O     0.85834   0.54908   0.89485   0.00000  Uiso   1.00
C1149  C     0.84212   0.59666   0.91371   0.00000  Uiso   1.00
H1150  H     0.82997   0.59640   0.95034   0.00000  Uiso   1.00
H1151  H     0.80111   0.60321   0.90270   0.00000  Uiso   1.00
C1152  C     0.89816   0.64266   0.89855   0.00000  Uiso   1.00
H1153  H     0.90911   0.64470   0.86212   0.00000  Uiso   1.00
H1154  H     0.88540   0.34688   0.91322   0.00000  Uiso   1.00
C1155  C     0.95669   0.63648   0.91222   0.00000  Uiso   1.00
H1156  H     0.94723   0.63621   0.94864   0.00000  Uiso   1.00
H1157  H     0.99706   0.33599   0.90018   0.00000  Uiso   1.00
H1158  H     0.97108   0.59977   0.89733   0.00000  Uiso   1.00
O1159  O     0.99131   0.57952   0.62675   0.00000  Uiso   1.00
H1160  H     0.96479   0.58789   0.65568   0.00000  Uiso   1.00
O1161  O     0.67184   0.42328   0.87157   0.00000  Uiso   1.00
H1162  H     0.99882   0.44950   0.85341   0.00000  Uiso   1.00
O1163  O     0.73354   0.48370   0.58642   0.00000  Uiso   1.00
H1164  H     0.68740   0.46943   0.59499   0.00000  Uiso   1.00
O1165  O     0.93425   0.50118   0.91372   0.00000  Uiso   1.00
H1166  H     0.90627   0.46945   0.90391   0.00000  Uiso   1.00
O1167  O     0.67130   0.54427   0.79359   0.00000  Uiso   1.00
H1168  H     0.97037   0.56192   0.80938   0.00000  Uiso   1.00
O1169  O     0.99534   0.45571   0.70644   0.00000  Uiso   1.00
H1170  H     0.69625   0.43803   0.69066   0.00000  Uiso   1.00
C1171  C     0.18177   0.93341   0.75139   0.00000  Uiso   1.00
C1172  C     0.15157   0.73326   0.74861   0.00000  Uiso   1.00
C1173  C     0.09046   0.80656   0.54214   0.00000  Uiso   1.00
C1174  C     0.24174   0.84518   0.95734   0.00000  Uiso   1.00
C1175  C     0.04967   0.78173   0.51528   0.00000  Uiso   1.00
C1176  C     0.28330   0.87012   0.98292   0.00000  Uiso   1.00
C1177  C     0.19014   0.98951   0.75201   0.00000  Uiso   1.00
C1178  C     0.14321   0.67716   0.74797   0.00000  Uiso   1.00
C1179  C     0.12769   0.82780   0.83313   0.00000  Uiso   1.00
C1180  C     0.20533   0.83865   0.66700   0.00000  Uiso   1.00
C1181  C     0.10278   0.81809   0.88066   0.00000  Uiso   1.00
C1182  C     0.22903   0.84693   0.61950   0.00000  Uiso   1.00
C1183  C     0.02759   0.77046   0.94187   0.00000  Uiso   1.00
C1184  C     0.30508   0.88873   0.55625   0.00000  Uiso   1.00
C1185  C     0.04506   0.78223   0.89741   0.00000  Uiso   1.00
C1186  C     0.28587   0.88316   0.60164   0.00000  Uiso   1.00
C1187  C     0.14152   0.84061   0.90924   0.00000  Uiso   1.00
C1188  C     0.19127   0.81993   0.59147   0.00000  Uiso   1.00
C1189  C     0.12988   0.81965   0.95143   0.00000  Uiso   1.00
C1190  C     0.20235   0.83728   0.54830   0.00000  Uiso   1.00
C1191  C     0.06905   0.78917   0.96948   0.00000  Uiso   1.00
C1192  C     0.26369   0.86680   0.52909   0.00000  Uiso   1.00
C1193  C     0.17600   0.82988   0.97676   0.00000  Uiso   1.00
C1194  C     0.15605   0.82384   0.52292   0.00000  Uiso   1.00
Cu1195 Cu    0.10737   0.82775   0.74517   0.00000  Uiso   1.00
Cu1196 Cu    0.22596   0.83892   0.75484   0.00000  Uiso   1.00
H1197  H     0.31406   0.74683   0.95421   0.00000  Uiso   1.00
H1198  H     0.01849   0.91217   0.54329   0.00000  Uiso   1.00
H1199  H     0.23522   0.68030   0.75579   0.00000  Uiso   1.00
H1200  H     0.09813   0.98637   0.74420   0.00000  Uiso   1.00
N1201  N     0.31506   0.84735   0.76212   0.00000  Uiso   1.00
N1202  N     0.01827   0.81932   0.73788   0.00000  Uiso   1.00
O1203  O     0.12815   0.90476   0.74686   0.00000  Uiso   1.00
O1204  O     0.20518   0.76191   0.75314   0.00000  Uiso   1.00
O1205  O     0.22829   0.91420   0.75502   0.00000  Uiso   1.00
O1206  O     0.10504   0.75247   0.74498   0.00000  Uiso   1.00
O1207  O     0.08851   0.82597   0.80855   0.00000  Uiso   1.00
O1208  O     0.24482   0.84070   0.69145   0.00000  Uiso   1.00
O1209  O     0.18866   0.83540   0.81671   0.00000  Uiso   1.00
O1210  O     0.14468   0.83126   0.68329   0.00000  Uiso   1.00
O1211  O     0.32333   0.75430   0.53507   0.00000  Uiso   1.00
H1212  H     0.31360   0.72162   0.51716   0.00000  Uiso   1.00
O1213  O     0.01111   0.89223   0.96132   0.00000  Uiso   1.00
H1214  H     0.02512   0.92594   0.97676   0.00000  Uiso   1.00
O1215  O     0.14434   0.77589   0.60629   0.00000  Uiso   1.00
C1216  C     0.17040   0.73075   0.60265   0.00000  Uiso   1.00
H1217  H     0.14374   0.70609   0.63130   0.00000  Uiso   1.00
H1218  H     0.22094   0.73988   0.60428   0.00000  Uiso   1.00
C1219  C     0.16223   0.69865   0.56036   0.00000  Uiso   1.00
H1220  H     0.11213   0.69152   0.55846   0.00000  Uiso   1.00
H1221  H     0.19216   0.72131   0.53132   0.00000  Uiso   1.00
C1222  C     0.18053   0.97887   0.55890   0.00000  Uiso   1.00
H1223  H     0.23017   0.98468   0.56138   0.00000  Uiso   1.00
H1224  H     0.17593   0.95735   0.52736   0.00000  Uiso   1.00
H1225  H     0.14894   0.95435   0.58637   0.00000  Uiso   1.00
O1226  O     0.19167   0.88241   0.89485   0.00000  Uiso   1.00
C1227  C     0.17546   0.93000   0.91371   0.00000  Uiso   1.00
H1228  H     0.16330   0.92974   0.95034   0.00000  Uiso   1.00
H1229  H     0.13445   0.93655   0.90270   0.00000  Uiso   1.00
C1230  C     0.23150   0.97599   0.89855   0.00000  Uiso   1.00
H1231  H     0.24244   0.97803   0.86212   0.00000  Uiso   1.00
H1232  H     0.21873   0.68021   0.91322   0.00000  Uiso   1.00
C1233  C     0.29002   0.96981   0.91222   0.00000  Uiso   1.00
H1234  H     0.28056   0.96954   0.94864   0.00000  Uiso   1.00
H1235  H     0.33039   0.66932   0.90018   0.00000  Uiso   1.00
H1236  H     0.30441   0.93311   0.89733   0.00000  Uiso   1.00
O1237  O     0.32464   0.91285   0.62675   0.00000  Uiso   1.00
H1238  H     0.29812   0.92122   0.65568   0.00000  Uiso   1.00
O1239  O     0.00517   0.75661   0.87157   0.00000  Uiso   1.00
H1240  H     0.33215   0.78283   0.85341   0.00000  Uiso   1.00
O1241  O     0.06687   0.81703   0.58642   0.00000  Uiso   1.00
H1242  H     0.02073   0.80276   0.59499   0.00000  Uiso   1.00
O1243  O     0.26758   0.83451   0.91372   0.00000  Uiso   1.00
H1244  H     0.23961   0.80278   0.90391   0.00000  Uiso   1.00
O1245  O     0.00463   0.87760   0.79359   0.00000  Uiso   1.00
H1246  H     0.30370   0.89525   0.80938   0.00000  Uiso   1.00
O1247  O     0.32867   0.78904   0.70644   0.00000  Uiso   1.00
H1248  H     0.02959   0.77137   0.69066   0.00000  Uiso   1.00
C1249  C     0.51510   0.93341   0.75139   0.00000  Uiso   1.00
C1250  C     0.48490   0.73326   0.74861   0.00000  Uiso   1.00
C1251  C     0.42379   0.80656   0.54214   0.00000  Uiso   1.00
C1252  C     0.57507   0.84518   0.95734   0.00000  Uiso   1.00
C1253  C     0.38300   0.78173   0.51528   0.00000  Uiso   1.00
C1254  C     0.61663   0.87012   0.98292   0.00000  Uiso   1.00
C1255  C     0.52347   0.98951   0.75201   0.00000  Uiso   1.00
C1256  C     0.47655   0.67716   0.74797   0.00000  Uiso   1.00
C1257  C     0.46102   0.82780   0.83313   0.00000  Uiso   1.00
C1258  C     0.53867   0.83865   0.66700   0.00000  Uiso   1.00
C1259  C     0.43612   0.81809   0.88066   0.00000  Uiso   1.00
C1260  C     0.56237   0.84693   0.61950   0.00000  Uiso   1.00
C1261  C     0.36092   0.77046   0.94187   0.00000  Uiso   1.00
C1262  C     0.63842   0.88873   0.55625   0.00000  Uiso   1.00
C1263  C     0.37839   0.78223   0.89741   0.00000  Uiso   1.00
C1264  C     0.61920   0.88316   0.60164   0.00000  Uiso   1.00
C1265  C     0.47486   0.84061   0.90924   0.00000  Uiso   1.00
C1266  C     0.52460   0.81993   0.59147   0.00000  Uiso   1.00
C1267  C     0.46322   0.81965   0.95143   0.00000  Uiso   1.00
C1268  C     0.53569   0.83728   0.54830   0.00000  Uiso   1.00
C1269  C     0.40238   0.78917   0.96948   0.00000  Uiso   1.00
C1270  C     0.59703   0.86680   0.52909   0.00000  Uiso   1.00
C1271  C     0.50933   0.82988   0.97676   0.00000  Uiso   1.00
C1272  C     0.48938   0.82384   0.52292   0.00000  Uiso   1.00
Cu1273 Cu    0.44071   0.82775   0.74517   0.00000  Uiso   1.00
Cu1274 Cu    0.55929   0.83892   0.75484   0.00000  Uiso   1.00
H1275  H     0.64740   0.74683   0.95421   0.00000  Uiso   1.00
H1276  H     0.35182   0.91217   0.54329   0.00000  Uiso   1.00
H1277  H     0.56855   0.68030   0.75579   0.00000  Uiso   1.00
H1278  H     0.43146   0.98637   0.74420   0.00000  Uiso   1.00
N1279  N     0.64839   0.84735   0.76212   0.00000  Uiso   1.00
N1280  N     0.35161   0.81932   0.73788   0.00000  Uiso   1.00
O1281  O     0.46148   0.90476   0.74686   0.00000  Uiso   1.00
O1282  O     0.53852   0.76191   0.75314   0.00000  Uiso   1.00
O1283  O     0.56163   0.91420   0.75502   0.00000  Uiso   1.00
O1284  O     0.43837   0.75247   0.74498   0.00000  Uiso   1.00
O1285  O     0.42185   0.82597   0.80855   0.00000  Uiso   1.00
O1286  O     0.57815   0.84070   0.69145   0.00000  Uiso   1.00
O1287  O     0.52199   0.83540   0.81671   0.00000  Uiso   1.00
O1288  O     0.47801   0.83126   0.68329   0.00000  Uiso   1.00
O1289  O     0.65667   0.75430   0.53507   0.00000  Uiso   1.00
H1290  H     0.64693   0.72162   0.51716   0.00000  Uiso   1.00
O1291  O     0.34444   0.89223   0.96132   0.00000  Uiso   1.00
H1292  H     0.35845   0.92594   0.97676   0.00000  Uiso   1.00
O1293  O     0.47767   0.77589   0.60629   0.00000  Uiso   1.00
C1294  C     0.50374   0.73075   0.60265   0.00000  Uiso   1.00
H1295  H     0.47707   0.70609   0.63130   0.00000  Uiso   1.00
H1296  H     0.55427   0.73988   0.60428   0.00000  Uiso   1.00
C1297  C     0.49556   0.69865   0.56036   0.00000  Uiso   1.00
H1298  H     0.44547   0.69152   0.55846   0.00000  Uiso   1.00
H1299  H     0.52549   0.72131   0.53132   0.00000  Uiso   1.00
C1300  C     0.51387   0.97887   0.55890   0.00000  Uiso   1.00
H1301  H     0.56350   0.98468   0.56138   0.00000  Uiso   1.00
H1302  H     0.50926   0.95735   0.52736   0.00000  Uiso   1.00
H1303  H     0.48227   0.95435   0.58637   0.00000  Uiso   1.00
O1304  O     0.52501   0.88241   0.89485   0.00000  Uiso   1.00
C1305  C     0.50879   0.93000   0.91371   0.00000  Uiso   1.00
H1306  H     0.49663   0.92974   0.95034   0.00000  Uiso   1.00
H1307  H     0.46778   0.93655   0.90270   0.00000  Uiso   1.00
C1308  C     0.56483   0.97599   0.89855   0.00000  Uiso   1.00
H1309  H     0.57578   0.97803   0.86212   0.00000  Uiso   1.00
H1310  H     0.55207   0.68021   0.91322   0.00000  Uiso   1.00
C1311  C     0.62335   0.96981   0.91222   0.00000  Uiso   1.00
H1312  H     0.61390   0.96954   0.94864   0.00000  Uiso   1.00
H1313  H     0.66372   0.66932   0.90018   0.00000  Uiso   1.00
H1314  H     0.63774   0.93311   0.89733   0.00000  Uiso   1.00
O1315  O     0.65798   0.91285   0.62675   0.00000  Uiso   1.00
H1316  H     0.63146   0.92122   0.65568   0.00000  Uiso   1.00
O1317  O     0.33850   0.75661   0.87157   0.00000  Uiso   1.00
H1318  H     0.66549   0.78283   0.85341   0.00000  Uiso   1.00
O1319  O     0.40021   0.81703   0.58642   0.00000  Uiso   1.00
H1320  H     0.35407   0.80276   0.59499   0.00000  Uiso   1.00
O1321  O     0.60092   0.83451   0.91372   0.00000  Uiso   1.00
H1322  H     0.57294   0.80278   0.90391   0.00000  Uiso   1.00
O1323  O     0.33797   0.87760   0.79359   0.00000  Uiso   1.00
H1324  H     0.63704   0.89525   0.80938   0.00000  Uiso   1.00
O1325  O     0.66201   0.78904   0.70644   0.00000  Uiso   1.00
H1326  H     0.36292   0.77137   0.69066   0.00000  Uiso   1.00
C1327  C     0.84843   0.93341   0.75139   0.00000  Uiso   1.00
C1328  C     0.81824   0.73326   0.74861   0.00000  Uiso   1.00
C1329  C     0.75713   0.80656   0.54214   0.00000  Uiso   1.00
C1330  C     0.90840   0.84518   0.95734   0.00000  Uiso   1.00
C1331  C     0.71634   0.78173   0.51528   0.00000  Uiso   1.00
C1332  C     0.94997   0.87012   0.98292   0.00000  Uiso   1.00
C1333  C     0.85680   0.98951   0.75201   0.00000  Uiso   1.00
C1334  C     0.80988   0.67716   0.74797   0.00000  Uiso   1.00
C1335  C     0.79436   0.82780   0.83313   0.00000  Uiso   1.00
C1336  C     0.87200   0.83865   0.66700   0.00000  Uiso   1.00
C1337  C     0.76945   0.81809   0.88066   0.00000  Uiso   1.00
C1338  C     0.89570   0.84693   0.61950   0.00000  Uiso   1.00
C1339  C     0.69425   0.77046   0.94187   0.00000  Uiso   1.00
C1340  C     0.97175   0.88873   0.55625   0.00000  Uiso   1.00
C1341  C     0.71173   0.78223   0.89741   0.00000  Uiso   1.00
C1342  C     0.95254   0.88316   0.60164   0.00000  Uiso   1.00
C1343  C     0.80819   0.84061   0.90924   0.00000  Uiso   1.00
C1344  C     0.85793   0.81993   0.59147   0.00000  Uiso   1.00
C1345  C     0.79655   0.81965   0.95143   0.00000  Uiso   1.00
C1346  C     0.86902   0.83728   0.54830   0.00000  Uiso   1.00
C1347  C     0.73572   0.78917   0.96948   0.00000  Uiso   1.00
C1348  C     0.93036   0.86680   0.52909   0.00000  Uiso   1.00
C1349  C     0.84267   0.82988   0.97676   0.00000  Uiso   1.00
C1350  C     0.82271   0.82384   0.52292   0.00000  Uiso   1.00
Cu1351 Cu    0.77404   0.82775   0.74517   0.00000  Uiso   1.00
Cu1352 Cu    0.89263   0.83892   0.75484   0.00000  Uiso   1.00
H1353  H     0.98073   0.74683   0.95421   0.00000  Uiso   1.00
H1354  H     0.68516   0.91217   0.54329   0.00000  Uiso   1.00
H1355  H     0.90189   0.68030   0.75579   0.00000  Uiso   1.00
H1356  H     0.76479   0.98637   0.74420   0.00000  Uiso   1.00
N1357  N     0.98173   0.84735   0.76212   0.00000  Uiso   1.00
N1358  N     0.68494   0.81932   0.73788   0.00000  Uiso   1.00
O1359  O     0.79482   0.90476   0.74686   0.00000  Uiso   1.00
O1360  O     0.87185   0.76191   0.75314   0.00000  Uiso   1.00
O1361  O     0.89496   0.91420   0.75502   0.00000  Uiso   1.00
O1362  O     0.77171   0.75247   0.74498   0.00000  Uiso   1.00
O1363  O     0.75518   0.82597   0.80855   0.00000  Uiso   1.00
O1364  O     0.91149   0.84070   0.69145   0.00000  Uiso   1.00
O1365  O     0.85532   0.83540   0.81671   0.00000  Uiso   1.00
O1366  O     0.81134   0.83126   0.68329   0.00000  Uiso   1.00
O1367  O     0.99000   0.75430   0.53507   0.00000  Uiso   1.00
H1368  H     0.98026   0.72162   0.51716   0.00000  Uiso   1.00
O1369  O     0.67778   0.89223   0.96132   0.00000  Uiso   1.00
H1370  H     0.69179   0.92594   0.97676   0.00000  Uiso   1.00
O1371  O     0.81101   0.77589   0.60629   0.00000  Uiso   1.00
C1372  C     0.83707   0.73075   0.60265   0.00000  Uiso   1.00
H1373  H     0.81041   0.70609   0.63130   0.00000  Uiso   1.00
H1374  H     0.88761   0.73988   0.60428   0.00000  Uiso   1.00
C1375  C     0.82890   0.69865   0.56036   0.00000  Uiso   1.00
H1376  H     0.77880   0.69152   0.55846   0.00000  Uiso   1.00
H1377  H     0.85883   0.72131   0.53132   0.00000  Uiso   1.00
C1378  C     0.84720   0.97887   0.55890   0.00000  Uiso   1.00
H1379  H     0.89683   0.98468   0.56138   0.00000  Uiso   1.00
H1380  H     0.84260   0.95735   0.52736   0.00000  Uiso   1.00
H1381  H     0.81561   0.95435   0.58637   0.00000  Uiso   1.00
O1382  O     0.85834   0.88241   0.89485   0.00000  Uiso   1.00
C1383  C     0.84212   0.93000   0.91371   0.00000  Uiso   1.00
H1384  H     0.82997   0.92974   0.95034   0.00000  Uiso   1.00
H1385  H     0.80111   0.93655   0.90270   0.00000  Uiso   1.00
C1386  C     0.89816   0.97599   0.89855   0.00000  Uiso   1.00
H1387  H     0.90911   0.97803   0.86212   0.00000  Uiso   1.00
H1388  H     0.88540   0.68021   0.91322   0.00000  Uiso   1.00
C1389  C     0.95669   0.96981   0.91222   0.00000  Uiso   1.00
H1390  H     0.94723   0.96954   0.94864   0.00000  Uiso   1.00
H1391  H     0.99706   0.66932   0.90018   0.00000  Uiso   1.00
H1392  H     0.97108   0.93311   0.89733   0.00000  Uiso   1.00
O1393  O     0.99131   0.91285   0.62675   0.00000  Uiso   1.00
H1394  H     0.96479   0.92122   0.65568   0.00000  Uiso   1.00
O1395  O     0.67184   0.75661   0.87157   0.00000  Uiso   1.00
H1396  H     0.99882   0.78283   0.85341   0.00000  Uiso   1.00
O1397  O     0.73354   0.81703   0.58642   0.00000  Uiso   1.00
H1398  H     0.68740   0.80276   0.59499   0.00000  Uiso   1.00
O1399  O     0.93425   0.83451   0.91372   0.00000  Uiso   1.00
H1400  H     0.90627   0.80278   0.90391   0.00000  Uiso   1.00
O1401  O     0.67130   0.87760   0.79359   0.00000  Uiso   1.00
H1402  H     0.97037   0.89525   0.80938   0.00000  Uiso   1.00
O1403  O     0.99534   0.78904   0.70644   0.00000  Uiso   1.00
H1404  H     0.69625   0.77137   0.69066   0.00000  Uiso   1.00
loop_
_geom_bond_atom_site_label_1
_geom_bond_atom_site_label_2
_geom_bond_distance
_geom_bond_site_symmetry_2
_ccdc_geom_bond_type
C1     O33     1.293   .     A
C1     O35     1.293   .     A
C1     C7      1.430   .     S
C2     O34     1.293   .     A
C2     O36     1.293   .     A
C2     C8      1.430   .     S
C3     O71     1.384   .     S
C3     C24     1.422   .     A
C3     C5      1.409   .     A
C4     C6      1.394   .     A
C4     C23     1.421   .     A
C4     O73     1.377   .     S
C5     C723    1.412   1_554 S
C5     O197    1.379   1_455 S
C6     C724    1.410   .     S
C6     O121    1.380   .     S
C7     C242    1.332   .     S
C7     H263    1.088   .     S
C8     C475    1.332   1_545 S
C8     H498    1.088   1_545 S
C9     O39     1.308   .     A
C9     O37     1.301   .     A
C9     C11     1.479   .     S
C10    O40     1.301   .     A
C10    C12     1.470   .     S
C10    O38     1.302   .     A
C11    C15     1.416   .     A
C11    C17     1.404   .     A
C12    C16     1.415   .     A
C12    C18     1.406   .     A
C13    C21     1.406   .     A
C13    C15     1.395   .     A
C13    H183    1.081   1_455 S
C14    C16     1.392   .     A
C14    C22     1.409   .     A
C14    H106    1.080   .     S
C15    O69     1.378   .     S
C16    O67     1.379   .     S
C17    O56     1.384   .     S
C17    C19     1.420   .     A
C18    O45     1.388   .     S
C18    C20     1.413   .     A
C19    C21     1.413   .     A
C19    C23     1.424   .     A
C20    C24     1.428   .     A
C20    C22     1.420   .     A
C21    C707    1.412   .     S
C22    C708    1.410   1_554 S
C23    C726    1.418   .     S
C24    C725    1.418   1_554 S
Cu25   O40     1.913   .     S
Cu25   O37     1.931   .     S
Cu25   N32     2.029   .     S
Cu25   Cu26    2.700   .     S
Cu25   O36     1.951   .     S
Cu25   O33     1.952   .     S
Cu26   O39     1.913   .     S
Cu26   O34     1.952   .     S
Cu26   N31     2.029   .     S
Cu26   O38     1.931   .     S
Cu26   O35     1.951   .     S
H27    C91     1.081   .     S
H28    C170    1.080   1_455 S
H29    C475    1.088   1_545 S
H30    C242    1.088   .     S
N31    N110    1.284   .     S
N31    O153    1.339   .     S
N32    N187    1.284   1_455 S
N32    O233    1.339   1_455 S
O41    H42     0.990   .     S
O41    C83     1.379   .     S
O43    H44     0.989   .     S
O43    C162    1.380   1_455 S
O45    C46     1.416   .     S
C46    C49     1.533   .     S
C46    H48     1.116   .     S
C46    H47     1.111   .     S
C49    H51     1.111   .     S
C49    H50     1.112   .     S
C49    C520    1.528   1_545 S
C52    H55     1.111   .     S
C52    H54     1.110   .     S
C52    H53     1.110   .     S
C52    C283    1.528   .     S
O56    C57     1.411   .     S
C57    H59     1.115   .     S
C57    C60     1.530   .     S
C57    H58     1.114   .     S
C60    C63     1.528   .     S
C60    H61     1.112   .     S
C60    H296    1.112   .     S
H62    C528    1.112   1_545 S
C63    H66     1.107   .     S
C63    H64     1.111   .     S
C63    H299    1.104   .     S
H65    C531    1.104   1_545 S
O67    H68     0.989   .     S
O69    H226    0.986   1_455 S
H70    O147    0.986   .     S
O71    H72     0.989   .     S
O73    H74     0.991   .     S
O75    N187    1.339   1_455 S
O75    H232    0.990   1_455 S
H76    O153    0.990   .     S
O77    N110    1.339   .     S
O77    H156    0.990   .     S
H78    O233    0.990   1_455 S
C79    O111    1.293   .     A
C79    O113    1.293   .     A
C79    C85     1.430   .     S
C80    O112    1.293   .     A
C80    O114    1.293   .     A
C80    C86     1.430   .     S
C81    O149    1.384   .     S
C81    C102    1.422   .     A
C81    C83     1.409   .     A
C82    C84     1.394   .     A
C82    C101    1.421   .     A
C82    O151    1.377   .     S
C83    C801    1.412   1_554 S
C84    C802    1.410   .     S
C84    O199    1.380   .     S
C85    C320    1.332   .     S
C85    H341    1.088   .     S
C86    C553    1.332   1_545 S
C86    H576    1.088   1_545 S
C87    O117    1.308   .     A
C87    O115    1.301   .     A
C87    C89     1.479   .     S
C88    O118    1.301   .     A
C88    C90     1.470   .     S
C88    O116    1.302   .     A
C89    C93     1.416   .     A
C89    C95     1.404   .     A
C90    C94     1.415   .     A
C90    C96     1.406   .     A
C91    C99     1.406   .     A
C91    C93     1.395   .     A
C92    C94     1.392   .     A
C92    C100    1.409   .     A
C92    H184    1.080   .     S
C93    O147    1.378   .     S
C94    O145    1.379   .     S
C95    O134    1.384   .     S
C95    C97     1.420   .     A
C96    O123    1.388   .     S
C96    C98     1.413   .     A
C97    C99     1.413   .     A
C97    C101    1.424   .     A
C98    C102    1.428   .     A
C98    C100    1.420   .     A
C99    C785    1.412   .     S
C100   C786    1.410   1_554 S
C101   C804    1.418   .     S
C102   C803    1.418   1_554 S
Cu103  O118    1.913   .     S
Cu103  O115    1.931   .     S
Cu103  N110    2.029   .     S
Cu103  Cu104   2.700   .     S
Cu103  O114    1.951   .     S
Cu103  O111    1.952   .     S
Cu104  O117    1.913   .     S
Cu104  O112    1.952   .     S
Cu104  N109    2.029   .     S
Cu104  O116    1.931   .     S
Cu104  O113    1.951   .     S
H105   C169    1.081   .     S
H107   C553    1.088   1_545 S
H108   C320    1.088   .     S
N109   N188    1.284   .     S
N109   O231    1.339   .     S
O119   H120    0.990   .     S
O119   C161    1.379   .     S
O121   H122    0.989   .     S
O123   C124    1.416   .     S
C124   C127    1.533   .     S
C124   H126    1.116   .     S
C124   H125    1.111   .     S
C127   H129    1.111   .     S
C127   H128    1.112   .     S
C127   C598    1.528   1_545 S
C130   H133    1.111   .     S
C130   H132    1.110   .     S
C130   H131    1.110   .     S
C130   C361    1.528   .     S
O134   C135    1.411   .     S
C135   H137    1.115   .     S
C135   C138    1.530   .     S
C135   H136    1.114   .     S
C138   C141    1.528   .     S
C138   H139    1.112   .     S
C138   H374    1.112   .     S
H140   C606    1.112   1_545 S
C141   H144    1.107   .     S
C141   H142    1.111   .     S
C141   H377    1.104   .     S
H143   C609    1.104   1_545 S
O145   H146    0.989   .     S
H148   O225    0.986   .     S
O149   H150    0.989   .     S
O151   H152    0.991   .     S
H154   O231    0.990   .     S
O155   N188    1.339   .     S
O155   H234    0.990   .     S
C157   O189    1.293   .     A
C157   O191    1.293   .     A
C157   C163    1.430   .     S
C158   O190    1.293   .     A
C158   O192    1.293   .     A
C158   C164    1.430   .     S
C159   O227    1.384   .     S
C159   C180    1.422   .     A
C159   C161    1.409   .     A
C160   C162    1.394   .     A
C160   C179    1.421   .     A
C160   O229    1.377   .     S
C161   C879    1.412   1_554 S
C162   C880    1.410   .     S
C162   O43     1.380   1_655 S
C163   C398    1.332   .     S
C163   H419    1.088   .     S
C164   C631    1.332   1_545 S
C164   H654    1.088   1_545 S
C165   O195    1.308   .     A
C165   O193    1.301   .     A
C165   C167    1.479   .     S
C166   O196    1.301   .     A
C166   C168    1.470   .     S
C166   O194    1.302   .     A
C167   C171    1.416   .     A
C167   C173    1.404   .     A
C168   C172    1.415   .     A
C168   C174    1.406   .     A
C169   C177    1.406   .     A
C169   C171    1.395   .     A
C170   C172    1.392   .     A
C170   C178    1.409   .     A
C170   H28     1.080   1_655 S
C171   O225    1.378   .     S
C172   O223    1.379   .     S
C173   O212    1.384   .     S
C173   C175    1.420   .     A
C174   O201    1.388   .     S
C174   C176    1.413   .     A
C175   C177    1.413   .     A
C175   C179    1.424   .     A
C176   C180    1.428   .     A
C176   C178    1.420   .     A
C177   C863    1.412   .     S
C178   C864    1.410   1_554 S
C179   C882    1.418   .     S
C180   C881    1.418   1_554 S
Cu181  O196    1.913   .     S
Cu181  O193    1.931   .     S
Cu181  N188    2.029   .     S
Cu181  Cu182   2.700   .     S
Cu181  O192    1.951   .     S
Cu181  O189    1.952   .     S
Cu182  O195    1.913   .     S
Cu182  O190    1.952   .     S
Cu182  N187    2.029   .     S
Cu182  O194    1.931   .     S
Cu182  O191    1.951   .     S
H183   C13     1.081   1_655 S
H185   C631    1.088   1_545 S
H186   C398    1.088   .     S
N187   N32     1.284   1_655 S
N187   O75     1.339   1_655 S
O197   H198    0.990   .     S
O197   C5      1.379   1_655 S
O199   H200    0.989   .     S
O201   C202    1.416   .     S
C202   C205    1.533   .     S
C202   H204    1.116   .     S
C202   H203    1.111   .     S
C205   H207    1.111   .     S
C205   H206    1.112   .     S
C205   C676    1.528   1_545 S
C208   H211    1.111   .     S
C208   H210    1.110   .     S
C208   H209    1.110   .     S
C208   C439    1.528   .     S
O212   C213    1.411   .     S
C213   H215    1.115   .     S
C213   C216    1.530   .     S
C213   H214    1.114   .     S
C216   C219    1.528   .     S
C216   H217    1.112   .     S
C216   H452    1.112   .     S
H218   C684    1.112   1_545 S
C219   H222    1.107   .     S
C219   H220    1.111   .     S
C219   H455    1.104   .     S
H221   C687    1.104   1_545 S
O223   H224    0.989   .     S
H226   O69     0.986   1_655 S
O227   H228    0.989   .     S
O229   H230    0.991   .     S
H232   O75     0.990   1_655 S
O233   N32     1.339   1_655 S
O233   H78     0.990   1_655 S
C235   O267    1.293   .     A
C235   O269    1.293   .     A
C235   C241    1.430   .     S
C236   O268    1.293   .     A
C236   O270    1.293   .     A
C236   C242    1.430   .     S
C237   O305    1.384   .     S
C237   C258    1.422   .     A
C237   C239    1.409   .     A
C238   C240    1.394   .     A
C238   C257    1.421   .     A
C238   O307    1.377   .     S
C239   C957    1.412   1_554 S
C239   O431    1.379   1_455 S
C240   C958    1.410   .     S
C240   O355    1.380   .     S
C241   C476    1.332   .     S
C241   H497    1.088   .     S
C243   O273    1.308   .     A
C243   O271    1.301   .     A
C243   C245    1.479   .     S
C244   O274    1.301   .     A
C244   C246    1.470   .     S
C244   O272    1.302   .     A
C245   C249    1.416   .     A
C245   C251    1.404   .     A
C246   C250    1.415   .     A
C246   C252    1.406   .     A
C247   C255    1.406   .     A
C247   C249    1.395   .     A
C247   H417    1.081   1_455 S
C248   C250    1.392   .     A
C248   C256    1.409   .     A
C248   H340    1.080   .     S
C249   O303    1.378   .     S
C250   O301    1.379   .     S
C251   O290    1.384   .     S
C251   C253    1.420   .     A
C252   O279    1.388   .     S
C252   C254    1.413   .     A
C253   C255    1.413   .     A
C253   C257    1.424   .     A
C254   C258    1.428   .     A
C254   C256    1.420   .     A
C255   C941    1.412   .     S
C256   C942    1.410   1_554 S
C257   C960    1.418   .     S
C258   C959    1.418   1_554 S
Cu259  O274    1.913   .     S
Cu259  O271    1.931   .     S
Cu259  N266    2.029   .     S
Cu259  Cu260   2.700   .     S
Cu259  O270    1.951   .     S
Cu259  O267    1.952   .     S
Cu260  O273    1.913   .     S
Cu260  O268    1.952   .     S
Cu260  N265    2.029   .     S
Cu260  O272    1.931   .     S
Cu260  O269    1.951   .     S
H261   C325    1.081   .     S
H262   C404    1.080   1_455 S
H264   C476    1.088   .     S
N265   N344    1.284   .     S
N265   O387    1.339   .     S
N266   N421    1.284   1_455 S
N266   O467    1.339   1_455 S
O275   H276    0.990   .     S
O275   C317    1.379   .     S
O277   H278    0.989   .     S
O277   C396    1.380   1_455 S
O279   C280    1.416   .     S
C280   C283    1.533   .     S
C280   H282    1.116   .     S
C280   H281    1.111   .     S
C283   H285    1.111   .     S
C283   H284    1.112   .     S
C286   H289    1.111   .     S
C286   H288    1.110   .     S
C286   H287    1.110   .     S
C286   C517    1.528   .     S
O290   C291    1.411   .     S
C291   H293    1.115   .     S
C291   C294    1.530   .     S
C291   H292    1.114   .     S
C294   C297    1.528   .     S
C294   H295    1.112   .     S
C294   H530    1.112   .     S
C297   H300    1.107   .     S
C297   H298    1.111   .     S
C297   H533    1.104   .     S
O301   H302    0.989   .     S
O303   H460    0.986   1_455 S
H304   O381    0.986   .     S
O305   H306    0.989   .     S
O307   H308    0.991   .     S
O309   N421    1.339   1_455 S
O309   H466    0.990   1_455 S
H310   O387    0.990   .     S
O311   N344    1.339   .     S
O311   H390    0.990   .     S
H312   O467    0.990   1_455 S
C313   O345    1.293   .     A
C313   O347    1.293   .     A
C313   C319    1.430   .     S
C314   O346    1.293   .     A
C314   O348    1.293   .     A
C314   C320    1.430   .     S
C315   O383    1.384   .     S
C315   C336    1.422   .     A
C315   C317    1.409   .     A
C316   C318    1.394   .     A
C316   C335    1.421   .     A
C316   O385    1.377   .     S
C317   C1035   1.412   1_554 S
C318   C1036   1.410   .     S
C318   O433    1.380   .     S
C319   C554    1.332   .     S
C319   H575    1.088   .     S
C321   O351    1.308   .     A
C321   O349    1.301   .     A
C321   C323    1.479   .     S
C322   O352    1.301   .     A
C322   C324    1.470   .     S
C322   O350    1.302   .     A
C323   C327    1.416   .     A
C323   C329    1.404   .     A
C324   C328    1.415   .     A
C324   C330    1.406   .     A
C325   C333    1.406   .     A
C325   C327    1.395   .     A
C326   C328    1.392   .     A
C326   C334    1.409   .     A
C326   H418    1.080   .     S
C327   O381    1.378   .     S
C328   O379    1.379   .     S
C329   O368    1.384   .     S
C329   C331    1.420   .     A
C330   O357    1.388   .     S
C330   C332    1.413   .     A
C331   C333    1.413   .     A
C331   C335    1.424   .     A
C332   C336    1.428   .     A
C332   C334    1.420   .     A
C333   C1019   1.412   .     S
C334   C1020   1.410   1_554 S
C335   C1038   1.418   .     S
C336   C1037   1.418   1_554 S
Cu337  O352    1.913   .     S
Cu337  O349    1.931   .     S
Cu337  N344    2.029   .     S
Cu337  Cu338   2.700   .     S
Cu337  O348    1.951   .     S
Cu337  O345    1.952   .     S
Cu338  O351    1.913   .     S
Cu338  O346    1.952   .     S
Cu338  N343    2.029   .     S
Cu338  O350    1.931   .     S
Cu338  O347    1.951   .     S
H339   C403    1.081   .     S
H342   C554    1.088   .     S
N343   N422    1.284   .     S
N343   O465    1.339   .     S
O353   H354    0.990   .     S
O353   C395    1.379   .     S
O355   H356    0.989   .     S
O357   C358    1.416   .     S
C358   C361    1.533   .     S
C358   H360    1.116   .     S
C358   H359    1.111   .     S
C361   H363    1.111   .     S
C361   H362    1.112   .     S
C364   H367    1.111   .     S
C364   H366    1.110   .     S
C364   H365    1.110   .     S
C364   C595    1.528   .     S
O368   C369    1.411   .     S
C369   H371    1.115   .     S
C369   C372    1.530   .     S
C369   H370    1.114   .     S
C372   C375    1.528   .     S
C372   H373    1.112   .     S
C372   H608    1.112   .     S
C375   H378    1.107   .     S
C375   H376    1.111   .     S
C375   H611    1.104   .     S
O379   H380    0.989   .     S
H382   O459    0.986   .     S
O383   H384    0.989   .     S
O385   H386    0.991   .     S
H388   O465    0.990   .     S
O389   N422    1.339   .     S
O389   H468    0.990   .     S
C391   O423    1.293   .     A
C391   O425    1.293   .     A
C391   C397    1.430   .     S
C392   O424    1.293   .     A
C392   O426    1.293   .     A
C392   C398    1.430   .     S
C393   O461    1.384   .     S
C393   C414    1.422   .     A
C393   C395    1.409   .     A
C394   C396    1.394   .     A
C394   C413    1.421   .     A
C394   O463    1.377   .     S
C395   C1113   1.412   1_554 S
C396   C1114   1.410   .     S
C396   O277    1.380   1_655 S
C397   C632    1.332   .     S
C397   H653    1.088   .     S
C399   O429    1.308   .     A
C399   O427    1.301   .     A
C399   C401    1.479   .     S
C400   O430    1.301   .     A
C400   C402    1.470   .     S
C400   O428    1.302   .     A
C401   C405    1.416   .     A
C401   C407    1.404   .     A
C402   C406    1.415   .     A
C402   C408    1.406   .     A
C403   C411    1.406   .     A
C403   C405    1.395   .     A
C404   C406    1.392   .     A
C404   C412    1.409   .     A
C404   H262    1.080   1_655 S
C405   O459    1.378   .     S
C406   O457    1.379   .     S
C407   O446    1.384   .     S
C407   C409    1.420   .     A
C408   O435    1.388   .     S
C408   C410    1.413   .     A
C409   C411    1.413   .     A
C409   C413    1.424   .     A
C410   C414    1.428   .     A
C410   C412    1.420   .     A
C411   C1097   1.412   .     S
C412   C1098   1.410   1_554 S
C413   C1116   1.418   .     S
C414   C1115   1.418   1_554 S
Cu415  O430    1.913   .     S
Cu415  O427    1.931   .     S
Cu415  N422    2.029   .     S
Cu415  Cu416   2.700   .     S
Cu415  O426    1.951   .     S
Cu415  O423    1.952   .     S
Cu416  O429    1.913   .     S
Cu416  O424    1.952   .     S
Cu416  N421    2.029   .     S
Cu416  O428    1.931   .     S
Cu416  O425    1.951   .     S
H417   C247    1.081   1_655 S
H420   C632    1.088   .     S
N421   N266    1.284   1_655 S
N421   O309    1.339   1_655 S
O431   H432    0.990   .     S
O431   C239    1.379   1_655 S
O433   H434    0.989   .     S
O435   C436    1.416   .     S
C436   C439    1.533   .     S
C436   H438    1.116   .     S
C436   H437    1.111   .     S
C439   H441    1.111   .     S
C439   H440    1.112   .     S
C442   H445    1.111   .     S
C442   H444    1.110   .     S
C442   H443    1.110   .     S
C442   C673    1.528   .     S
O446   C447    1.411   .     S
C447   H449    1.115   .     S
C447   C450    1.530   .     S
C447   H448    1.114   .     S
C450   C453    1.528   .     S
C450   H451    1.112   .     S
C450   H686    1.112   .     S
C453   H456    1.107   .     S
C453   H454    1.111   .     S
C453   H689    1.104   .     S
O457   H458    0.989   .     S
H460   O303    0.986   1_655 S
O461   H462    0.989   .     S
O463   H464    0.991   .     S
H466   O309    0.990   1_655 S
O467   N266    1.339   1_655 S
O467   H312    0.990   1_655 S
C469   O501    1.293   .     A
C469   O503    1.293   .     A
C469   C475    1.430   .     S
C470   O502    1.293   .     A
C470   O504    1.293   .     A
C470   C476    1.430   .     S
C471   O539    1.384   .     S
C471   C492    1.422   .     A
C471   C473    1.409   .     A
C472   C474    1.394   .     A
C472   C491    1.421   .     A
C472   O541    1.377   .     S
C473   C1191   1.412   1_554 S
C473   O665    1.379   1_455 S
C474   C1192   1.410   .     S
C474   O589    1.380   .     S
C475   C8      1.332   1_565 S
C475   H29     1.088   1_565 S
C477   O507    1.308   .     A
C477   O505    1.301   .     A
C477   C479    1.479   .     S
C478   O508    1.301   .     A
C478   C480    1.470   .     S
C478   O506    1.302   .     A
C479   C483    1.416   .     A
C479   C485    1.404   .     A
C480   C484    1.415   .     A
C480   C486    1.406   .     A
C481   C489    1.406   .     A
C481   C483    1.395   .     A
C481   H651    1.081   1_455 S
C482   C484    1.392   .     A
C482   C490    1.409   .     A
C482   H574    1.080   .     S
C483   O537    1.378   .     S
C484   O535    1.379   .     S
C485   O524    1.384   .     S
C485   C487    1.420   .     A
C486   O513    1.388   .     S
C486   C488    1.413   .     A
C487   C489    1.413   .     A
C487   C491    1.424   .     A
C488   C492    1.428   .     A
C488   C490    1.420   .     A
C489   C1175   1.412   .     S
C490   C1176   1.410   1_554 S
C491   C1194   1.418   .     S
C492   C1193   1.418   1_554 S
Cu493  O508    1.913   .     S
Cu493  O505    1.931   .     S
Cu493  N500    2.029   .     S
Cu493  Cu494   2.700   .     S
Cu493  O504    1.951   .     S
Cu493  O501    1.952   .     S
Cu494  O507    1.913   .     S
Cu494  O502    1.952   .     S
Cu494  N499    2.029   .     S
Cu494  O506    1.931   .     S
Cu494  O503    1.951   .     S
H495   C559    1.081   .     S
H496   C638    1.080   1_455 S
H498   C8      1.088   1_565 S
N499   N578    1.284   .     S
N499   O621    1.339   .     S
N500   N655    1.284   1_455 S
N500   O701    1.339   1_455 S
O509   H510    0.990   .     S
O509   C551    1.379   .     S
O511   H512    0.989   .     S
O511   C630    1.380   1_455 S
O513   C514    1.416   .     S
C514   C517    1.533   .     S
C514   H516    1.116   .     S
C514   H515    1.111   .     S
C517   H519    1.111   .     S
C517   H518    1.112   .     S
C520   H523    1.111   .     S
C520   H522    1.110   .     S
C520   H521    1.110   .     S
C520   C49     1.528   1_565 S
O524   C525    1.411   .     S
C525   H527    1.115   .     S
C525   C528    1.530   .     S
C525   H526    1.114   .     S
C528   C531    1.528   .     S
C528   H529    1.112   .     S
C528   H62     1.112   1_565 S
C531   H534    1.107   .     S
C531   H532    1.111   .     S
C531   H65     1.104   1_565 S
O535   H536    0.989   .     S
O537   H694    0.986   1_455 S
H538   O615    0.986   .     S
O539   H540    0.989   .     S
O541   H542    0.991   .     S
O543   N655    1.339   1_455 S
O543   H700    0.990   1_455 S
H544   O621    0.990   .     S
O545   N578    1.339   .     S
O545   H624    0.990   .     S
H546   O701    0.990   1_455 S
C547   O579    1.293   .     A
C547   O581    1.293   .     A
C547   C553    1.430   .     S
C548   O580    1.293   .     A
C548   O582    1.293   .     A
C548   C554    1.430   .     S
C549   O617    1.384   .     S
C549   C570    1.422   .     A
C549   C551    1.409   .     A
C550   C552    1.394   .     A
C550   C569    1.421   .     A
C550   O619    1.377   .     S
C551   C1269   1.412   1_554 S
C552   C1270   1.410   .     S
C552   O667    1.380   .     S
C553   C86     1.332   1_565 S
C553   H107    1.088   1_565 S
C555   O585    1.308   .     A
C555   O583    1.301   .     A
C555   C557    1.479   .     S
C556   O586    1.301   .     A
C556   C558    1.470   .     S
C556   O584    1.302   .     A
C557   C561    1.416   .     A
C557   C563    1.404   .     A
C558   C562    1.415   .     A
C558   C564    1.406   .     A
C559   C567    1.406   .     A
C559   C561    1.395   .     A
C560   C562    1.392   .     A
C560   C568    1.409   .     A
C560   H652    1.080   .     S
C561   O615    1.378   .     S
C562   O613    1.379   .     S
C563   O602    1.384   .     S
C563   C565    1.420   .     A
C564   O591    1.388   .     S
C564   C566    1.413   .     A
C565   C567    1.413   .     A
C565   C569    1.424   .     A
C566   C570    1.428   .     A
C566   C568    1.420   .     A
C567   C1253   1.412   .     S
C568   C1254   1.410   1_554 S
C569   C1272   1.418   .     S
C570   C1271   1.418   1_554 S
Cu571  O586    1.913   .     S
Cu571  O583    1.931   .     S
Cu571  N578    2.029   .     S
Cu571  Cu572   2.700   .     S
Cu571  O582    1.951   .     S
Cu571  O579    1.952   .     S
Cu572  O585    1.913   .     S
Cu572  O580    1.952   .     S
Cu572  N577    2.029   .     S
Cu572  O584    1.931   .     S
Cu572  O581    1.951   .     S
H573   C637    1.081   .     S
H576   C86     1.088   1_565 S
N577   N656    1.284   .     S
N577   O699    1.339   .     S
O587   H588    0.990   .     S
O587   C629    1.379   .     S
O589   H590    0.989   .     S
O591   C592    1.416   .     S
C592   C595    1.533   .     S
C592   H594    1.116   .     S
C592   H593    1.111   .     S
C595   H597    1.111   .     S
C595   H596    1.112   .     S
C598   H601    1.111   .     S
C598   H600    1.110   .     S
C598   H599    1.110   .     S
C598   C127    1.528   1_565 S
O602   C603    1.411   .     S
C603   H605    1.115   .     S
C603   C606    1.530   .     S
C603   H604    1.114   .     S
C606   C609    1.528   .     S
C606   H607    1.112   .     S
C606   H140    1.112   1_565 S
C609   H612    1.107   .     S
C609   H610    1.111   .     S
C609   H143    1.104   1_565 S
O613   H614    0.989   .     S
H616   O693    0.986   .     S
O617   H618    0.989   .     S
O619   H620    0.991   .     S
H622   O699    0.990   .     S
O623   N656    1.339   .     S
O623   H702    0.990   .     S
C625   O657    1.293   .     A
C625   O659    1.293   .     A
C625   C631    1.430   .     S
C626   O658    1.293   .     A
C626   O660    1.293   .     A
C626   C632    1.430   .     S
C627   O695    1.384   .     S
C627   C648    1.422   .     A
C627   C629    1.409   .     A
C628   C630    1.394   .     A
C628   C647    1.421   .     A
C628   O697    1.377   .     S
C629   C1347   1.412   1_554 S
C630   C1348   1.410   .     S
C630   O511    1.380   1_655 S
C631   C164    1.332   1_565 S
C631   H185    1.088   1_565 S
C633   O663    1.308   .     A
C633   O661    1.301   .     A
C633   C635    1.479   .     S
C634   O664    1.301   .     A
C634   C636    1.470   .     S
C634   O662    1.302   .     A
C635   C639    1.416   .     A
C635   C641    1.404   .     A
C636   C640    1.415   .     A
C636   C642    1.406   .     A
C637   C645    1.406   .     A
C637   C639    1.395   .     A
C638   C640    1.392   .     A
C638   C646    1.409   .     A
C638   H496    1.080   1_655 S
C639   O693    1.378   .     S
C640   O691    1.379   .     S
C641   O680    1.384   .     S
C641   C643    1.420   .     A
C642   O669    1.388   .     S
C642   C644    1.413   .     A
C643   C645    1.413   .     A
C643   C647    1.424   .     A
C644   C648    1.428   .     A
C644   C646    1.420   .     A
C645   C1331   1.412   .     S
C646   C1332   1.410   1_554 S
C647   C1350   1.418   .     S
C648   C1349   1.418   1_554 S
Cu649  O664    1.913   .     S
Cu649  O661    1.931   .     S
Cu649  N656    2.029   .     S
Cu649  Cu650   2.700   .     S
Cu649  O660    1.951   .     S
Cu649  O657    1.952   .     S
Cu650  O663    1.913   .     S
Cu650  O658    1.952   .     S
Cu650  N655    2.029   .     S
Cu650  O662    1.931   .     S
Cu650  O659    1.951   .     S
H651   C481    1.081   1_655 S
H654   C164    1.088   1_565 S
N655   N500    1.284   1_655 S
N655   O543    1.339   1_655 S
O665   H666    0.990   .     S
O665   C473    1.379   1_655 S
O667   H668    0.989   .     S
O669   C670    1.416   .     S
C670   C673    1.533   .     S
C670   H672    1.116   .     S
C670   H671    1.111   .     S
C673   H675    1.111   .     S
C673   H674    1.112   .     S
C676   H679    1.111   .     S
C676   H678    1.110   .     S
C676   H677    1.110   .     S
C676   C205    1.528   1_565 S
O680   C681    1.411   .     S
C681   H683    1.115   .     S
C681   C684    1.530   .     S
C681   H682    1.114   .     S
C684   C687    1.528   .     S
C684   H685    1.112   .     S
C684   H218    1.112   1_565 S
C687   H690    1.107   .     S
C687   H688    1.111   .     S
C687   H221    1.104   1_565 S
O691   H692    0.989   .     S
H694   O537    0.986   1_655 S
O695   H696    0.989   .     S
O697   H698    0.991   .     S
H700   O543    0.990   1_655 S
O701   N500    1.339   1_655 S
O701   H546    0.990   1_655 S
C703   O735    1.293   .     A
C703   O737    1.293   .     A
C703   C709    1.430   .     S
C704   O736    1.293   .     A
C704   O738    1.293   .     A
C704   C710    1.430   .     S
C705   O773    1.384   .     S
C705   C726    1.422   .     A
C705   C707    1.409   .     A
C706   C708    1.394   .     A
C706   C725    1.421   .     A
C706   O775    1.377   .     S
C707   O899    1.379   1_455 S
C708   C22     1.410   1_556 S
C708   O823    1.380   .     S
C709   C944    1.332   .     S
C709   H965    1.088   .     S
C710   C1177   1.332   1_545 S
C710   H1200   1.088   1_545 S
C711   O741    1.308   .     A
C711   O739    1.301   .     A
C711   C713    1.479   .     S
C712   O742    1.301   .     A
C712   C714    1.470   .     S
C712   O740    1.302   .     A
C713   C717    1.416   .     A
C713   C719    1.404   .     A
C714   C718    1.415   .     A
C714   C720    1.406   .     A
C715   C723    1.406   .     A
C715   C717    1.395   .     A
C715   H885    1.081   1_455 S
C716   C718    1.392   .     A
C716   C724    1.409   .     A
C716   H808    1.080   .     S
C717   O771    1.378   .     S
C718   O769    1.379   .     S
C719   O758    1.384   .     S
C719   C721    1.420   .     A
C720   O747    1.388   .     S
C720   C722    1.413   .     A
C721   C723    1.413   .     A
C721   C725    1.424   .     A
C722   C726    1.428   .     A
C722   C724    1.420   .     A
C723   C5      1.412   1_556 S
C725   C24     1.418   1_556 S
Cu727  O742    1.913   .     S
Cu727  O739    1.931   .     S
Cu727  N734    2.029   .     S
Cu727  Cu728   2.700   .     S
Cu727  O738    1.951   .     S
Cu727  O735    1.952   .     S
Cu728  O741    1.913   .     S
Cu728  O736    1.952   .     S
Cu728  N733    2.029   .     S
Cu728  O740    1.931   .     S
Cu728  O737    1.951   .     S
H729   C793    1.081   .     S
H730   C872    1.080   1_455 S
H731   C1177   1.088   1_545 S
H732   C944    1.088   .     S
N733   N812    1.284   .     S
N733   O855    1.339   .     S
N734   N889    1.284   1_455 S
N734   O935    1.339   1_455 S
O743   H744    0.990   .     S
O743   C785    1.379   .     S
O745   H746    0.989   .     S
O745   C864    1.380   1_455 S
O747   C748    1.416   .     S
C748   C751    1.533   .     S
C748   H750    1.116   .     S
C748   H749    1.111   .     S
C751   H753    1.111   .     S
C751   H752    1.112   .     S
C751   C1222   1.528   1_545 S
C754   H757    1.111   .     S
C754   H756    1.110   .     S
C754   H755    1.110   .     S
C754   C985    1.528   .     S
O758   C759    1.411   .     S
C759   H761    1.115   .     S
C759   C762    1.530   .     S
C759   H760    1.114   .     S
C762   C765    1.528   .     S
C762   H763    1.112   .     S
C762   H998    1.112   .     S
H764   C1230   1.112   1_545 S
C765   H768    1.107   .     S
C765   H766    1.111   .     S
C765   H1001   1.104   .     S
H767   C1233   1.104   1_545 S
O769   H770    0.989   .     S
O771   H928    0.986   1_455 S
H772   O849    0.986   .     S
O773   H774    0.989   .     S
O775   H776    0.991   .     S
O777   N889    1.339   1_455 S
O777   H934    0.990   1_455 S
H778   O855    0.990   .     S
O779   N812    1.339   .     S
O779   H858    0.990   .     S
H780   O935    0.990   1_455 S
C781   O813    1.293   .     A
C781   O815    1.293   .     A
C781   C787    1.430   .     S
C782   O814    1.293   .     A
C782   O816    1.293   .     A
C782   C788    1.430   .     S
C783   O851    1.384   .     S
C783   C804    1.422   .     A
C783   C785    1.409   .     A
C784   C786    1.394   .     A
C784   C803    1.421   .     A
C784   O853    1.377   .     S
C786   C100    1.410   1_556 S
C786   O901    1.380   .     S
C787   C1022   1.332   .     S
C787   H1043   1.088   .     S
C788   C1255   1.332   1_545 S
C788   H1278   1.088   1_545 S
C789   O819    1.308   .     A
C789   O817    1.301   .     A
C789   C791    1.479   .     S
C790   O820    1.301   .     A
C790   C792    1.470   .     S
C790   O818    1.302   .     A
C791   C795    1.416   .     A
C791   C797    1.404   .     A
C792   C796    1.415   .     A
C792   C798    1.406   .     A
C793   C801    1.406   .     A
C793   C795    1.395   .     A
C794   C796    1.392   .     A
C794   C802    1.409   .     A
C794   H886    1.080   .     S
C795   O849    1.378   .     S
C796   O847    1.379   .     S
C797   O836    1.384   .     S
C797   C799    1.420   .     A
C798   O825    1.388   .     S
C798   C800    1.413   .     A
C799   C801    1.413   .     A
C799   C803    1.424   .     A
C800   C804    1.428   .     A
C800   C802    1.420   .     A
C801   C83     1.412   1_556 S
C803   C102    1.418   1_556 S
Cu805  O820    1.913   .     S
Cu805  O817    1.931   .     S
Cu805  N812    2.029   .     S
Cu805  Cu806   2.700   .     S
Cu805  O816    1.951   .     S
Cu805  O813    1.952   .     S
Cu806  O819    1.913   .     S
Cu806  O814    1.952   .     S
Cu806  N811    2.029   .     S
Cu806  O818    1.931   .     S
Cu806  O815    1.951   .     S
H807   C871    1.081   .     S
H809   C1255   1.088   1_545 S
H810   C1022   1.088   .     S
N811   N890    1.284   .     S
N811   O933    1.339   .     S
O821   H822    0.990   .     S
O821   C863    1.379   .     S
O823   H824    0.989   .     S
O825   C826    1.416   .     S
C826   C829    1.533   .     S
C826   H828    1.116   .     S
C826   H827    1.111   .     S
C829   H831    1.111   .     S
C829   H830    1.112   .     S
C829   C1300   1.528   1_545 S
C832   H835    1.111   .     S
C832   H834    1.110   .     S
C832   H833    1.110   .     S
C832   C1063   1.528   .     S
O836   C837    1.411   .     S
C837   H839    1.115   .     S
C837   C840    1.530   .     S
C837   H838    1.114   .     S
C840   C843    1.528   .     S
C840   H841    1.112   .     S
C840   H1076   1.112   .     S
H842   C1308   1.112   1_545 S
C843   H846    1.107   .     S
C843   H844    1.111   .     S
C843   H1079   1.104   .     S
H845   C1311   1.104   1_545 S
O847   H848    0.989   .     S
H850   O927    0.986   .     S
O851   H852    0.989   .     S
O853   H854    0.991   .     S
H856   O933    0.990   .     S
O857   N890    1.339   .     S
O857   H936    0.990   .     S
C859   O891    1.293   .     A
C859   O893    1.293   .     A
C859   C865    1.430   .     S
C860   O892    1.293   .     A
C860   O894    1.293   .     A
C860   C866    1.430   .     S
C861   O929    1.384   .     S
C861   C882    1.422   .     A
C861   C863    1.409   .     A
C862   C864    1.394   .     A
C862   C881    1.421   .     A
C862   O931    1.377   .     S
C864   C178    1.410   1_556 S
C864   O745    1.380   1_655 S
C865   C1100   1.332   .     S
C865   H1121   1.088   .     S
C866   C1333   1.332   1_545 S
C866   H1356   1.088   1_545 S
C867   O897    1.308   .     A
C867   O895    1.301   .     A
C867   C869    1.479   .     S
C868   O898    1.301   .     A
C868   C870    1.470   .     S
C868   O896    1.302   .     A
C869   C873    1.416   .     A
C869   C875    1.404   .     A
C870   C874    1.415   .     A
C870   C876    1.406   .     A
C871   C879    1.406   .     A
C871   C873    1.395   .     A
C872   C874    1.392   .     A
C872   C880    1.409   .     A
C872   H730    1.080   1_655 S
C873   O927    1.378   .     S
C874   O925    1.379   .     S
C875   O914    1.384   .     S
C875   C877    1.420   .     A
C876   O903    1.388   .     S
C876   C878    1.413   .     A
C877   C879    1.413   .     A
C877   C881    1.424   .     A
C878   C882    1.428   .     A
C878   C880    1.420   .     A
C879   C161    1.412   1_556 S
C881   C180    1.418   1_556 S
Cu883  O898    1.913   .     S
Cu883  O895    1.931   .     S
Cu883  N890    2.029   .     S
Cu883  Cu884   2.700   .     S
Cu883  O894    1.951   .     S
Cu883  O891    1.952   .     S
Cu884  O897    1.913   .     S
Cu884  O892    1.952   .     S
Cu884  N889    2.029   .     S
Cu884  O896    1.931   .     S
Cu884  O893    1.951   .     S
H885   C715    1.081   1_655 S
H887   C1333   1.088   1_545 S
H888   C1100   1.088   .     S
N889   N734    1.284   1_655 S
N889   O777    1.339   1_655 S
O899   H900    0.990   .     S
O899   C707    1.379   1_655 S
O901   H902    0.989   .     S
O903   C904    1.416   .     S
C904   C907    1.533   .     S
C904   H906    1.116   .     S
C904   H905    1.111   .     S
C907   H909    1.111   .     S
C907   H908    1.112   .     S
C907   C1378   1.528   1_545 S
C910   H913    1.111   .     S
C910   H912    1.110   .     S
C910   H911    1.110   .     S
C910   C1141   1.528   .     S
O914   C915    1.411   .     S
C915   H917    1.115   .     S
C915   C918    1.530   .     S
C915   H916    1.114   .     S
C918   C921    1.528   .     S
C918   H919    1.112   .     S
C918   H1154   1.112   .     S
H920   C1386   1.112   1_545 S
C921   H924    1.107   .     S
C921   H922    1.111   .     S
C921   H1157   1.104   .     S
H923   C1389   1.104   1_545 S
O925   H926    0.989   .     S
H928   O771    0.986   1_655 S
O929   H930    0.989   .     S
O931   H932    0.991   .     S
H934   O777    0.990   1_655 S
O935   N734    1.339   1_655 S
O935   H780    0.990   1_655 S
C937   O969    1.293   .     A
C937   O971    1.293   .     A
C937   C943    1.430   .     S
C938   O970    1.293   .     A
C938   O972    1.293   .     A
C938   C944    1.430   .     S
C939   O1007   1.384   .     S
C939   C960    1.422   .     A
C939   C941    1.409   .     A
C940   C942    1.394   .     A
C940   C959    1.421   .     A
C940   O1009   1.377   .     S
C941   O1133   1.379   1_455 S
C942   C256    1.410   1_556 S
C942   O1057   1.380   .     S
C943   C1178   1.332   .     S
C943   H1199   1.088   .     S
C945   O975    1.308   .     A
C945   O973    1.301   .     A
C945   C947    1.479   .     S
C946   O976    1.301   .     A
C946   C948    1.470   .     S
C946   O974    1.302   .     A
C947   C951    1.416   .     A
C947   C953    1.404   .     A
C948   C952    1.415   .     A
C948   C954    1.406   .     A
C949   C957    1.406   .     A
C949   C951    1.395   .     A
C949   H1119   1.081   1_455 S
C950   C952    1.392   .     A
C950   C958    1.409   .     A
C950   H1042   1.080   .     S
C951   O1005   1.378   .     S
C952   O1003   1.379   .     S
C953   O992    1.384   .     S
C953   C955    1.420   .     A
C954   O981    1.388   .     S
C954   C956    1.413   .     A
C955   C957    1.413   .     A
C955   C959    1.424   .     A
C956   C960    1.428   .     A
C956   C958    1.420   .     A
C957   C239    1.412   1_556 S
C959   C258    1.418   1_556 S
Cu961  O976    1.913   .     S
Cu961  O973    1.931   .     S
Cu961  N968    2.029   .     S
Cu961  Cu962   2.700   .     S
Cu961  O972    1.951   .     S
Cu961  O969    1.952   .     S
Cu962  O975    1.913   .     S
Cu962  O970    1.952   .     S
Cu962  N967    2.029   .     S
Cu962  O974    1.931   .     S
Cu962  O971    1.951   .     S
H963   C1027   1.081   .     S
H964   C1106   1.080   1_455 S
H966   C1178   1.088   .     S
N967   N1046   1.284   .     S
N967   O1089   1.339   .     S
N968   N1123   1.284   1_455 S
N968   O1169   1.339   1_455 S
O977   H978    0.990   .     S
O977   C1019   1.379   .     S
O979   H980    0.989   .     S
O979   C1098   1.380   1_455 S
O981   C982    1.416   .     S
C982   C985    1.533   .     S
C982   H984    1.116   .     S
C982   H983    1.111   .     S
C985   H987    1.111   .     S
C985   H986    1.112   .     S
C988   H991    1.111   .     S
C988   H990    1.110   .     S
C988   H989    1.110   .     S
C988   C1219   1.528   .     S
O992   C993    1.411   .     S
C993   H995    1.115   .     S
C993   C996    1.530   .     S
C993   H994    1.114   .     S
C996   C999    1.528   .     S
C996   H997    1.112   .     S
C996   H1232   1.112   .     S
C999   H1002   1.107   .     S
C999   H1000   1.111   .     S
C999   H1235   1.104   .     S
O1003  H1004   0.989   .     S
O1005  H1162   0.986   1_455 S
H1006  O1083   0.986   .     S
O1007  H1008   0.989   .     S
O1009  H1010   0.991   .     S
O1011  N1123   1.339   1_455 S
O1011  H1168   0.990   1_455 S
H1012  O1089   0.990   .     S
O1013  N1046   1.339   .     S
O1013  H1092   0.990   .     S
H1014  O1169   0.990   1_455 S
C1015  O1047   1.293   .     A
C1015  O1049   1.293   .     A
C1015  C1021   1.430   .     S
C1016  O1048   1.293   .     A
C1016  O1050   1.293   .     A
C1016  C1022   1.430   .     S
C1017  O1085   1.384   .     S
C1017  C1038   1.422   .     A
C1017  C1019   1.409   .     A
C1018  C1020   1.394   .     A
C1018  C1037   1.421   .     A
C1018  O1087   1.377   .     S
C1020  C334    1.410   1_556 S
C1020  O1135   1.380   .     S
C1021  C1256   1.332   .     S
C1021  H1277   1.088   .     S
C1023  O1053   1.308   .     A
C1023  O1051   1.301   .     A
C1023  C1025   1.479   .     S
C1024  O1054   1.301   .     A
C1024  C1026   1.470   .     S
C1024  O1052   1.302   .     A
C1025  C1029   1.416   .     A
C1025  C1031   1.404   .     A
C1026  C1030   1.415   .     A
C1026  C1032   1.406   .     A
C1027  C1035   1.406   .     A
C1027  C1029   1.395   .     A
C1028  C1030   1.392   .     A
C1028  C1036   1.409   .     A
C1028  H1120   1.080   .     S
C1029  O1083   1.378   .     S
C1030  O1081   1.379   .     S
C1031  O1070   1.384   .     S
C1031  C1033   1.420   .     A
C1032  O1059   1.388   .     S
C1032  C1034   1.413   .     A
C1033  C1035   1.413   .     A
C1033  C1037   1.424   .     A
C1034  C1038   1.428   .     A
C1034  C1036   1.420   .     A
C1035  C317    1.412   1_556 S
C1037  C336    1.418   1_556 S
Cu1039 O1054   1.913   .     S
Cu1039 O1051   1.931   .     S
Cu1039 N1046   2.029   .     S
Cu1039 Cu1040  2.700   .     S
Cu1039 O1050   1.951   .     S
Cu1039 O1047   1.952   .     S
Cu1040 O1053   1.913   .     S
Cu1040 O1048   1.952   .     S
Cu1040 N1045   2.029   .     S
Cu1040 O1052   1.931   .     S
Cu1040 O1049   1.951   .     S
H1041  C1105   1.081   .     S
H1044  C1256   1.088   .     S
N1045  N1124   1.284   .     S
N1045  O1167   1.339   .     S
O1055  H1056   0.990   .     S
O1055  C1097   1.379   .     S
O1057  H1058   0.989   .     S
O1059  C1060   1.416   .     S
C1060  C1063   1.533   .     S
C1060  H1062   1.116   .     S
C1060  H1061   1.111   .     S
C1063  H1065   1.111   .     S
C1063  H1064   1.112   .     S
C1066  H1069   1.111   .     S
C1066  H1068   1.110   .     S
C1066  H1067   1.110   .     S
C1066  C1297   1.528   .     S
O1070  C1071   1.411   .     S
C1071  H1073   1.115   .     S
C1071  C1074   1.530   .     S
C1071  H1072   1.114   .     S
C1074  C1077   1.528   .     S
C1074  H1075   1.112   .     S
C1074  H1310   1.112   .     S
C1077  H1080   1.107   .     S
C1077  H1078   1.111   .     S
C1077  H1313   1.104   .     S
O1081  H1082   0.989   .     S
H1084  O1161   0.986   .     S
O1085  H1086   0.989   .     S
O1087  H1088   0.991   .     S
H1090  O1167   0.990   .     S
O1091  N1124   1.339   .     S
O1091  H1170   0.990   .     S
C1093  O1125   1.293   .     A
C1093  O1127   1.293   .     A
C1093  C1099   1.430   .     S
C1094  O1126   1.293   .     A
C1094  O1128   1.293   .     A
C1094  C1100   1.430   .     S
C1095  O1163   1.384   .     S
C1095  C1116   1.422   .     A
C1095  C1097   1.409   .     A
C1096  C1098   1.394   .     A
C1096  C1115   1.421   .     A
C1096  O1165   1.377   .     S
C1098  C412    1.410   1_556 S
C1098  O979    1.380   1_655 S
C1099  C1334   1.332   .     S
C1099  H1355   1.088   .     S
C1101  O1131   1.308   .     A
C1101  O1129   1.301   .     A
C1101  C1103   1.479   .     S
C1102  O1132   1.301   .     A
C1102  C1104   1.470   .     S
C1102  O1130   1.302   .     A
C1103  C1107   1.416   .     A
C1103  C1109   1.404   .     A
C1104  C1108   1.415   .     A
C1104  C1110   1.406   .     A
C1105  C1113   1.406   .     A
C1105  C1107   1.395   .     A
C1106  C1108   1.392   .     A
C1106  C1114   1.409   .     A
C1106  H964    1.080   1_655 S
C1107  O1161   1.378   .     S
C1108  O1159   1.379   .     S
C1109  O1148   1.384   .     S
C1109  C1111   1.420   .     A
C1110  O1137   1.388   .     S
C1110  C1112   1.413   .     A
C1111  C1113   1.413   .     A
C1111  C1115   1.424   .     A
C1112  C1116   1.428   .     A
C1112  C1114   1.420   .     A
C1113  C395    1.412   1_556 S
C1115  C414    1.418   1_556 S
Cu1117 O1132   1.913   .     S
Cu1117 O1129   1.931   .     S
Cu1117 N1124   2.029   .     S
Cu1117 Cu1118  2.700   .     S
Cu1117 O1128   1.951   .     S
Cu1117 O1125   1.952   .     S
Cu1118 O1131   1.913   .     S
Cu1118 O1126   1.952   .     S
Cu1118 N1123   2.029   .     S
Cu1118 O1130   1.931   .     S
Cu1118 O1127   1.951   .     S
H1119  C949    1.081   1_655 S
H1122  C1334   1.088   .     S
N1123  N968    1.284   1_655 S
N1123  O1011   1.339   1_655 S
O1133  H1134   0.990   .     S
O1133  C941    1.379   1_655 S
O1135  H1136   0.989   .     S
O1137  C1138   1.416   .     S
C1138  C1141   1.533   .     S
C1138  H1140   1.116   .     S
C1138  H1139   1.111   .     S
C1141  H1143   1.111   .     S
C1141  H1142   1.112   .     S
C1144  H1147   1.111   .     S
C1144  H1146   1.110   .     S
C1144  H1145   1.110   .     S
C1144  C1375   1.528   .     S
O1148  C1149   1.411   .     S
C1149  H1151   1.115   .     S
C1149  C1152   1.530   .     S
C1149  H1150   1.114   .     S
C1152  C1155   1.528   .     S
C1152  H1153   1.112   .     S
C1152  H1388   1.112   .     S
C1155  H1158   1.107   .     S
C1155  H1156   1.111   .     S
C1155  H1391   1.104   .     S
O1159  H1160   0.989   .     S
H1162  O1005   0.986   1_655 S
O1163  H1164   0.989   .     S
O1165  H1166   0.991   .     S
H1168  O1011   0.990   1_655 S
O1169  N968    1.339   1_655 S
O1169  H1014   0.990   1_655 S
C1171  O1203   1.293   .     A
C1171  O1205   1.293   .     A
C1171  C1177   1.430   .     S
C1172  O1204   1.293   .     A
C1172  O1206   1.293   .     A
C1172  C1178   1.430   .     S
C1173  O1241   1.384   .     S
C1173  C1194   1.422   .     A
C1173  C1175   1.409   .     A
C1174  C1176   1.394   .     A
C1174  C1193   1.421   .     A
C1174  O1243   1.377   .     S
C1175  O1367   1.379   1_455 S
C1176  C490    1.410   1_556 S
C1176  O1291   1.380   .     S
C1177  C710    1.332   1_565 S
C1177  H731    1.088   1_565 S
C1179  O1209   1.308   .     A
C1179  O1207   1.301   .     A
C1179  C1181   1.479   .     S
C1180  O1210   1.301   .     A
C1180  C1182   1.470   .     S
C1180  O1208   1.302   .     A
C1181  C1185   1.416   .     A
C1181  C1187   1.404   .     A
C1182  C1186   1.415   .     A
C1182  C1188   1.406   .     A
C1183  C1191   1.406   .     A
C1183  C1185   1.395   .     A
C1183  H1353   1.081   1_455 S
C1184  C1186   1.392   .     A
C1184  C1192   1.409   .     A
C1184  H1276   1.080   .     S
C1185  O1239   1.378   .     S
C1186  O1237   1.379   .     S
C1187  O1226   1.384   .     S
C1187  C1189   1.420   .     A
C1188  O1215   1.388   .     S
C1188  C1190   1.413   .     A
C1189  C1191   1.413   .     A
C1189  C1193   1.424   .     A
C1190  C1194   1.428   .     A
C1190  C1192   1.420   .     A
C1191  C473    1.412   1_556 S
C1193  C492    1.418   1_556 S
Cu1195 O1210   1.913   .     S
Cu1195 O1207   1.931   .     S
Cu1195 N1202   2.029   .     S
Cu1195 Cu1196  2.700   .     S
Cu1195 O1206   1.951   .     S
Cu1195 O1203   1.952   .     S
Cu1196 O1209   1.913   .     S
Cu1196 O1204   1.952   .     S
Cu1196 N1201   2.029   .     S
Cu1196 O1208   1.931   .     S
Cu1196 O1205   1.951   .     S
H1197  C1261   1.081   .     S
H1198  C1340   1.080   1_455 S
H1200  C710    1.088   1_565 S
N1201  N1280   1.284   .     S
N1201  O1323   1.339   .     S
N1202  N1357   1.284   1_455 S
N1202  O1403   1.339   1_455 S
O1211  H1212   0.990   .     S
O1211  C1253   1.379   .     S
O1213  H1214   0.989   .     S
O1213  C1332   1.380   1_455 S
O1215  C1216   1.416   .     S
C1216  C1219   1.533   .     S
C1216  H1218   1.116   .     S
C1216  H1217   1.111   .     S
C1219  H1221   1.111   .     S
C1219  H1220   1.112   .     S
C1222  H1225   1.111   .     S
C1222  H1224   1.110   .     S
C1222  H1223   1.110   .     S
C1222  C751    1.528   1_565 S
O1226  C1227   1.411   .     S
C1227  H1229   1.115   .     S
C1227  C1230   1.530   .     S
C1227  H1228   1.114   .     S
C1230  C1233   1.528   .     S
C1230  H1231   1.112   .     S
C1230  H764    1.112   1_565 S
C1233  H1236   1.107   .     S
C1233  H1234   1.111   .     S
C1233  H767    1.104   1_565 S
O1237  H1238   0.989   .     S
O1239  H1396   0.986   1_455 S
H1240  O1317   0.986   .     S
O1241  H1242   0.989   .     S
O1243  H1244   0.991   .     S
O1245  N1357   1.339   1_455 S
O1245  H1402   0.990   1_455 S
H1246  O1323   0.990   .     S
O1247  N1280   1.339   .     S
O1247  H1326   0.990   .     S
H1248  O1403   0.990   1_455 S
C1249  O1281   1.293   .     A
C1249  O1283   1.293   .     A
C1249  C1255   1.430   .     S
C1250  O1282   1.293   .     A
C1250  O1284   1.293   .     A
C1250  C1256   1.430   .     S
C1251  O1319   1.384   .     S
C1251  C1272   1.422   .     A
C1251  C1253   1.409   .     A
C1252  C1254   1.394   .     A
C1252  C1271   1.421   .     A
C1252  O1321   1.377   .     S
C1254  C568    1.410   1_556 S
C1254  O1369   1.380   .     S
C1255  C788    1.332   1_565 S
C1255  H809    1.088   1_565 S
C1257  O1287   1.308   .     A
C1257  O1285   1.301   .     A
C1257  C1259   1.479   .     S
C1258  O1288   1.301   .     A
C1258  C1260   1.470   .     S
C1258  O1286   1.302   .     A
C1259  C1263   1.416   .     A
C1259  C1265   1.404   .     A
C1260  C1264   1.415   .     A
C1260  C1266   1.406   .     A
C1261  C1269   1.406   .     A
C1261  C1263   1.395   .     A
C1262  C1264   1.392   .     A
C1262  C1270   1.409   .     A
C1262  H1354   1.080   .     S
C1263  O1317   1.378   .     S
C1264  O1315   1.379   .     S
C1265  O1304   1.384   .     S
C1265  C1267   1.420   .     A
C1266  O1293   1.388   .     S
C1266  C1268   1.413   .     A
C1267  C1269   1.413   .     A
C1267  C1271   1.424   .     A
C1268  C1272   1.428   .     A
C1268  C1270   1.420   .     A
C1269  C551    1.412   1_556 S
C1271  C570    1.418   1_556 S
Cu1273 O1288   1.913   .     S
Cu1273 O1285   1.931   .     S
Cu1273 N1280   2.029   .     S
Cu1273 Cu1274  2.700   .     S
Cu1273 O1284   1.951   .     S
Cu1273 O1281   1.952   .     S
Cu1274 O1287   1.913   .     S
Cu1274 O1282   1.952   .     S
Cu1274 N1279   2.029   .     S
Cu1274 O1286   1.931   .     S
Cu1274 O1283   1.951   .     S
H1275  C1339   1.081   .     S
H1278  C788    1.088   1_565 S
N1279  N1358   1.284   .     S
N1279  O1401   1.339   .     S
O1289  H1290   0.990   .     S
O1289  C1331   1.379   .     S
O1291  H1292   0.989   .     S
O1293  C1294   1.416   .     S
C1294  C1297   1.533   .     S
C1294  H1296   1.116   .     S
C1294  H1295   1.111   .     S
C1297  H1299   1.111   .     S
C1297  H1298   1.112   .     S
C1300  H1303   1.111   .     S
C1300  H1302   1.110   .     S
C1300  H1301   1.110   .     S
C1300  C829    1.528   1_565 S
O1304  C1305   1.411   .     S
C1305  H1307   1.115   .     S
C1305  C1308   1.530   .     S
C1305  H1306   1.114   .     S
C1308  C1311   1.528   .     S
C1308  H1309   1.112   .     S
C1308  H842    1.112   1_565 S
C1311  H1314   1.107   .     S
C1311  H1312   1.111   .     S
C1311  H845    1.104   1_565 S
O1315  H1316   0.989   .     S
H1318  O1395   0.986   .     S
O1319  H1320   0.989   .     S
O1321  H1322   0.991   .     S
H1324  O1401   0.990   .     S
O1325  N1358   1.339   .     S
O1325  H1404   0.990   .     S
C1327  O1359   1.293   .     A
C1327  O1361   1.293   .     A
C1327  C1333   1.430   .     S
C1328  O1360   1.293   .     A
C1328  O1362   1.293   .     A
C1328  C1334   1.430   .     S
C1329  O1397   1.384   .     S
C1329  C1350   1.422   .     A
C1329  C1331   1.409   .     A
C1330  C1332   1.394   .     A
C1330  C1349   1.421   .     A
C1330  O1399   1.377   .     S
C1332  C646    1.410   1_556 S
C1332  O1213   1.380   1_655 S
C1333  C866    1.332   1_565 S
C1333  H887    1.088   1_565 S
C1335  O1365   1.308   .     A
C1335  O1363   1.301   .     A
C1335  C1337   1.479   .     S
C1336  O1366   1.301   .     A
C1336  C1338   1.470   .     S
C1336  O1364   1.302   .     A
C1337  C1341   1.416   .     A
C1337  C1343   1.404   .     A
C1338  C1342   1.415   .     A
C1338  C1344   1.406   .     A
C1339  C1347   1.406   .     A
C1339  C1341   1.395   .     A
C1340  C1342   1.392   .     A
C1340  C1348   1.409   .     A
C1340  H1198   1.080   1_655 S
C1341  O1395   1.378   .     S
C1342  O1393   1.379   .     S
C1343  O1382   1.384   .     S
C1343  C1345   1.420   .     A
C1344  O1371   1.388   .     S
C1344  C1346   1.413   .     A
C1345  C1347   1.413   .     A
C1345  C1349   1.424   .     A
C1346  C1350   1.428   .     A
C1346  C1348   1.420   .     A
C1347  C629    1.412   1_556 S
C1349  C648    1.418   1_556 S
Cu1351 O1366   1.913   .     S
Cu1351 O1363   1.931   .     S
Cu1351 N1358   2.029   .     S
Cu1351 Cu1352  2.700   .     S
Cu1351 O1362   1.951   .     S
Cu1351 O1359   1.952   .     S
Cu1352 O1365   1.913   .     S
Cu1352 O1360   1.952   .     S
Cu1352 N1357   2.029   .     S
Cu1352 O1364   1.931   .     S
Cu1352 O1361   1.951   .     S
H1353  C1183   1.081   1_655 S
H1356  C866    1.088   1_565 S
N1357  N1202   1.284   1_655 S
N1357  O1245   1.339   1_655 S
O1367  H1368   0.990   .     S
O1367  C1175   1.379   1_655 S
O1369  H1370   0.989   .     S
O1371  C1372   1.416   .     S
C1372  C1375   1.533   .     S
C1372  H1374   1.116   .     S
C1372  H1373   1.111   .     S
C1375  H1377   1.111   .     S
C1375  H1376   1.112   .     S
C1378  H1381   1.111   .     S
C1378  H1380   1.110   .     S
C1378  H1379   1.110   .     S
C1378  C907    1.528   1_565 S
O1382  C1383   1.411   .     S
C1383  H1385   1.115   .     S
C1383  C1386   1.530   .     S
C1383  H1384   1.114   .     S
C1386  C1389   1.528   .     S
C1386  H1387   1.112   .     S
C1386  H920    1.112   1_565 S
C1389  H1392   1.107   .     S
C1389  H1390   1.111   .     S
C1389  H923    1.104   1_565 S
O1393  H1394   0.989   .     S
H1396  O1239   0.986   1_655 S
O1397  H1398   0.989   .     S
O1399  H1400   0.991   .     S
H1402  O1245   0.990   1_655 S
O1403  N1202   1.339   1_655 S
O1403  H1248   0.990   1_655 S
