data_str_m2_o1_o18_pcu_sym.23
_audit_creation_date              2020-01-03
_audit_creation_method            'Materials Studio'
_symmetry_space_group_name_H-M    'P1'
_symmetry_Int_Tables_number       1
_symmetry_cell_setting            triclinic
loop_
_symmetry_equiv_pos_as_xyz
  x,y,z
_cell_length_a                    28.6918
_cell_length_b                    32.4814
_cell_length_c                    30.6253
_cell_angle_alpha                 88.5609
_cell_angle_beta                  74.6023
_cell_angle_gamma                 89.4848
loop_
_atom_site_label
_atom_site_type_symbol
_atom_site_fract_x
_atom_site_fract_y
_atom_site_fract_z
_atom_site_U_iso_or_equiv
_atom_site_adp_type
_atom_site_occupancy
C1     C     0.00006   0.08740   0.25017   0.00000  Uiso   1.00
C2     C     0.04329   0.02103   0.24636   0.00000  Uiso   1.00
C3     C     0.33320   0.29058   0.24998   0.00000  Uiso   1.00
C4     C     0.00008   0.04277   0.25028   0.00000  Uiso   1.00
C5     C     0.18567   0.13711   0.27337   0.00000  Uiso   1.00
C6     C     0.14769   0.19616   0.22655   0.00000  Uiso   1.00
C7     C     0.13629   0.13702   0.27398   0.00000  Uiso   1.00
C8     C     0.19706   0.19627   0.22596   0.00000  Uiso   1.00
C9     C     0.30616   0.16708   0.33626   0.00000  Uiso   1.00
C10    C     0.02724   0.16382   0.16373   0.00000  Uiso   1.00
C11    C     0.29091   0.17098   0.38587   0.00000  Uiso   1.00
C12    C     0.33325   0.24594   0.24993   0.00000  Uiso   1.00
C13    C     0.04224   0.15874   0.11378   0.00000  Uiso   1.00
C14    C     0.29927   0.20391   0.45363   0.00000  Uiso   1.00
C15    C     0.02395   0.15898   0.04053   0.00000  Uiso   1.00
C16    C     0.31814   0.19519   0.40768   0.00000  Uiso   1.00
C17    C     0.00790   0.16033   0.08802   0.00000  Uiso   1.00
C18    C     0.24558   0.15489   0.41049   0.00000  Uiso   1.00
C19    C     0.09176   0.15250   0.09117   0.00000  Uiso   1.00
C20    C     0.22285   0.17183   0.45323   0.00000  Uiso   1.00
C21    C     0.10739   0.16247   0.04431   0.00000  Uiso   1.00
C22    C     0.25200   0.19262   0.47634   0.00000  Uiso   1.00
C23    C     0.18657   0.19081   0.04495   0.00000  Uiso   1.00
C24    C     0.07328   0.16116   0.01858   0.00000  Uiso   1.00
C25    C     0.17262   0.16822   0.47449   0.00000  Uiso   1.00
C26    C     0.15592   0.17254   0.02195   0.00000  Uiso   1.00
C27    C     0.12398   0.12650   0.11417   0.00000  Uiso   1.00
C28    C     0.15052   0.09118   0.08488   0.00000  Uiso   1.00
C29    C     0.17554   0.06252   0.11193   0.00000  Uiso   1.00
C30    C     0.22758   0.11492   0.39484   0.00000  Uiso   1.00
C31    C     0.22038   0.08035   0.43123   0.00000  Uiso   1.00
C32    C     0.20781   0.03968   0.41320   0.00000  Uiso   1.00
C33    C     0.13812   0.16511   0.44947   0.00000  Uiso   1.00
C34    C     0.23334   0.20237   0.02186   0.00000  Uiso   1.00
C35    C     0.08896   0.16260   0.47127   0.00000  Uiso   1.00
C36    C     0.29008   0.02158   0.25413   0.00000  Uiso   1.00
C37    C     0.04318   0.31178   0.24623   0.00000  Uiso   1.00
C38    C     0.28999   0.31232   0.25393   0.00000  Uiso   1.00
Cu39   Cu    0.04689   0.16667   0.25000   0.00000  Uiso   1.00
Cu40   Cu    0.28645   0.16666   0.25000   0.00000  Uiso   1.00
H41    H     0.25521   0.21850   0.03983   0.00000  Uiso   1.00
H42    H     0.07715   0.03684   0.24321   0.00000  Uiso   1.00
H43    H     0.19947   0.11366   0.29239   0.00000  Uiso   1.00
H44    H     0.13390   0.21958   0.20748   0.00000  Uiso   1.00
H45    H     0.20212   0.07997   0.12474   0.00000  Uiso   1.00
H46    H     0.14856   0.04799   0.14101   0.00000  Uiso   1.00
H47    H     0.19498   0.03782   0.08978   0.00000  Uiso   1.00
H48    H     0.12423   0.07303   0.07236   0.00000  Uiso   1.00
H49    H     0.17861   0.10330   0.05524   0.00000  Uiso   1.00
H50    H     0.15007   0.14598   0.12518   0.00000  Uiso   1.00
H51    H     0.10125   0.11092   0.14507   0.00000  Uiso   1.00
H52    H     0.06321   0.16175   0.45108   0.00000  Uiso   1.00
H53    H     0.17391   0.04297   0.40240   0.00000  Uiso   1.00
H54    H     0.23755   0.02990   0.38396   0.00000  Uiso   1.00
H55    H     0.20249   0.01544   0.44028   0.00000  Uiso   1.00
H56    H     0.25412   0.07616   0.44220   0.00000  Uiso   1.00
H57    H     0.19068   0.08822   0.46130   0.00000  Uiso   1.00
H58    H     0.19429   0.11960   0.38370   0.00000  Uiso   1.00
H59    H     0.25466   0.10311   0.36472   0.00000  Uiso   1.00
H60    H     0.27361   0.16006   0.08695   0.00000  Uiso   1.00
H61    H     0.04330   0.22674   0.40379   0.00000  Uiso   1.00
H62    H     0.07531   0.11586   0.30952   0.00000  Uiso   1.00
H63    H     0.32076   0.22109   0.47113   0.00000  Uiso   1.00
H64    H     0.25807   0.21748   0.19051   0.00000  Uiso   1.00
H65    H     0.33119   0.15801   0.02073   0.00000  Uiso   1.00
H66    H     0.17331   0.19957   0.07988   0.00000  Uiso   1.00
H67    H     0.14829   0.16866   0.41304   0.00000  Uiso   1.00
H68    H     0.25622   0.03781   0.25737   0.00000  Uiso   1.00
H69    H     0.07703   0.29555   0.24303   0.00000  Uiso   1.00
H70    H     0.25614   0.29652   0.25701   0.00000  Uiso   1.00
N71    N     0.11736   0.16668   0.24999   0.00000  Uiso   1.00
N72    N     0.21597   0.16666   0.25001   0.00000  Uiso   1.00
O73    O     0.03958   0.10655   0.25000   0.00000  Uiso   1.00
O74    O     0.02935   0.21025   0.38355   0.00000  Uiso   1.00
O75    O     0.10876   0.10607   0.29934   0.00000  Uiso   1.00
O76    O     0.22459   0.22720   0.20056   0.00000  Uiso   1.00
O77    O     0.29375   0.22678   0.25000   0.00000  Uiso   1.00
O78    O     0.29372   0.10654   0.25000   0.00000  Uiso   1.00
O79    O     0.03961   0.22679   0.24999   0.00000  Uiso   1.00
O80    O     0.01852   0.16668   0.31491   0.00000  Uiso   1.00
O81    O     0.31481   0.16666   0.18508   0.00000  Uiso   1.00
O82    O     0.27267   0.16667   0.31492   0.00000  Uiso   1.00
O83    O     0.06067   0.16667   0.18508   0.00000  Uiso   1.00
O84    O     0.29244   0.16169   0.10968   0.00000  Uiso   1.00
C85    C     0.33340   0.08740   0.25017   0.00000  Uiso   1.00
C86    C     0.37662   0.02103   0.24636   0.00000  Uiso   1.00
C87    C     0.66653   0.29058   0.24998   0.00000  Uiso   1.00
C88    C     0.33341   0.04277   0.25028   0.00000  Uiso   1.00
C89    C     0.51900   0.13711   0.27337   0.00000  Uiso   1.00
C90    C     0.48102   0.19616   0.22655   0.00000  Uiso   1.00
C91    C     0.46963   0.13702   0.27398   0.00000  Uiso   1.00
C92    C     0.53039   0.19627   0.22596   0.00000  Uiso   1.00
C93    C     0.63949   0.16708   0.33626   0.00000  Uiso   1.00
C94    C     0.36057   0.16382   0.16373   0.00000  Uiso   1.00
C95    C     0.62425   0.17098   0.38587   0.00000  Uiso   1.00
C96    C     0.66658   0.24594   0.24993   0.00000  Uiso   1.00
C97    C     0.37557   0.15874   0.11378   0.00000  Uiso   1.00
C98    C     0.63260   0.20391   0.45363   0.00000  Uiso   1.00
C99    C     0.35728   0.15898   0.04053   0.00000  Uiso   1.00
C100   C     0.65147   0.19519   0.40768   0.00000  Uiso   1.00
C101   C     0.34124   0.16033   0.08802   0.00000  Uiso   1.00
C102   C     0.57891   0.15489   0.41049   0.00000  Uiso   1.00
C103   C     0.42510   0.15250   0.09117   0.00000  Uiso   1.00
C104   C     0.55618   0.17183   0.45323   0.00000  Uiso   1.00
C105   C     0.44073   0.16247   0.04431   0.00000  Uiso   1.00
C106   C     0.58533   0.19262   0.47634   0.00000  Uiso   1.00
C107   C     0.51990   0.19081   0.04495   0.00000  Uiso   1.00
C108   C     0.40661   0.16116   0.01858   0.00000  Uiso   1.00
C109   C     0.50595   0.16822   0.47449   0.00000  Uiso   1.00
C110   C     0.48925   0.17254   0.02195   0.00000  Uiso   1.00
C111   C     0.45731   0.12650   0.11417   0.00000  Uiso   1.00
C112   C     0.48385   0.09118   0.08488   0.00000  Uiso   1.00
C113   C     0.50887   0.06252   0.11193   0.00000  Uiso   1.00
C114   C     0.56092   0.11492   0.39484   0.00000  Uiso   1.00
C115   C     0.55371   0.08035   0.43123   0.00000  Uiso   1.00
C116   C     0.54115   0.03968   0.41320   0.00000  Uiso   1.00
C117   C     0.47145   0.16511   0.44947   0.00000  Uiso   1.00
C118   C     0.56668   0.20237   0.02186   0.00000  Uiso   1.00
C119   C     0.42229   0.16260   0.47127   0.00000  Uiso   1.00
C120   C     0.62341   0.02158   0.25413   0.00000  Uiso   1.00
C121   C     0.37652   0.31178   0.24623   0.00000  Uiso   1.00
C122   C     0.62332   0.31232   0.25393   0.00000  Uiso   1.00
Cu123  Cu    0.38022   0.16667   0.25000   0.00000  Uiso   1.00
Cu124  Cu    0.61978   0.16666   0.25000   0.00000  Uiso   1.00
H125   H     0.58854   0.21850   0.03983   0.00000  Uiso   1.00
H126   H     0.41048   0.03684   0.24321   0.00000  Uiso   1.00
H127   H     0.53281   0.11366   0.29239   0.00000  Uiso   1.00
H128   H     0.46723   0.21958   0.20748   0.00000  Uiso   1.00
H129   H     0.53545   0.07997   0.12474   0.00000  Uiso   1.00
H130   H     0.48189   0.04799   0.14101   0.00000  Uiso   1.00
H131   H     0.52831   0.03782   0.08978   0.00000  Uiso   1.00
H132   H     0.45756   0.07303   0.07236   0.00000  Uiso   1.00
H133   H     0.51194   0.10330   0.05524   0.00000  Uiso   1.00
H134   H     0.48340   0.14598   0.12518   0.00000  Uiso   1.00
H135   H     0.43459   0.11092   0.14507   0.00000  Uiso   1.00
H136   H     0.39654   0.16175   0.45108   0.00000  Uiso   1.00
H137   H     0.50725   0.04297   0.40240   0.00000  Uiso   1.00
H138   H     0.57088   0.02990   0.38396   0.00000  Uiso   1.00
H139   H     0.53582   0.01544   0.44028   0.00000  Uiso   1.00
H140   H     0.58745   0.07616   0.44220   0.00000  Uiso   1.00
H141   H     0.52401   0.08822   0.46130   0.00000  Uiso   1.00
H142   H     0.52763   0.11960   0.38370   0.00000  Uiso   1.00
H143   H     0.58799   0.10311   0.36472   0.00000  Uiso   1.00
H144   H     0.60694   0.16006   0.08695   0.00000  Uiso   1.00
H145   H     0.37663   0.22674   0.40379   0.00000  Uiso   1.00
H146   H     0.40864   0.11586   0.30952   0.00000  Uiso   1.00
H147   H     0.65410   0.22109   0.47113   0.00000  Uiso   1.00
H148   H     0.59141   0.21748   0.19051   0.00000  Uiso   1.00
H149   H     0.66453   0.15801   0.02073   0.00000  Uiso   1.00
H150   H     0.50664   0.19957   0.07988   0.00000  Uiso   1.00
H151   H     0.48162   0.16866   0.41304   0.00000  Uiso   1.00
H152   H     0.58956   0.03781   0.25737   0.00000  Uiso   1.00
H153   H     0.41036   0.29555   0.24303   0.00000  Uiso   1.00
H154   H     0.58947   0.29652   0.25701   0.00000  Uiso   1.00
N155   N     0.45069   0.16668   0.24999   0.00000  Uiso   1.00
N156   N     0.54931   0.16666   0.25001   0.00000  Uiso   1.00
O157   O     0.37291   0.10655   0.25000   0.00000  Uiso   1.00
O158   O     0.36269   0.21025   0.38355   0.00000  Uiso   1.00
O159   O     0.44209   0.10607   0.29934   0.00000  Uiso   1.00
O160   O     0.55792   0.22720   0.20056   0.00000  Uiso   1.00
O161   O     0.62709   0.22678   0.25000   0.00000  Uiso   1.00
O162   O     0.62706   0.10654   0.25000   0.00000  Uiso   1.00
O163   O     0.37294   0.22679   0.24999   0.00000  Uiso   1.00
O164   O     0.35186   0.16668   0.31491   0.00000  Uiso   1.00
O165   O     0.64814   0.16666   0.18508   0.00000  Uiso   1.00
O166   O     0.60600   0.16667   0.31492   0.00000  Uiso   1.00
O167   O     0.39400   0.16667   0.18508   0.00000  Uiso   1.00
O168   O     0.62577   0.16169   0.10968   0.00000  Uiso   1.00
C169   C     0.66673   0.08740   0.25017   0.00000  Uiso   1.00
C170   C     0.70995   0.02103   0.24636   0.00000  Uiso   1.00
C171   C     0.99987   0.29058   0.24998   0.00000  Uiso   1.00
C172   C     0.66674   0.04277   0.25028   0.00000  Uiso   1.00
C173   C     0.85233   0.13711   0.27337   0.00000  Uiso   1.00
C174   C     0.81435   0.19616   0.22655   0.00000  Uiso   1.00
C175   C     0.80296   0.13702   0.27398   0.00000  Uiso   1.00
C176   C     0.86372   0.19627   0.22596   0.00000  Uiso   1.00
C177   C     0.97282   0.16708   0.33626   0.00000  Uiso   1.00
C178   C     0.69390   0.16382   0.16373   0.00000  Uiso   1.00
C179   C     0.95758   0.17098   0.38587   0.00000  Uiso   1.00
C180   C     0.99991   0.24594   0.24993   0.00000  Uiso   1.00
C181   C     0.70891   0.15874   0.11378   0.00000  Uiso   1.00
C182   C     0.96594   0.20391   0.45363   0.00000  Uiso   1.00
C183   C     0.69062   0.15898   0.04053   0.00000  Uiso   1.00
C184   C     0.98480   0.19519   0.40768   0.00000  Uiso   1.00
C185   C     0.67457   0.16033   0.08802   0.00000  Uiso   1.00
C186   C     0.91224   0.15489   0.41049   0.00000  Uiso   1.00
C187   C     0.75843   0.15250   0.09117   0.00000  Uiso   1.00
C188   C     0.88951   0.17183   0.45323   0.00000  Uiso   1.00
C189   C     0.77406   0.16247   0.04431   0.00000  Uiso   1.00
C190   C     0.91866   0.19262   0.47634   0.00000  Uiso   1.00
C191   C     0.85324   0.19081   0.04495   0.00000  Uiso   1.00
C192   C     0.73994   0.16116   0.01858   0.00000  Uiso   1.00
C193   C     0.83928   0.16822   0.47449   0.00000  Uiso   1.00
C194   C     0.82258   0.17254   0.02195   0.00000  Uiso   1.00
C195   C     0.79065   0.12650   0.11417   0.00000  Uiso   1.00
C196   C     0.81718   0.09118   0.08488   0.00000  Uiso   1.00
C197   C     0.84220   0.06252   0.11193   0.00000  Uiso   1.00
C198   C     0.89425   0.11492   0.39484   0.00000  Uiso   1.00
C199   C     0.88704   0.08035   0.43123   0.00000  Uiso   1.00
C200   C     0.87448   0.03968   0.41320   0.00000  Uiso   1.00
C201   C     0.80479   0.16511   0.44947   0.00000  Uiso   1.00
C202   C     0.90001   0.20237   0.02186   0.00000  Uiso   1.00
C203   C     0.75563   0.16260   0.47127   0.00000  Uiso   1.00
C204   C     0.95674   0.02158   0.25413   0.00000  Uiso   1.00
C205   C     0.70985   0.31178   0.24623   0.00000  Uiso   1.00
C206   C     0.95665   0.31232   0.25393   0.00000  Uiso   1.00
Cu207  Cu    0.71355   0.16667   0.25000   0.00000  Uiso   1.00
Cu208  Cu    0.95311   0.16666   0.25000   0.00000  Uiso   1.00
H209   H     0.92188   0.21850   0.03983   0.00000  Uiso   1.00
H210   H     0.74382   0.03684   0.24321   0.00000  Uiso   1.00
H211   H     0.86614   0.11366   0.29239   0.00000  Uiso   1.00
H212   H     0.80056   0.21958   0.20748   0.00000  Uiso   1.00
H213   H     0.86878   0.07997   0.12474   0.00000  Uiso   1.00
H214   H     0.81522   0.04799   0.14101   0.00000  Uiso   1.00
H215   H     0.86164   0.03782   0.08978   0.00000  Uiso   1.00
H216   H     0.79090   0.07303   0.07236   0.00000  Uiso   1.00
H217   H     0.84528   0.10330   0.05524   0.00000  Uiso   1.00
H218   H     0.81674   0.14598   0.12518   0.00000  Uiso   1.00
H219   H     0.76792   0.11092   0.14507   0.00000  Uiso   1.00
H220   H     0.72988   0.16175   0.45108   0.00000  Uiso   1.00
H221   H     0.84058   0.04297   0.40240   0.00000  Uiso   1.00
H222   H     0.90421   0.02990   0.38396   0.00000  Uiso   1.00
H223   H     0.86916   0.01544   0.44028   0.00000  Uiso   1.00
H224   H     0.92078   0.07616   0.44220   0.00000  Uiso   1.00
H225   H     0.85735   0.08822   0.46130   0.00000  Uiso   1.00
H226   H     0.86096   0.11960   0.38370   0.00000  Uiso   1.00
H227   H     0.92133   0.10311   0.36472   0.00000  Uiso   1.00
H228   H     0.94027   0.16006   0.08695   0.00000  Uiso   1.00
H229   H     0.70997   0.22674   0.40379   0.00000  Uiso   1.00
H230   H     0.74197   0.11586   0.30952   0.00000  Uiso   1.00
H231   H     0.98743   0.22109   0.47113   0.00000  Uiso   1.00
H232   H     0.92474   0.21748   0.19051   0.00000  Uiso   1.00
H233   H     0.99786   0.15801   0.02073   0.00000  Uiso   1.00
H234   H     0.83998   0.19957   0.07988   0.00000  Uiso   1.00
H235   H     0.81495   0.16866   0.41304   0.00000  Uiso   1.00
H236   H     0.92289   0.03781   0.25737   0.00000  Uiso   1.00
H237   H     0.74370   0.29555   0.24303   0.00000  Uiso   1.00
H238   H     0.92281   0.29652   0.25701   0.00000  Uiso   1.00
N239   N     0.78403   0.16668   0.24999   0.00000  Uiso   1.00
N240   N     0.88264   0.16666   0.25001   0.00000  Uiso   1.00
O241   O     0.70625   0.10655   0.25000   0.00000  Uiso   1.00
O242   O     0.69602   0.21025   0.38355   0.00000  Uiso   1.00
O243   O     0.77542   0.10607   0.29934   0.00000  Uiso   1.00
O244   O     0.89126   0.22720   0.20056   0.00000  Uiso   1.00
O245   O     0.96042   0.22678   0.25000   0.00000  Uiso   1.00
O246   O     0.96039   0.10654   0.25000   0.00000  Uiso   1.00
O247   O     0.70628   0.22679   0.24999   0.00000  Uiso   1.00
O248   O     0.68519   0.16668   0.31491   0.00000  Uiso   1.00
O249   O     0.98148   0.16666   0.18508   0.00000  Uiso   1.00
O250   O     0.93933   0.16667   0.31492   0.00000  Uiso   1.00
O251   O     0.72733   0.16667   0.18508   0.00000  Uiso   1.00
O252   O     0.95910   0.16169   0.10968   0.00000  Uiso   1.00
C253   C     0.00006   0.42073   0.25017   0.00000  Uiso   1.00
C254   C     0.04329   0.35437   0.24636   0.00000  Uiso   1.00
C255   C     0.33320   0.62391   0.24998   0.00000  Uiso   1.00
C256   C     0.00008   0.37610   0.25028   0.00000  Uiso   1.00
C257   C     0.18567   0.47045   0.27337   0.00000  Uiso   1.00
C258   C     0.14769   0.52950   0.22655   0.00000  Uiso   1.00
C259   C     0.13629   0.47035   0.27398   0.00000  Uiso   1.00
C260   C     0.19706   0.52961   0.22596   0.00000  Uiso   1.00
C261   C     0.30616   0.50041   0.33626   0.00000  Uiso   1.00
C262   C     0.02724   0.49715   0.16373   0.00000  Uiso   1.00
C263   C     0.29091   0.50431   0.38587   0.00000  Uiso   1.00
C264   C     0.33325   0.57927   0.24993   0.00000  Uiso   1.00
C265   C     0.04224   0.49208   0.11378   0.00000  Uiso   1.00
C266   C     0.29927   0.53724   0.45363   0.00000  Uiso   1.00
C267   C     0.02395   0.49231   0.04053   0.00000  Uiso   1.00
C268   C     0.31814   0.52853   0.40768   0.00000  Uiso   1.00
C269   C     0.00790   0.49366   0.08802   0.00000  Uiso   1.00
C270   C     0.24558   0.48822   0.41049   0.00000  Uiso   1.00
C271   C     0.09176   0.48583   0.09117   0.00000  Uiso   1.00
C272   C     0.22285   0.50516   0.45323   0.00000  Uiso   1.00
C273   C     0.10739   0.49580   0.04431   0.00000  Uiso   1.00
C274   C     0.25200   0.52596   0.47634   0.00000  Uiso   1.00
C275   C     0.18657   0.52415   0.04495   0.00000  Uiso   1.00
C276   C     0.07328   0.49450   0.01858   0.00000  Uiso   1.00
C277   C     0.17262   0.50155   0.47449   0.00000  Uiso   1.00
C278   C     0.15592   0.50587   0.02195   0.00000  Uiso   1.00
C279   C     0.12398   0.45984   0.11417   0.00000  Uiso   1.00
C280   C     0.15052   0.42451   0.08488   0.00000  Uiso   1.00
C281   C     0.17554   0.39586   0.11193   0.00000  Uiso   1.00
C282   C     0.22758   0.44825   0.39484   0.00000  Uiso   1.00
C283   C     0.22038   0.41368   0.43123   0.00000  Uiso   1.00
C284   C     0.20781   0.37301   0.41320   0.00000  Uiso   1.00
C285   C     0.13812   0.49845   0.44947   0.00000  Uiso   1.00
C286   C     0.23334   0.53570   0.02186   0.00000  Uiso   1.00
C287   C     0.08896   0.49594   0.47127   0.00000  Uiso   1.00
C288   C     0.29008   0.35491   0.25413   0.00000  Uiso   1.00
C289   C     0.04318   0.64511   0.24623   0.00000  Uiso   1.00
C290   C     0.28999   0.64566   0.25393   0.00000  Uiso   1.00
Cu291  Cu    0.04689   0.50001   0.25000   0.00000  Uiso   1.00
Cu292  Cu    0.28645   0.49999   0.25000   0.00000  Uiso   1.00
H293   H     0.25521   0.55183   0.03983   0.00000  Uiso   1.00
H294   H     0.07715   0.37018   0.24321   0.00000  Uiso   1.00
H295   H     0.19947   0.44699   0.29239   0.00000  Uiso   1.00
H296   H     0.13390   0.55291   0.20748   0.00000  Uiso   1.00
H297   H     0.20212   0.41331   0.12474   0.00000  Uiso   1.00
H298   H     0.14856   0.38133   0.14101   0.00000  Uiso   1.00
H299   H     0.19498   0.37116   0.08978   0.00000  Uiso   1.00
H300   H     0.12423   0.40636   0.07236   0.00000  Uiso   1.00
H301   H     0.17861   0.43663   0.05524   0.00000  Uiso   1.00
H302   H     0.15007   0.47932   0.12518   0.00000  Uiso   1.00
H303   H     0.10125   0.44425   0.14507   0.00000  Uiso   1.00
H304   H     0.06321   0.49509   0.45108   0.00000  Uiso   1.00
H305   H     0.17391   0.37631   0.40240   0.00000  Uiso   1.00
H306   H     0.23755   0.36323   0.38396   0.00000  Uiso   1.00
H307   H     0.20249   0.34878   0.44028   0.00000  Uiso   1.00
H308   H     0.25412   0.40949   0.44220   0.00000  Uiso   1.00
H309   H     0.19068   0.42155   0.46130   0.00000  Uiso   1.00
H310   H     0.19429   0.45293   0.38370   0.00000  Uiso   1.00
H311   H     0.25466   0.43644   0.36472   0.00000  Uiso   1.00
H312   H     0.27361   0.49340   0.08695   0.00000  Uiso   1.00
H313   H     0.04330   0.56007   0.40379   0.00000  Uiso   1.00
H314   H     0.07531   0.44919   0.30952   0.00000  Uiso   1.00
H315   H     0.32076   0.55442   0.47113   0.00000  Uiso   1.00
H316   H     0.25807   0.55081   0.19051   0.00000  Uiso   1.00
H317   H     0.33119   0.49134   0.02073   0.00000  Uiso   1.00
H318   H     0.17331   0.53291   0.07988   0.00000  Uiso   1.00
H319   H     0.14829   0.50199   0.41304   0.00000  Uiso   1.00
H320   H     0.25622   0.37114   0.25737   0.00000  Uiso   1.00
H321   H     0.07703   0.62888   0.24303   0.00000  Uiso   1.00
H322   H     0.25614   0.62985   0.25701   0.00000  Uiso   1.00
N323   N     0.11736   0.50001   0.24999   0.00000  Uiso   1.00
N324   N     0.21597   0.49999   0.25001   0.00000  Uiso   1.00
O325   O     0.03958   0.43989   0.25000   0.00000  Uiso   1.00
O326   O     0.02935   0.54358   0.38355   0.00000  Uiso   1.00
O327   O     0.10876   0.43940   0.29934   0.00000  Uiso   1.00
O328   O     0.22459   0.56054   0.20056   0.00000  Uiso   1.00
O329   O     0.29375   0.56011   0.25000   0.00000  Uiso   1.00
O330   O     0.29372   0.43988   0.25000   0.00000  Uiso   1.00
O331   O     0.03961   0.56012   0.24999   0.00000  Uiso   1.00
O332   O     0.01852   0.50001   0.31491   0.00000  Uiso   1.00
O333   O     0.31481   0.49999   0.18508   0.00000  Uiso   1.00
O334   O     0.27267   0.50000   0.31492   0.00000  Uiso   1.00
O335   O     0.06067   0.50000   0.18508   0.00000  Uiso   1.00
O336   O     0.29244   0.49503   0.10968   0.00000  Uiso   1.00
C337   C     0.33340   0.42073   0.25017   0.00000  Uiso   1.00
C338   C     0.37662   0.35437   0.24636   0.00000  Uiso   1.00
C339   C     0.66653   0.62391   0.24998   0.00000  Uiso   1.00
C340   C     0.33341   0.37610   0.25028   0.00000  Uiso   1.00
C341   C     0.51900   0.47045   0.27337   0.00000  Uiso   1.00
C342   C     0.48102   0.52950   0.22655   0.00000  Uiso   1.00
C343   C     0.46963   0.47035   0.27398   0.00000  Uiso   1.00
C344   C     0.53039   0.52961   0.22596   0.00000  Uiso   1.00
C345   C     0.63949   0.50041   0.33626   0.00000  Uiso   1.00
C346   C     0.36057   0.49715   0.16373   0.00000  Uiso   1.00
C347   C     0.62425   0.50431   0.38587   0.00000  Uiso   1.00
C348   C     0.66658   0.57927   0.24993   0.00000  Uiso   1.00
C349   C     0.37557   0.49208   0.11378   0.00000  Uiso   1.00
C350   C     0.63260   0.53724   0.45363   0.00000  Uiso   1.00
C351   C     0.35728   0.49231   0.04053   0.00000  Uiso   1.00
C352   C     0.65147   0.52853   0.40768   0.00000  Uiso   1.00
C353   C     0.34124   0.49366   0.08802   0.00000  Uiso   1.00
C354   C     0.57891   0.48822   0.41049   0.00000  Uiso   1.00
C355   C     0.42510   0.48583   0.09117   0.00000  Uiso   1.00
C356   C     0.55618   0.50516   0.45323   0.00000  Uiso   1.00
C357   C     0.44073   0.49580   0.04431   0.00000  Uiso   1.00
C358   C     0.58533   0.52596   0.47634   0.00000  Uiso   1.00
C359   C     0.51990   0.52415   0.04495   0.00000  Uiso   1.00
C360   C     0.40661   0.49450   0.01858   0.00000  Uiso   1.00
C361   C     0.50595   0.50155   0.47449   0.00000  Uiso   1.00
C362   C     0.48925   0.50587   0.02195   0.00000  Uiso   1.00
C363   C     0.45731   0.45984   0.11417   0.00000  Uiso   1.00
C364   C     0.48385   0.42451   0.08488   0.00000  Uiso   1.00
C365   C     0.50887   0.39586   0.11193   0.00000  Uiso   1.00
C366   C     0.56092   0.44825   0.39484   0.00000  Uiso   1.00
C367   C     0.55371   0.41368   0.43123   0.00000  Uiso   1.00
C368   C     0.54115   0.37301   0.41320   0.00000  Uiso   1.00
C369   C     0.47145   0.49845   0.44947   0.00000  Uiso   1.00
C370   C     0.56668   0.53570   0.02186   0.00000  Uiso   1.00
C371   C     0.42229   0.49594   0.47127   0.00000  Uiso   1.00
C372   C     0.62341   0.35491   0.25413   0.00000  Uiso   1.00
C373   C     0.37652   0.64511   0.24623   0.00000  Uiso   1.00
C374   C     0.62332   0.64566   0.25393   0.00000  Uiso   1.00
Cu375  Cu    0.38022   0.50001   0.25000   0.00000  Uiso   1.00
Cu376  Cu    0.61978   0.49999   0.25000   0.00000  Uiso   1.00
H377   H     0.58854   0.55183   0.03983   0.00000  Uiso   1.00
H378   H     0.41048   0.37018   0.24321   0.00000  Uiso   1.00
H379   H     0.53281   0.44699   0.29239   0.00000  Uiso   1.00
H380   H     0.46723   0.55291   0.20748   0.00000  Uiso   1.00
H381   H     0.53545   0.41331   0.12474   0.00000  Uiso   1.00
H382   H     0.48189   0.38133   0.14101   0.00000  Uiso   1.00
H383   H     0.52831   0.37116   0.08978   0.00000  Uiso   1.00
H384   H     0.45756   0.40636   0.07236   0.00000  Uiso   1.00
H385   H     0.51194   0.43663   0.05524   0.00000  Uiso   1.00
H386   H     0.48340   0.47932   0.12518   0.00000  Uiso   1.00
H387   H     0.43459   0.44425   0.14507   0.00000  Uiso   1.00
H388   H     0.39654   0.49509   0.45108   0.00000  Uiso   1.00
H389   H     0.50725   0.37631   0.40240   0.00000  Uiso   1.00
H390   H     0.57088   0.36323   0.38396   0.00000  Uiso   1.00
H391   H     0.53582   0.34878   0.44028   0.00000  Uiso   1.00
H392   H     0.58745   0.40949   0.44220   0.00000  Uiso   1.00
H393   H     0.52401   0.42155   0.46130   0.00000  Uiso   1.00
H394   H     0.52763   0.45293   0.38370   0.00000  Uiso   1.00
H395   H     0.58799   0.43644   0.36472   0.00000  Uiso   1.00
H396   H     0.60694   0.49340   0.08695   0.00000  Uiso   1.00
H397   H     0.37663   0.56007   0.40379   0.00000  Uiso   1.00
H398   H     0.40864   0.44919   0.30952   0.00000  Uiso   1.00
H399   H     0.65410   0.55442   0.47113   0.00000  Uiso   1.00
H400   H     0.59141   0.55081   0.19051   0.00000  Uiso   1.00
H401   H     0.66453   0.49134   0.02073   0.00000  Uiso   1.00
H402   H     0.50664   0.53291   0.07988   0.00000  Uiso   1.00
H403   H     0.48162   0.50199   0.41304   0.00000  Uiso   1.00
H404   H     0.58956   0.37114   0.25737   0.00000  Uiso   1.00
H405   H     0.41036   0.62888   0.24303   0.00000  Uiso   1.00
H406   H     0.58947   0.62985   0.25701   0.00000  Uiso   1.00
N407   N     0.45069   0.50001   0.24999   0.00000  Uiso   1.00
N408   N     0.54931   0.49999   0.25001   0.00000  Uiso   1.00
O409   O     0.37291   0.43989   0.25000   0.00000  Uiso   1.00
O410   O     0.36269   0.54358   0.38355   0.00000  Uiso   1.00
O411   O     0.44209   0.43940   0.29934   0.00000  Uiso   1.00
O412   O     0.55792   0.56054   0.20056   0.00000  Uiso   1.00
O413   O     0.62709   0.56011   0.25000   0.00000  Uiso   1.00
O414   O     0.62706   0.43988   0.25000   0.00000  Uiso   1.00
O415   O     0.37294   0.56012   0.24999   0.00000  Uiso   1.00
O416   O     0.35186   0.50001   0.31491   0.00000  Uiso   1.00
O417   O     0.64814   0.49999   0.18508   0.00000  Uiso   1.00
O418   O     0.60600   0.50000   0.31492   0.00000  Uiso   1.00
O419   O     0.39400   0.50000   0.18508   0.00000  Uiso   1.00
O420   O     0.62577   0.49503   0.10968   0.00000  Uiso   1.00
C421   C     0.66673   0.42073   0.25017   0.00000  Uiso   1.00
C422   C     0.70995   0.35437   0.24636   0.00000  Uiso   1.00
C423   C     0.99987   0.62391   0.24998   0.00000  Uiso   1.00
C424   C     0.66674   0.37610   0.25028   0.00000  Uiso   1.00
C425   C     0.85233   0.47045   0.27337   0.00000  Uiso   1.00
C426   C     0.81435   0.52950   0.22655   0.00000  Uiso   1.00
C427   C     0.80296   0.47035   0.27398   0.00000  Uiso   1.00
C428   C     0.86372   0.52961   0.22596   0.00000  Uiso   1.00
C429   C     0.97282   0.50041   0.33626   0.00000  Uiso   1.00
C430   C     0.69390   0.49715   0.16373   0.00000  Uiso   1.00
C431   C     0.95758   0.50431   0.38587   0.00000  Uiso   1.00
C432   C     0.99991   0.57927   0.24993   0.00000  Uiso   1.00
C433   C     0.70891   0.49208   0.11378   0.00000  Uiso   1.00
C434   C     0.96594   0.53724   0.45363   0.00000  Uiso   1.00
C435   C     0.69062   0.49231   0.04053   0.00000  Uiso   1.00
C436   C     0.98480   0.52853   0.40768   0.00000  Uiso   1.00
C437   C     0.67457   0.49366   0.08802   0.00000  Uiso   1.00
C438   C     0.91224   0.48822   0.41049   0.00000  Uiso   1.00
C439   C     0.75843   0.48583   0.09117   0.00000  Uiso   1.00
C440   C     0.88951   0.50516   0.45323   0.00000  Uiso   1.00
C441   C     0.77406   0.49580   0.04431   0.00000  Uiso   1.00
C442   C     0.91866   0.52596   0.47634   0.00000  Uiso   1.00
C443   C     0.85324   0.52415   0.04495   0.00000  Uiso   1.00
C444   C     0.73994   0.49450   0.01858   0.00000  Uiso   1.00
C445   C     0.83928   0.50155   0.47449   0.00000  Uiso   1.00
C446   C     0.82258   0.50587   0.02195   0.00000  Uiso   1.00
C447   C     0.79065   0.45984   0.11417   0.00000  Uiso   1.00
C448   C     0.81718   0.42451   0.08488   0.00000  Uiso   1.00
C449   C     0.84220   0.39586   0.11193   0.00000  Uiso   1.00
C450   C     0.89425   0.44825   0.39484   0.00000  Uiso   1.00
C451   C     0.88704   0.41368   0.43123   0.00000  Uiso   1.00
C452   C     0.87448   0.37301   0.41320   0.00000  Uiso   1.00
C453   C     0.80479   0.49845   0.44947   0.00000  Uiso   1.00
C454   C     0.90001   0.53570   0.02186   0.00000  Uiso   1.00
C455   C     0.75563   0.49594   0.47127   0.00000  Uiso   1.00
C456   C     0.95674   0.35491   0.25413   0.00000  Uiso   1.00
C457   C     0.70985   0.64511   0.24623   0.00000  Uiso   1.00
C458   C     0.95665   0.64566   0.25393   0.00000  Uiso   1.00
Cu459  Cu    0.71355   0.50001   0.25000   0.00000  Uiso   1.00
Cu460  Cu    0.95311   0.49999   0.25000   0.00000  Uiso   1.00
H461   H     0.92188   0.55183   0.03983   0.00000  Uiso   1.00
H462   H     0.74382   0.37018   0.24321   0.00000  Uiso   1.00
H463   H     0.86614   0.44699   0.29239   0.00000  Uiso   1.00
H464   H     0.80056   0.55291   0.20748   0.00000  Uiso   1.00
H465   H     0.86878   0.41331   0.12474   0.00000  Uiso   1.00
H466   H     0.81522   0.38133   0.14101   0.00000  Uiso   1.00
H467   H     0.86164   0.37116   0.08978   0.00000  Uiso   1.00
H468   H     0.79090   0.40636   0.07236   0.00000  Uiso   1.00
H469   H     0.84528   0.43663   0.05524   0.00000  Uiso   1.00
H470   H     0.81674   0.47932   0.12518   0.00000  Uiso   1.00
H471   H     0.76792   0.44425   0.14507   0.00000  Uiso   1.00
H472   H     0.72988   0.49509   0.45108   0.00000  Uiso   1.00
H473   H     0.84058   0.37631   0.40240   0.00000  Uiso   1.00
H474   H     0.90421   0.36323   0.38396   0.00000  Uiso   1.00
H475   H     0.86916   0.34878   0.44028   0.00000  Uiso   1.00
H476   H     0.92078   0.40949   0.44220   0.00000  Uiso   1.00
H477   H     0.85735   0.42155   0.46130   0.00000  Uiso   1.00
H478   H     0.86096   0.45293   0.38370   0.00000  Uiso   1.00
H479   H     0.92133   0.43644   0.36472   0.00000  Uiso   1.00
H480   H     0.94027   0.49340   0.08695   0.00000  Uiso   1.00
H481   H     0.70997   0.56007   0.40379   0.00000  Uiso   1.00
H482   H     0.74197   0.44919   0.30952   0.00000  Uiso   1.00
H483   H     0.98743   0.55442   0.47113   0.00000  Uiso   1.00
H484   H     0.92474   0.55081   0.19051   0.00000  Uiso   1.00
H485   H     0.99786   0.49134   0.02073   0.00000  Uiso   1.00
H486   H     0.83998   0.53291   0.07988   0.00000  Uiso   1.00
H487   H     0.81495   0.50199   0.41304   0.00000  Uiso   1.00
H488   H     0.92289   0.37114   0.25737   0.00000  Uiso   1.00
H489   H     0.74370   0.62888   0.24303   0.00000  Uiso   1.00
H490   H     0.92281   0.62985   0.25701   0.00000  Uiso   1.00
N491   N     0.78403   0.50001   0.24999   0.00000  Uiso   1.00
N492   N     0.88264   0.49999   0.25001   0.00000  Uiso   1.00
O493   O     0.70625   0.43989   0.25000   0.00000  Uiso   1.00
O494   O     0.69602   0.54358   0.38355   0.00000  Uiso   1.00
O495   O     0.77542   0.43940   0.29934   0.00000  Uiso   1.00
O496   O     0.89126   0.56054   0.20056   0.00000  Uiso   1.00
O497   O     0.96042   0.56011   0.25000   0.00000  Uiso   1.00
O498   O     0.96039   0.43988   0.25000   0.00000  Uiso   1.00
O499   O     0.70628   0.56012   0.24999   0.00000  Uiso   1.00
O500   O     0.68519   0.50001   0.31491   0.00000  Uiso   1.00
O501   O     0.98148   0.49999   0.18508   0.00000  Uiso   1.00
O502   O     0.93933   0.50000   0.31492   0.00000  Uiso   1.00
O503   O     0.72733   0.50000   0.18508   0.00000  Uiso   1.00
O504   O     0.95910   0.49503   0.10968   0.00000  Uiso   1.00
C505   C     0.00006   0.75407   0.25017   0.00000  Uiso   1.00
C506   C     0.04329   0.68770   0.24636   0.00000  Uiso   1.00
C507   C     0.33320   0.95725   0.24998   0.00000  Uiso   1.00
C508   C     0.00008   0.70943   0.25028   0.00000  Uiso   1.00
C509   C     0.18567   0.80378   0.27337   0.00000  Uiso   1.00
C510   C     0.14769   0.86283   0.22655   0.00000  Uiso   1.00
C511   C     0.13629   0.80368   0.27398   0.00000  Uiso   1.00
C512   C     0.19706   0.86294   0.22596   0.00000  Uiso   1.00
C513   C     0.30616   0.83375   0.33626   0.00000  Uiso   1.00
C514   C     0.02724   0.83049   0.16373   0.00000  Uiso   1.00
C515   C     0.29091   0.83765   0.38587   0.00000  Uiso   1.00
C516   C     0.33325   0.91260   0.24993   0.00000  Uiso   1.00
C517   C     0.04224   0.82541   0.11378   0.00000  Uiso   1.00
C518   C     0.29927   0.87057   0.45363   0.00000  Uiso   1.00
C519   C     0.02395   0.82564   0.04053   0.00000  Uiso   1.00
C520   C     0.31814   0.86186   0.40768   0.00000  Uiso   1.00
C521   C     0.00790   0.82699   0.08802   0.00000  Uiso   1.00
C522   C     0.24558   0.82156   0.41049   0.00000  Uiso   1.00
C523   C     0.09176   0.81916   0.09117   0.00000  Uiso   1.00
C524   C     0.22285   0.83850   0.45323   0.00000  Uiso   1.00
C525   C     0.10739   0.82914   0.04431   0.00000  Uiso   1.00
C526   C     0.25200   0.85929   0.47634   0.00000  Uiso   1.00
C527   C     0.18657   0.85748   0.04495   0.00000  Uiso   1.00
C528   C     0.07328   0.82783   0.01858   0.00000  Uiso   1.00
C529   C     0.17262   0.83488   0.47449   0.00000  Uiso   1.00
C530   C     0.15592   0.83920   0.02195   0.00000  Uiso   1.00
C531   C     0.12398   0.79317   0.11417   0.00000  Uiso   1.00
C532   C     0.15052   0.75784   0.08488   0.00000  Uiso   1.00
C533   C     0.17554   0.72919   0.11193   0.00000  Uiso   1.00
C534   C     0.22758   0.78158   0.39484   0.00000  Uiso   1.00
C535   C     0.22038   0.74702   0.43123   0.00000  Uiso   1.00
C536   C     0.20781   0.70635   0.41320   0.00000  Uiso   1.00
C537   C     0.13812   0.83178   0.44947   0.00000  Uiso   1.00
C538   C     0.23334   0.86904   0.02186   0.00000  Uiso   1.00
C539   C     0.08896   0.82927   0.47127   0.00000  Uiso   1.00
C540   C     0.29008   0.68824   0.25413   0.00000  Uiso   1.00
C541   C     0.04318   0.97844   0.24623   0.00000  Uiso   1.00
C542   C     0.28999   0.97899   0.25393   0.00000  Uiso   1.00
Cu543  Cu    0.04689   0.83334   0.25000   0.00000  Uiso   1.00
Cu544  Cu    0.28645   0.83333   0.25000   0.00000  Uiso   1.00
H545   H     0.25521   0.88517   0.03983   0.00000  Uiso   1.00
H546   H     0.07715   0.70351   0.24321   0.00000  Uiso   1.00
H547   H     0.19947   0.78033   0.29239   0.00000  Uiso   1.00
H548   H     0.13390   0.88625   0.20748   0.00000  Uiso   1.00
H549   H     0.20212   0.74664   0.12474   0.00000  Uiso   1.00
H550   H     0.14856   0.71466   0.14101   0.00000  Uiso   1.00
H551   H     0.19498   0.70449   0.08978   0.00000  Uiso   1.00
H552   H     0.12423   0.73969   0.07236   0.00000  Uiso   1.00
H553   H     0.17861   0.76997   0.05524   0.00000  Uiso   1.00
H554   H     0.15007   0.81265   0.12518   0.00000  Uiso   1.00
H555   H     0.10125   0.77759   0.14507   0.00000  Uiso   1.00
H556   H     0.06321   0.82842   0.45108   0.00000  Uiso   1.00
H557   H     0.17391   0.70964   0.40240   0.00000  Uiso   1.00
H558   H     0.23755   0.69657   0.38396   0.00000  Uiso   1.00
H559   H     0.20249   0.68211   0.44028   0.00000  Uiso   1.00
H560   H     0.25412   0.74283   0.44220   0.00000  Uiso   1.00
H561   H     0.19068   0.75489   0.46130   0.00000  Uiso   1.00
H562   H     0.19429   0.78626   0.38370   0.00000  Uiso   1.00
H563   H     0.25466   0.76977   0.36472   0.00000  Uiso   1.00
H564   H     0.27361   0.82673   0.08695   0.00000  Uiso   1.00
H565   H     0.04330   0.89340   0.40379   0.00000  Uiso   1.00
H566   H     0.07531   0.78252   0.30952   0.00000  Uiso   1.00
H567   H     0.32076   0.88776   0.47113   0.00000  Uiso   1.00
H568   H     0.25807   0.88415   0.19051   0.00000  Uiso   1.00
H569   H     0.33119   0.82467   0.02073   0.00000  Uiso   1.00
H570   H     0.17331   0.86624   0.07988   0.00000  Uiso   1.00
H571   H     0.14829   0.83532   0.41304   0.00000  Uiso   1.00
H572   H     0.25622   0.70448   0.25737   0.00000  Uiso   1.00
H573   H     0.07703   0.96221   0.24303   0.00000  Uiso   1.00
H574   H     0.25614   0.96318   0.25701   0.00000  Uiso   1.00
N575   N     0.11736   0.83334   0.24999   0.00000  Uiso   1.00
N576   N     0.21597   0.83332   0.25001   0.00000  Uiso   1.00
O577   O     0.03958   0.77322   0.25000   0.00000  Uiso   1.00
O578   O     0.02935   0.87692   0.38355   0.00000  Uiso   1.00
O579   O     0.10876   0.77273   0.29934   0.00000  Uiso   1.00
O580   O     0.22459   0.89387   0.20056   0.00000  Uiso   1.00
O581   O     0.29375   0.89345   0.25000   0.00000  Uiso   1.00
O582   O     0.29372   0.77321   0.25000   0.00000  Uiso   1.00
O583   O     0.03961   0.89346   0.24999   0.00000  Uiso   1.00
O584   O     0.01852   0.83334   0.31491   0.00000  Uiso   1.00
O585   O     0.31481   0.83332   0.18508   0.00000  Uiso   1.00
O586   O     0.27267   0.83333   0.31492   0.00000  Uiso   1.00
O587   O     0.06067   0.83333   0.18508   0.00000  Uiso   1.00
O588   O     0.29244   0.82836   0.10968   0.00000  Uiso   1.00
C589   C     0.33340   0.75407   0.25017   0.00000  Uiso   1.00
C590   C     0.37662   0.68770   0.24636   0.00000  Uiso   1.00
C591   C     0.66653   0.95725   0.24998   0.00000  Uiso   1.00
C592   C     0.33341   0.70943   0.25028   0.00000  Uiso   1.00
C593   C     0.51900   0.80378   0.27337   0.00000  Uiso   1.00
C594   C     0.48102   0.86283   0.22655   0.00000  Uiso   1.00
C595   C     0.46963   0.80368   0.27398   0.00000  Uiso   1.00
C596   C     0.53039   0.86294   0.22596   0.00000  Uiso   1.00
C597   C     0.63949   0.83375   0.33626   0.00000  Uiso   1.00
C598   C     0.36057   0.83049   0.16373   0.00000  Uiso   1.00
C599   C     0.62425   0.83765   0.38587   0.00000  Uiso   1.00
C600   C     0.66658   0.91260   0.24993   0.00000  Uiso   1.00
C601   C     0.37557   0.82541   0.11378   0.00000  Uiso   1.00
C602   C     0.63260   0.87057   0.45363   0.00000  Uiso   1.00
C603   C     0.35728   0.82564   0.04053   0.00000  Uiso   1.00
C604   C     0.65147   0.86186   0.40768   0.00000  Uiso   1.00
C605   C     0.34124   0.82699   0.08802   0.00000  Uiso   1.00
C606   C     0.57891   0.82156   0.41049   0.00000  Uiso   1.00
C607   C     0.42510   0.81916   0.09117   0.00000  Uiso   1.00
C608   C     0.55618   0.83850   0.45323   0.00000  Uiso   1.00
C609   C     0.44073   0.82914   0.04431   0.00000  Uiso   1.00
C610   C     0.58533   0.85929   0.47634   0.00000  Uiso   1.00
C611   C     0.51990   0.85748   0.04495   0.00000  Uiso   1.00
C612   C     0.40661   0.82783   0.01858   0.00000  Uiso   1.00
C613   C     0.50595   0.83488   0.47449   0.00000  Uiso   1.00
C614   C     0.48925   0.83920   0.02195   0.00000  Uiso   1.00
C615   C     0.45731   0.79317   0.11417   0.00000  Uiso   1.00
C616   C     0.48385   0.75784   0.08488   0.00000  Uiso   1.00
C617   C     0.50887   0.72919   0.11193   0.00000  Uiso   1.00
C618   C     0.56092   0.78158   0.39484   0.00000  Uiso   1.00
C619   C     0.55371   0.74702   0.43123   0.00000  Uiso   1.00
C620   C     0.54115   0.70635   0.41320   0.00000  Uiso   1.00
C621   C     0.47145   0.83178   0.44947   0.00000  Uiso   1.00
C622   C     0.56668   0.86904   0.02186   0.00000  Uiso   1.00
C623   C     0.42229   0.82927   0.47127   0.00000  Uiso   1.00
C624   C     0.62341   0.68824   0.25413   0.00000  Uiso   1.00
C625   C     0.37652   0.97844   0.24623   0.00000  Uiso   1.00
C626   C     0.62332   0.97899   0.25393   0.00000  Uiso   1.00
Cu627  Cu    0.38022   0.83334   0.25000   0.00000  Uiso   1.00
Cu628  Cu    0.61978   0.83333   0.25000   0.00000  Uiso   1.00
H629   H     0.58854   0.88517   0.03983   0.00000  Uiso   1.00
H630   H     0.41048   0.70351   0.24321   0.00000  Uiso   1.00
H631   H     0.53281   0.78033   0.29239   0.00000  Uiso   1.00
H632   H     0.46723   0.88625   0.20748   0.00000  Uiso   1.00
H633   H     0.53545   0.74664   0.12474   0.00000  Uiso   1.00
H634   H     0.48189   0.71466   0.14101   0.00000  Uiso   1.00
H635   H     0.52831   0.70449   0.08978   0.00000  Uiso   1.00
H636   H     0.45756   0.73969   0.07236   0.00000  Uiso   1.00
H637   H     0.51194   0.76997   0.05524   0.00000  Uiso   1.00
H638   H     0.48340   0.81265   0.12518   0.00000  Uiso   1.00
H639   H     0.43459   0.77759   0.14507   0.00000  Uiso   1.00
H640   H     0.39654   0.82842   0.45108   0.00000  Uiso   1.00
H641   H     0.50725   0.70964   0.40240   0.00000  Uiso   1.00
H642   H     0.57088   0.69657   0.38396   0.00000  Uiso   1.00
H643   H     0.53582   0.68211   0.44028   0.00000  Uiso   1.00
H644   H     0.58745   0.74283   0.44220   0.00000  Uiso   1.00
H645   H     0.52401   0.75489   0.46130   0.00000  Uiso   1.00
H646   H     0.52763   0.78626   0.38370   0.00000  Uiso   1.00
H647   H     0.58799   0.76977   0.36472   0.00000  Uiso   1.00
H648   H     0.60694   0.82673   0.08695   0.00000  Uiso   1.00
H649   H     0.37663   0.89340   0.40379   0.00000  Uiso   1.00
H650   H     0.40864   0.78252   0.30952   0.00000  Uiso   1.00
H651   H     0.65410   0.88776   0.47113   0.00000  Uiso   1.00
H652   H     0.59141   0.88415   0.19051   0.00000  Uiso   1.00
H653   H     0.66453   0.82467   0.02073   0.00000  Uiso   1.00
H654   H     0.50664   0.86624   0.07988   0.00000  Uiso   1.00
H655   H     0.48162   0.83532   0.41304   0.00000  Uiso   1.00
H656   H     0.58956   0.70448   0.25737   0.00000  Uiso   1.00
H657   H     0.41036   0.96221   0.24303   0.00000  Uiso   1.00
H658   H     0.58947   0.96318   0.25701   0.00000  Uiso   1.00
N659   N     0.45069   0.83334   0.24999   0.00000  Uiso   1.00
N660   N     0.54931   0.83332   0.25001   0.00000  Uiso   1.00
O661   O     0.37291   0.77322   0.25000   0.00000  Uiso   1.00
O662   O     0.36269   0.87692   0.38355   0.00000  Uiso   1.00
O663   O     0.44209   0.77273   0.29934   0.00000  Uiso   1.00
O664   O     0.55792   0.89387   0.20056   0.00000  Uiso   1.00
O665   O     0.62709   0.89345   0.25000   0.00000  Uiso   1.00
O666   O     0.62706   0.77321   0.25000   0.00000  Uiso   1.00
O667   O     0.37294   0.89346   0.24999   0.00000  Uiso   1.00
O668   O     0.35186   0.83334   0.31491   0.00000  Uiso   1.00
O669   O     0.64814   0.83332   0.18508   0.00000  Uiso   1.00
O670   O     0.60600   0.83333   0.31492   0.00000  Uiso   1.00
O671   O     0.39400   0.83333   0.18508   0.00000  Uiso   1.00
O672   O     0.62577   0.82836   0.10968   0.00000  Uiso   1.00
C673   C     0.66673   0.75407   0.25017   0.00000  Uiso   1.00
C674   C     0.70995   0.68770   0.24636   0.00000  Uiso   1.00
C675   C     0.99987   0.95725   0.24998   0.00000  Uiso   1.00
C676   C     0.66674   0.70943   0.25028   0.00000  Uiso   1.00
C677   C     0.85233   0.80378   0.27337   0.00000  Uiso   1.00
C678   C     0.81435   0.86283   0.22655   0.00000  Uiso   1.00
C679   C     0.80296   0.80368   0.27398   0.00000  Uiso   1.00
C680   C     0.86372   0.86294   0.22596   0.00000  Uiso   1.00
C681   C     0.97282   0.83375   0.33626   0.00000  Uiso   1.00
C682   C     0.69390   0.83049   0.16373   0.00000  Uiso   1.00
C683   C     0.95758   0.83765   0.38587   0.00000  Uiso   1.00
C684   C     0.99991   0.91260   0.24993   0.00000  Uiso   1.00
C685   C     0.70891   0.82541   0.11378   0.00000  Uiso   1.00
C686   C     0.96594   0.87057   0.45363   0.00000  Uiso   1.00
C687   C     0.69062   0.82564   0.04053   0.00000  Uiso   1.00
C688   C     0.98480   0.86186   0.40768   0.00000  Uiso   1.00
C689   C     0.67457   0.82699   0.08802   0.00000  Uiso   1.00
C690   C     0.91224   0.82156   0.41049   0.00000  Uiso   1.00
C691   C     0.75843   0.81916   0.09117   0.00000  Uiso   1.00
C692   C     0.88951   0.83850   0.45323   0.00000  Uiso   1.00
C693   C     0.77406   0.82914   0.04431   0.00000  Uiso   1.00
C694   C     0.91866   0.85929   0.47634   0.00000  Uiso   1.00
C695   C     0.85324   0.85748   0.04495   0.00000  Uiso   1.00
C696   C     0.73994   0.82783   0.01858   0.00000  Uiso   1.00
C697   C     0.83928   0.83488   0.47449   0.00000  Uiso   1.00
C698   C     0.82258   0.83920   0.02195   0.00000  Uiso   1.00
C699   C     0.79065   0.79317   0.11417   0.00000  Uiso   1.00
C700   C     0.81718   0.75784   0.08488   0.00000  Uiso   1.00
C701   C     0.84220   0.72919   0.11193   0.00000  Uiso   1.00
C702   C     0.89425   0.78158   0.39484   0.00000  Uiso   1.00
C703   C     0.88704   0.74702   0.43123   0.00000  Uiso   1.00
C704   C     0.87448   0.70635   0.41320   0.00000  Uiso   1.00
C705   C     0.80479   0.83178   0.44947   0.00000  Uiso   1.00
C706   C     0.90001   0.86904   0.02186   0.00000  Uiso   1.00
C707   C     0.75563   0.82927   0.47127   0.00000  Uiso   1.00
C708   C     0.95674   0.68824   0.25413   0.00000  Uiso   1.00
C709   C     0.70985   0.97844   0.24623   0.00000  Uiso   1.00
C710   C     0.95665   0.97899   0.25393   0.00000  Uiso   1.00
Cu711  Cu    0.71355   0.83334   0.25000   0.00000  Uiso   1.00
Cu712  Cu    0.95311   0.83333   0.25000   0.00000  Uiso   1.00
H713   H     0.92188   0.88517   0.03983   0.00000  Uiso   1.00
H714   H     0.74382   0.70351   0.24321   0.00000  Uiso   1.00
H715   H     0.86614   0.78033   0.29239   0.00000  Uiso   1.00
H716   H     0.80056   0.88625   0.20748   0.00000  Uiso   1.00
H717   H     0.86878   0.74664   0.12474   0.00000  Uiso   1.00
H718   H     0.81522   0.71466   0.14101   0.00000  Uiso   1.00
H719   H     0.86164   0.70449   0.08978   0.00000  Uiso   1.00
H720   H     0.79090   0.73969   0.07236   0.00000  Uiso   1.00
H721   H     0.84528   0.76997   0.05524   0.00000  Uiso   1.00
H722   H     0.81674   0.81265   0.12518   0.00000  Uiso   1.00
H723   H     0.76792   0.77759   0.14507   0.00000  Uiso   1.00
H724   H     0.72988   0.82842   0.45108   0.00000  Uiso   1.00
H725   H     0.84058   0.70964   0.40240   0.00000  Uiso   1.00
H726   H     0.90421   0.69657   0.38396   0.00000  Uiso   1.00
H727   H     0.86916   0.68211   0.44028   0.00000  Uiso   1.00
H728   H     0.92078   0.74283   0.44220   0.00000  Uiso   1.00
H729   H     0.85735   0.75489   0.46130   0.00000  Uiso   1.00
H730   H     0.86096   0.78626   0.38370   0.00000  Uiso   1.00
H731   H     0.92133   0.76977   0.36472   0.00000  Uiso   1.00
H732   H     0.94027   0.82673   0.08695   0.00000  Uiso   1.00
H733   H     0.70997   0.89340   0.40379   0.00000  Uiso   1.00
H734   H     0.74197   0.78252   0.30952   0.00000  Uiso   1.00
H735   H     0.98743   0.88776   0.47113   0.00000  Uiso   1.00
H736   H     0.92474   0.88415   0.19051   0.00000  Uiso   1.00
H737   H     0.99786   0.82467   0.02073   0.00000  Uiso   1.00
H738   H     0.83998   0.86624   0.07988   0.00000  Uiso   1.00
H739   H     0.81495   0.83532   0.41304   0.00000  Uiso   1.00
H740   H     0.92289   0.70448   0.25737   0.00000  Uiso   1.00
H741   H     0.74370   0.96221   0.24303   0.00000  Uiso   1.00
H742   H     0.92281   0.96318   0.25701   0.00000  Uiso   1.00
N743   N     0.78403   0.83334   0.24999   0.00000  Uiso   1.00
N744   N     0.88264   0.83332   0.25001   0.00000  Uiso   1.00
O745   O     0.70625   0.77322   0.25000   0.00000  Uiso   1.00
O746   O     0.69602   0.87692   0.38355   0.00000  Uiso   1.00
O747   O     0.77542   0.77273   0.29934   0.00000  Uiso   1.00
O748   O     0.89126   0.89387   0.20056   0.00000  Uiso   1.00
O749   O     0.96042   0.89345   0.25000   0.00000  Uiso   1.00
O750   O     0.96039   0.77321   0.25000   0.00000  Uiso   1.00
O751   O     0.70628   0.89346   0.24999   0.00000  Uiso   1.00
O752   O     0.68519   0.83334   0.31491   0.00000  Uiso   1.00
O753   O     0.98148   0.83332   0.18508   0.00000  Uiso   1.00
O754   O     0.93933   0.83333   0.31492   0.00000  Uiso   1.00
O755   O     0.72733   0.83333   0.18508   0.00000  Uiso   1.00
O756   O     0.95910   0.82836   0.10968   0.00000  Uiso   1.00
C757   C     0.00006   0.08740   0.75017   0.00000  Uiso   1.00
C758   C     0.04329   0.02103   0.74636   0.00000  Uiso   1.00
C759   C     0.33320   0.29058   0.74998   0.00000  Uiso   1.00
C760   C     0.00008   0.04277   0.75028   0.00000  Uiso   1.00
C761   C     0.18567   0.13711   0.77337   0.00000  Uiso   1.00
C762   C     0.14769   0.19616   0.72655   0.00000  Uiso   1.00
C763   C     0.13629   0.13702   0.77398   0.00000  Uiso   1.00
C764   C     0.19706   0.19627   0.72596   0.00000  Uiso   1.00
C765   C     0.30616   0.16708   0.83626   0.00000  Uiso   1.00
C766   C     0.02724   0.16382   0.66373   0.00000  Uiso   1.00
C767   C     0.29091   0.17098   0.88587   0.00000  Uiso   1.00
C768   C     0.33325   0.24594   0.74993   0.00000  Uiso   1.00
C769   C     0.04224   0.15874   0.61378   0.00000  Uiso   1.00
C770   C     0.29927   0.20391   0.95363   0.00000  Uiso   1.00
C771   C     0.02395   0.15898   0.54053   0.00000  Uiso   1.00
C772   C     0.31814   0.19519   0.90768   0.00000  Uiso   1.00
C773   C     0.00790   0.16033   0.58802   0.00000  Uiso   1.00
C774   C     0.24558   0.15489   0.91049   0.00000  Uiso   1.00
C775   C     0.09176   0.15250   0.59117   0.00000  Uiso   1.00
C776   C     0.22285   0.17183   0.95323   0.00000  Uiso   1.00
C777   C     0.10739   0.16247   0.54431   0.00000  Uiso   1.00
C778   C     0.25200   0.19262   0.97634   0.00000  Uiso   1.00
C779   C     0.18657   0.19081   0.54495   0.00000  Uiso   1.00
C780   C     0.07328   0.16116   0.51858   0.00000  Uiso   1.00
C781   C     0.17262   0.16822   0.97449   0.00000  Uiso   1.00
C782   C     0.15592   0.17254   0.52195   0.00000  Uiso   1.00
C783   C     0.12398   0.12650   0.61417   0.00000  Uiso   1.00
C784   C     0.15052   0.09118   0.58488   0.00000  Uiso   1.00
C785   C     0.17554   0.06252   0.61193   0.00000  Uiso   1.00
C786   C     0.22758   0.11492   0.89484   0.00000  Uiso   1.00
C787   C     0.22038   0.08035   0.93123   0.00000  Uiso   1.00
C788   C     0.20781   0.03968   0.91320   0.00000  Uiso   1.00
C789   C     0.13812   0.16511   0.94947   0.00000  Uiso   1.00
C790   C     0.23334   0.20237   0.52186   0.00000  Uiso   1.00
C791   C     0.08896   0.16260   0.97127   0.00000  Uiso   1.00
C792   C     0.29008   0.02158   0.75413   0.00000  Uiso   1.00
C793   C     0.04318   0.31178   0.74623   0.00000  Uiso   1.00
C794   C     0.28999   0.31232   0.75393   0.00000  Uiso   1.00
Cu795  Cu    0.04689   0.16667   0.75000   0.00000  Uiso   1.00
Cu796  Cu    0.28645   0.16666   0.75000   0.00000  Uiso   1.00
H797   H     0.25521   0.21850   0.53983   0.00000  Uiso   1.00
H798   H     0.07715   0.03684   0.74321   0.00000  Uiso   1.00
H799   H     0.19947   0.11366   0.79239   0.00000  Uiso   1.00
H800   H     0.13390   0.21958   0.70748   0.00000  Uiso   1.00
H801   H     0.20212   0.07997   0.62474   0.00000  Uiso   1.00
H802   H     0.14856   0.04799   0.64101   0.00000  Uiso   1.00
H803   H     0.19498   0.03782   0.58978   0.00000  Uiso   1.00
H804   H     0.12423   0.07303   0.57236   0.00000  Uiso   1.00
H805   H     0.17861   0.10330   0.55524   0.00000  Uiso   1.00
H806   H     0.15007   0.14598   0.62518   0.00000  Uiso   1.00
H807   H     0.10125   0.11092   0.64507   0.00000  Uiso   1.00
H808   H     0.06321   0.16175   0.95108   0.00000  Uiso   1.00
H809   H     0.17391   0.04297   0.90240   0.00000  Uiso   1.00
H810   H     0.23755   0.02990   0.88396   0.00000  Uiso   1.00
H811   H     0.20249   0.01544   0.94028   0.00000  Uiso   1.00
H812   H     0.25412   0.07616   0.94220   0.00000  Uiso   1.00
H813   H     0.19068   0.08822   0.96130   0.00000  Uiso   1.00
H814   H     0.19429   0.11960   0.88370   0.00000  Uiso   1.00
H815   H     0.25466   0.10311   0.86472   0.00000  Uiso   1.00
H816   H     0.27361   0.16006   0.58695   0.00000  Uiso   1.00
H817   H     0.04330   0.22674   0.90379   0.00000  Uiso   1.00
H818   H     0.07531   0.11586   0.80952   0.00000  Uiso   1.00
H819   H     0.32076   0.22109   0.97113   0.00000  Uiso   1.00
H820   H     0.25807   0.21748   0.69051   0.00000  Uiso   1.00
H821   H     0.33119   0.15801   0.52073   0.00000  Uiso   1.00
H822   H     0.17331   0.19957   0.57988   0.00000  Uiso   1.00
H823   H     0.14829   0.16866   0.91304   0.00000  Uiso   1.00
H824   H     0.25622   0.03781   0.75737   0.00000  Uiso   1.00
H825   H     0.07703   0.29555   0.74303   0.00000  Uiso   1.00
H826   H     0.25614   0.29652   0.75701   0.00000  Uiso   1.00
N827   N     0.11736   0.16668   0.74999   0.00000  Uiso   1.00
N828   N     0.21597   0.16666   0.75001   0.00000  Uiso   1.00
O829   O     0.03958   0.10655   0.75000   0.00000  Uiso   1.00
O830   O     0.02935   0.21025   0.88355   0.00000  Uiso   1.00
O831   O     0.10876   0.10607   0.79934   0.00000  Uiso   1.00
O832   O     0.22459   0.22720   0.70056   0.00000  Uiso   1.00
O833   O     0.29375   0.22678   0.75000   0.00000  Uiso   1.00
O834   O     0.29372   0.10654   0.75000   0.00000  Uiso   1.00
O835   O     0.03961   0.22679   0.74999   0.00000  Uiso   1.00
O836   O     0.01852   0.16668   0.81491   0.00000  Uiso   1.00
O837   O     0.31481   0.16666   0.68508   0.00000  Uiso   1.00
O838   O     0.27267   0.16667   0.81492   0.00000  Uiso   1.00
O839   O     0.06067   0.16667   0.68508   0.00000  Uiso   1.00
O840   O     0.29244   0.16169   0.60968   0.00000  Uiso   1.00
C841   C     0.33340   0.08740   0.75017   0.00000  Uiso   1.00
C842   C     0.37662   0.02103   0.74636   0.00000  Uiso   1.00
C843   C     0.66653   0.29058   0.74998   0.00000  Uiso   1.00
C844   C     0.33341   0.04277   0.75028   0.00000  Uiso   1.00
C845   C     0.51900   0.13711   0.77337   0.00000  Uiso   1.00
C846   C     0.48102   0.19616   0.72655   0.00000  Uiso   1.00
C847   C     0.46963   0.13702   0.77398   0.00000  Uiso   1.00
C848   C     0.53039   0.19627   0.72596   0.00000  Uiso   1.00
C849   C     0.63949   0.16708   0.83626   0.00000  Uiso   1.00
C850   C     0.36057   0.16382   0.66373   0.00000  Uiso   1.00
C851   C     0.62425   0.17098   0.88587   0.00000  Uiso   1.00
C852   C     0.66658   0.24594   0.74993   0.00000  Uiso   1.00
C853   C     0.37557   0.15874   0.61378   0.00000  Uiso   1.00
C854   C     0.63260   0.20391   0.95363   0.00000  Uiso   1.00
C855   C     0.35728   0.15898   0.54053   0.00000  Uiso   1.00
C856   C     0.65147   0.19519   0.90768   0.00000  Uiso   1.00
C857   C     0.34124   0.16033   0.58802   0.00000  Uiso   1.00
C858   C     0.57891   0.15489   0.91049   0.00000  Uiso   1.00
C859   C     0.42510   0.15250   0.59117   0.00000  Uiso   1.00
C860   C     0.55618   0.17183   0.95323   0.00000  Uiso   1.00
C861   C     0.44073   0.16247   0.54431   0.00000  Uiso   1.00
C862   C     0.58533   0.19262   0.97634   0.00000  Uiso   1.00
C863   C     0.51990   0.19081   0.54495   0.00000  Uiso   1.00
C864   C     0.40661   0.16116   0.51858   0.00000  Uiso   1.00
C865   C     0.50595   0.16822   0.97449   0.00000  Uiso   1.00
C866   C     0.48925   0.17254   0.52195   0.00000  Uiso   1.00
C867   C     0.45731   0.12650   0.61417   0.00000  Uiso   1.00
C868   C     0.48385   0.09118   0.58488   0.00000  Uiso   1.00
C869   C     0.50887   0.06252   0.61193   0.00000  Uiso   1.00
C870   C     0.56092   0.11492   0.89484   0.00000  Uiso   1.00
C871   C     0.55371   0.08035   0.93123   0.00000  Uiso   1.00
C872   C     0.54115   0.03968   0.91320   0.00000  Uiso   1.00
C873   C     0.47145   0.16511   0.94947   0.00000  Uiso   1.00
C874   C     0.56668   0.20237   0.52186   0.00000  Uiso   1.00
C875   C     0.42229   0.16260   0.97127   0.00000  Uiso   1.00
C876   C     0.62341   0.02158   0.75413   0.00000  Uiso   1.00
C877   C     0.37652   0.31178   0.74623   0.00000  Uiso   1.00
C878   C     0.62332   0.31232   0.75393   0.00000  Uiso   1.00
Cu879  Cu    0.38022   0.16667   0.75000   0.00000  Uiso   1.00
Cu880  Cu    0.61978   0.16666   0.75000   0.00000  Uiso   1.00
H881   H     0.58854   0.21850   0.53983   0.00000  Uiso   1.00
H882   H     0.41048   0.03684   0.74321   0.00000  Uiso   1.00
H883   H     0.53281   0.11366   0.79239   0.00000  Uiso   1.00
H884   H     0.46723   0.21958   0.70748   0.00000  Uiso   1.00
H885   H     0.53545   0.07997   0.62474   0.00000  Uiso   1.00
H886   H     0.48189   0.04799   0.64101   0.00000  Uiso   1.00
H887   H     0.52831   0.03782   0.58978   0.00000  Uiso   1.00
H888   H     0.45756   0.07303   0.57236   0.00000  Uiso   1.00
H889   H     0.51194   0.10330   0.55524   0.00000  Uiso   1.00
H890   H     0.48340   0.14598   0.62518   0.00000  Uiso   1.00
H891   H     0.43459   0.11092   0.64507   0.00000  Uiso   1.00
H892   H     0.39654   0.16175   0.95108   0.00000  Uiso   1.00
H893   H     0.50725   0.04297   0.90240   0.00000  Uiso   1.00
H894   H     0.57088   0.02990   0.88396   0.00000  Uiso   1.00
H895   H     0.53582   0.01544   0.94028   0.00000  Uiso   1.00
H896   H     0.58745   0.07616   0.94220   0.00000  Uiso   1.00
H897   H     0.52401   0.08822   0.96130   0.00000  Uiso   1.00
H898   H     0.52763   0.11960   0.88370   0.00000  Uiso   1.00
H899   H     0.58799   0.10311   0.86472   0.00000  Uiso   1.00
H900   H     0.60694   0.16006   0.58695   0.00000  Uiso   1.00
H901   H     0.37663   0.22674   0.90379   0.00000  Uiso   1.00
H902   H     0.40864   0.11586   0.80952   0.00000  Uiso   1.00
H903   H     0.65410   0.22109   0.97113   0.00000  Uiso   1.00
H904   H     0.59141   0.21748   0.69051   0.00000  Uiso   1.00
H905   H     0.66453   0.15801   0.52073   0.00000  Uiso   1.00
H906   H     0.50664   0.19957   0.57988   0.00000  Uiso   1.00
H907   H     0.48162   0.16866   0.91304   0.00000  Uiso   1.00
H908   H     0.58956   0.03781   0.75737   0.00000  Uiso   1.00
H909   H     0.41036   0.29555   0.74303   0.00000  Uiso   1.00
H910   H     0.58947   0.29652   0.75701   0.00000  Uiso   1.00
N911   N     0.45069   0.16668   0.74999   0.00000  Uiso   1.00
N912   N     0.54931   0.16666   0.75001   0.00000  Uiso   1.00
O913   O     0.37291   0.10655   0.75000   0.00000  Uiso   1.00
O914   O     0.36269   0.21025   0.88355   0.00000  Uiso   1.00
O915   O     0.44209   0.10607   0.79934   0.00000  Uiso   1.00
O916   O     0.55792   0.22720   0.70056   0.00000  Uiso   1.00
O917   O     0.62709   0.22678   0.75000   0.00000  Uiso   1.00
O918   O     0.62706   0.10654   0.75000   0.00000  Uiso   1.00
O919   O     0.37294   0.22679   0.74999   0.00000  Uiso   1.00
O920   O     0.35186   0.16668   0.81491   0.00000  Uiso   1.00
O921   O     0.64814   0.16666   0.68508   0.00000  Uiso   1.00
O922   O     0.60600   0.16667   0.81492   0.00000  Uiso   1.00
O923   O     0.39400   0.16667   0.68508   0.00000  Uiso   1.00
O924   O     0.62577   0.16169   0.60968   0.00000  Uiso   1.00
C925   C     0.66673   0.08740   0.75017   0.00000  Uiso   1.00
C926   C     0.70995   0.02103   0.74636   0.00000  Uiso   1.00
C927   C     0.99987   0.29058   0.74998   0.00000  Uiso   1.00
C928   C     0.66674   0.04277   0.75028   0.00000  Uiso   1.00
C929   C     0.85233   0.13711   0.77337   0.00000  Uiso   1.00
C930   C     0.81435   0.19616   0.72655   0.00000  Uiso   1.00
C931   C     0.80296   0.13702   0.77398   0.00000  Uiso   1.00
C932   C     0.86372   0.19627   0.72596   0.00000  Uiso   1.00
C933   C     0.97282   0.16708   0.83626   0.00000  Uiso   1.00
C934   C     0.69390   0.16382   0.66373   0.00000  Uiso   1.00
C935   C     0.95758   0.17098   0.88587   0.00000  Uiso   1.00
C936   C     0.99991   0.24594   0.74993   0.00000  Uiso   1.00
C937   C     0.70891   0.15874   0.61378   0.00000  Uiso   1.00
C938   C     0.96594   0.20391   0.95363   0.00000  Uiso   1.00
C939   C     0.69062   0.15898   0.54053   0.00000  Uiso   1.00
C940   C     0.98480   0.19519   0.90768   0.00000  Uiso   1.00
C941   C     0.67457   0.16033   0.58802   0.00000  Uiso   1.00
C942   C     0.91224   0.15489   0.91049   0.00000  Uiso   1.00
C943   C     0.75843   0.15250   0.59117   0.00000  Uiso   1.00
C944   C     0.88951   0.17183   0.95323   0.00000  Uiso   1.00
C945   C     0.77406   0.16247   0.54431   0.00000  Uiso   1.00
C946   C     0.91866   0.19262   0.97634   0.00000  Uiso   1.00
C947   C     0.85324   0.19081   0.54495   0.00000  Uiso   1.00
C948   C     0.73994   0.16116   0.51858   0.00000  Uiso   1.00
C949   C     0.83928   0.16822   0.97449   0.00000  Uiso   1.00
C950   C     0.82258   0.17254   0.52195   0.00000  Uiso   1.00
C951   C     0.79065   0.12650   0.61417   0.00000  Uiso   1.00
C952   C     0.81718   0.09118   0.58488   0.00000  Uiso   1.00
C953   C     0.84220   0.06252   0.61193   0.00000  Uiso   1.00
C954   C     0.89425   0.11492   0.89484   0.00000  Uiso   1.00
C955   C     0.88704   0.08035   0.93123   0.00000  Uiso   1.00
C956   C     0.87448   0.03968   0.91320   0.00000  Uiso   1.00
C957   C     0.80479   0.16511   0.94947   0.00000  Uiso   1.00
C958   C     0.90001   0.20237   0.52186   0.00000  Uiso   1.00
C959   C     0.75563   0.16260   0.97127   0.00000  Uiso   1.00
C960   C     0.95674   0.02158   0.75413   0.00000  Uiso   1.00
C961   C     0.70985   0.31178   0.74623   0.00000  Uiso   1.00
C962   C     0.95665   0.31232   0.75393   0.00000  Uiso   1.00
Cu963  Cu    0.71355   0.16667   0.75000   0.00000  Uiso   1.00
Cu964  Cu    0.95311   0.16666   0.75000   0.00000  Uiso   1.00
H965   H     0.92188   0.21850   0.53983   0.00000  Uiso   1.00
H966   H     0.74382   0.03684   0.74321   0.00000  Uiso   1.00
H967   H     0.86614   0.11366   0.79239   0.00000  Uiso   1.00
H968   H     0.80056   0.21958   0.70748   0.00000  Uiso   1.00
H969   H     0.86878   0.07997   0.62474   0.00000  Uiso   1.00
H970   H     0.81522   0.04799   0.64101   0.00000  Uiso   1.00
H971   H     0.86164   0.03782   0.58978   0.00000  Uiso   1.00
H972   H     0.79090   0.07303   0.57236   0.00000  Uiso   1.00
H973   H     0.84528   0.10330   0.55524   0.00000  Uiso   1.00
H974   H     0.81674   0.14598   0.62518   0.00000  Uiso   1.00
H975   H     0.76792   0.11092   0.64507   0.00000  Uiso   1.00
H976   H     0.72988   0.16175   0.95108   0.00000  Uiso   1.00
H977   H     0.84058   0.04297   0.90240   0.00000  Uiso   1.00
H978   H     0.90421   0.02990   0.88396   0.00000  Uiso   1.00
H979   H     0.86916   0.01544   0.94028   0.00000  Uiso   1.00
H980   H     0.92078   0.07616   0.94220   0.00000  Uiso   1.00
H981   H     0.85735   0.08822   0.96130   0.00000  Uiso   1.00
H982   H     0.86096   0.11960   0.88370   0.00000  Uiso   1.00
H983   H     0.92133   0.10311   0.86472   0.00000  Uiso   1.00
H984   H     0.94027   0.16006   0.58695   0.00000  Uiso   1.00
H985   H     0.70997   0.22674   0.90379   0.00000  Uiso   1.00
H986   H     0.74197   0.11586   0.80952   0.00000  Uiso   1.00
H987   H     0.98743   0.22109   0.97113   0.00000  Uiso   1.00
H988   H     0.92474   0.21748   0.69051   0.00000  Uiso   1.00
H989   H     0.99786   0.15801   0.52073   0.00000  Uiso   1.00
H990   H     0.83998   0.19957   0.57988   0.00000  Uiso   1.00
H991   H     0.81495   0.16866   0.91304   0.00000  Uiso   1.00
H992   H     0.92289   0.03781   0.75737   0.00000  Uiso   1.00
H993   H     0.74370   0.29555   0.74303   0.00000  Uiso   1.00
H994   H     0.92281   0.29652   0.75701   0.00000  Uiso   1.00
N995   N     0.78403   0.16668   0.74999   0.00000  Uiso   1.00
N996   N     0.88264   0.16666   0.75001   0.00000  Uiso   1.00
O997   O     0.70625   0.10655   0.75000   0.00000  Uiso   1.00
O998   O     0.69602   0.21025   0.88355   0.00000  Uiso   1.00
O999   O     0.77542   0.10607   0.79934   0.00000  Uiso   1.00
O1000  O     0.89126   0.22720   0.70056   0.00000  Uiso   1.00
O1001  O     0.96042   0.22678   0.75000   0.00000  Uiso   1.00
O1002  O     0.96039   0.10654   0.75000   0.00000  Uiso   1.00
O1003  O     0.70628   0.22679   0.74999   0.00000  Uiso   1.00
O1004  O     0.68519   0.16668   0.81491   0.00000  Uiso   1.00
O1005  O     0.98148   0.16666   0.68508   0.00000  Uiso   1.00
O1006  O     0.93933   0.16667   0.81492   0.00000  Uiso   1.00
O1007  O     0.72733   0.16667   0.68508   0.00000  Uiso   1.00
O1008  O     0.95910   0.16169   0.60968   0.00000  Uiso   1.00
C1009  C     0.00006   0.42073   0.75017   0.00000  Uiso   1.00
C1010  C     0.04329   0.35437   0.74636   0.00000  Uiso   1.00
C1011  C     0.33320   0.62391   0.74998   0.00000  Uiso   1.00
C1012  C     0.00008   0.37610   0.75028   0.00000  Uiso   1.00
C1013  C     0.18567   0.47045   0.77337   0.00000  Uiso   1.00
C1014  C     0.14769   0.52950   0.72655   0.00000  Uiso   1.00
C1015  C     0.13629   0.47035   0.77398   0.00000  Uiso   1.00
C1016  C     0.19706   0.52961   0.72596   0.00000  Uiso   1.00
C1017  C     0.30616   0.50041   0.83626   0.00000  Uiso   1.00
C1018  C     0.02724   0.49715   0.66373   0.00000  Uiso   1.00
C1019  C     0.29091   0.50431   0.88587   0.00000  Uiso   1.00
C1020  C     0.33325   0.57927   0.74993   0.00000  Uiso   1.00
C1021  C     0.04224   0.49208   0.61378   0.00000  Uiso   1.00
C1022  C     0.29927   0.53724   0.95363   0.00000  Uiso   1.00
C1023  C     0.02395   0.49231   0.54053   0.00000  Uiso   1.00
C1024  C     0.31814   0.52853   0.90768   0.00000  Uiso   1.00
C1025  C     0.00790   0.49366   0.58802   0.00000  Uiso   1.00
C1026  C     0.24558   0.48822   0.91049   0.00000  Uiso   1.00
C1027  C     0.09176   0.48583   0.59117   0.00000  Uiso   1.00
C1028  C     0.22285   0.50516   0.95323   0.00000  Uiso   1.00
C1029  C     0.10739   0.49580   0.54431   0.00000  Uiso   1.00
C1030  C     0.25200   0.52596   0.97634   0.00000  Uiso   1.00
C1031  C     0.18657   0.52415   0.54495   0.00000  Uiso   1.00
C1032  C     0.07328   0.49450   0.51858   0.00000  Uiso   1.00
C1033  C     0.17262   0.50155   0.97449   0.00000  Uiso   1.00
C1034  C     0.15592   0.50587   0.52195   0.00000  Uiso   1.00
C1035  C     0.12398   0.45984   0.61417   0.00000  Uiso   1.00
C1036  C     0.15052   0.42451   0.58488   0.00000  Uiso   1.00
C1037  C     0.17554   0.39586   0.61193   0.00000  Uiso   1.00
C1038  C     0.22758   0.44825   0.89484   0.00000  Uiso   1.00
C1039  C     0.22038   0.41368   0.93123   0.00000  Uiso   1.00
C1040  C     0.20781   0.37301   0.91320   0.00000  Uiso   1.00
C1041  C     0.13812   0.49845   0.94947   0.00000  Uiso   1.00
C1042  C     0.23334   0.53570   0.52186   0.00000  Uiso   1.00
C1043  C     0.08896   0.49594   0.97127   0.00000  Uiso   1.00
C1044  C     0.29008   0.35491   0.75413   0.00000  Uiso   1.00
C1045  C     0.04318   0.64511   0.74623   0.00000  Uiso   1.00
C1046  C     0.28999   0.64566   0.75393   0.00000  Uiso   1.00
Cu1047 Cu    0.04689   0.50001   0.75000   0.00000  Uiso   1.00
Cu1048 Cu    0.28645   0.49999   0.75000   0.00000  Uiso   1.00
H1049  H     0.25521   0.55183   0.53983   0.00000  Uiso   1.00
H1050  H     0.07715   0.37018   0.74321   0.00000  Uiso   1.00
H1051  H     0.19947   0.44699   0.79239   0.00000  Uiso   1.00
H1052  H     0.13390   0.55291   0.70748   0.00000  Uiso   1.00
H1053  H     0.20212   0.41331   0.62474   0.00000  Uiso   1.00
H1054  H     0.14856   0.38133   0.64101   0.00000  Uiso   1.00
H1055  H     0.19498   0.37116   0.58978   0.00000  Uiso   1.00
H1056  H     0.12423   0.40636   0.57236   0.00000  Uiso   1.00
H1057  H     0.17861   0.43663   0.55524   0.00000  Uiso   1.00
H1058  H     0.15007   0.47932   0.62518   0.00000  Uiso   1.00
H1059  H     0.10125   0.44425   0.64507   0.00000  Uiso   1.00
H1060  H     0.06321   0.49509   0.95108   0.00000  Uiso   1.00
H1061  H     0.17391   0.37631   0.90240   0.00000  Uiso   1.00
H1062  H     0.23755   0.36323   0.88396   0.00000  Uiso   1.00
H1063  H     0.20249   0.34878   0.94028   0.00000  Uiso   1.00
H1064  H     0.25412   0.40949   0.94220   0.00000  Uiso   1.00
H1065  H     0.19068   0.42155   0.96130   0.00000  Uiso   1.00
H1066  H     0.19429   0.45293   0.88370   0.00000  Uiso   1.00
H1067  H     0.25466   0.43644   0.86472   0.00000  Uiso   1.00
H1068  H     0.27361   0.49340   0.58695   0.00000  Uiso   1.00
H1069  H     0.04330   0.56007   0.90379   0.00000  Uiso   1.00
H1070  H     0.07531   0.44919   0.80952   0.00000  Uiso   1.00
H1071  H     0.32076   0.55442   0.97113   0.00000  Uiso   1.00
H1072  H     0.25807   0.55081   0.69051   0.00000  Uiso   1.00
H1073  H     0.33119   0.49134   0.52073   0.00000  Uiso   1.00
H1074  H     0.17331   0.53291   0.57988   0.00000  Uiso   1.00
H1075  H     0.14829   0.50199   0.91304   0.00000  Uiso   1.00
H1076  H     0.25622   0.37114   0.75737   0.00000  Uiso   1.00
H1077  H     0.07703   0.62888   0.74303   0.00000  Uiso   1.00
H1078  H     0.25614   0.62985   0.75701   0.00000  Uiso   1.00
N1079  N     0.11736   0.50001   0.74999   0.00000  Uiso   1.00
N1080  N     0.21597   0.49999   0.75001   0.00000  Uiso   1.00
O1081  O     0.03958   0.43989   0.75000   0.00000  Uiso   1.00
O1082  O     0.02935   0.54358   0.88355   0.00000  Uiso   1.00
O1083  O     0.10876   0.43940   0.79934   0.00000  Uiso   1.00
O1084  O     0.22459   0.56054   0.70056   0.00000  Uiso   1.00
O1085  O     0.29375   0.56011   0.75000   0.00000  Uiso   1.00
O1086  O     0.29372   0.43988   0.75000   0.00000  Uiso   1.00
O1087  O     0.03961   0.56012   0.74999   0.00000  Uiso   1.00
O1088  O     0.01852   0.50001   0.81491   0.00000  Uiso   1.00
O1089  O     0.31481   0.49999   0.68508   0.00000  Uiso   1.00
O1090  O     0.27267   0.50000   0.81492   0.00000  Uiso   1.00
O1091  O     0.06067   0.50000   0.68508   0.00000  Uiso   1.00
O1092  O     0.29244   0.49503   0.60968   0.00000  Uiso   1.00
C1093  C     0.33340   0.42073   0.75017   0.00000  Uiso   1.00
C1094  C     0.37662   0.35437   0.74636   0.00000  Uiso   1.00
C1095  C     0.66653   0.62391   0.74998   0.00000  Uiso   1.00
C1096  C     0.33341   0.37610   0.75028   0.00000  Uiso   1.00
C1097  C     0.51900   0.47045   0.77337   0.00000  Uiso   1.00
C1098  C     0.48102   0.52950   0.72655   0.00000  Uiso   1.00
C1099  C     0.46963   0.47035   0.77398   0.00000  Uiso   1.00
C1100  C     0.53039   0.52961   0.72596   0.00000  Uiso   1.00
C1101  C     0.63949   0.50041   0.83626   0.00000  Uiso   1.00
C1102  C     0.36057   0.49715   0.66373   0.00000  Uiso   1.00
C1103  C     0.62425   0.50431   0.88587   0.00000  Uiso   1.00
C1104  C     0.66658   0.57927   0.74993   0.00000  Uiso   1.00
C1105  C     0.37557   0.49208   0.61378   0.00000  Uiso   1.00
C1106  C     0.63260   0.53724   0.95363   0.00000  Uiso   1.00
C1107  C     0.35728   0.49231   0.54053   0.00000  Uiso   1.00
C1108  C     0.65147   0.52853   0.90768   0.00000  Uiso   1.00
C1109  C     0.34124   0.49366   0.58802   0.00000  Uiso   1.00
C1110  C     0.57891   0.48822   0.91049   0.00000  Uiso   1.00
C1111  C     0.42510   0.48583   0.59117   0.00000  Uiso   1.00
C1112  C     0.55618   0.50516   0.95323   0.00000  Uiso   1.00
C1113  C     0.44073   0.49580   0.54431   0.00000  Uiso   1.00
C1114  C     0.58533   0.52596   0.97634   0.00000  Uiso   1.00
C1115  C     0.51990   0.52415   0.54495   0.00000  Uiso   1.00
C1116  C     0.40661   0.49450   0.51858   0.00000  Uiso   1.00
C1117  C     0.50595   0.50155   0.97449   0.00000  Uiso   1.00
C1118  C     0.48925   0.50587   0.52195   0.00000  Uiso   1.00
C1119  C     0.45731   0.45984   0.61417   0.00000  Uiso   1.00
C1120  C     0.48385   0.42451   0.58488   0.00000  Uiso   1.00
C1121  C     0.50887   0.39586   0.61193   0.00000  Uiso   1.00
C1122  C     0.56092   0.44825   0.89484   0.00000  Uiso   1.00
C1123  C     0.55371   0.41368   0.93123   0.00000  Uiso   1.00
C1124  C     0.54115   0.37301   0.91320   0.00000  Uiso   1.00
C1125  C     0.47145   0.49845   0.94947   0.00000  Uiso   1.00
C1126  C     0.56668   0.53570   0.52186   0.00000  Uiso   1.00
C1127  C     0.42229   0.49594   0.97127   0.00000  Uiso   1.00
C1128  C     0.62341   0.35491   0.75413   0.00000  Uiso   1.00
C1129  C     0.37652   0.64511   0.74623   0.00000  Uiso   1.00
C1130  C     0.62332   0.64566   0.75393   0.00000  Uiso   1.00
Cu1131 Cu    0.38022   0.50001   0.75000   0.00000  Uiso   1.00
Cu1132 Cu    0.61978   0.49999   0.75000   0.00000  Uiso   1.00
H1133  H     0.58854   0.55183   0.53983   0.00000  Uiso   1.00
H1134  H     0.41048   0.37018   0.74321   0.00000  Uiso   1.00
H1135  H     0.53281   0.44699   0.79239   0.00000  Uiso   1.00
H1136  H     0.46723   0.55291   0.70748   0.00000  Uiso   1.00
H1137  H     0.53545   0.41331   0.62474   0.00000  Uiso   1.00
H1138  H     0.48189   0.38133   0.64101   0.00000  Uiso   1.00
H1139  H     0.52831   0.37116   0.58978   0.00000  Uiso   1.00
H1140  H     0.45756   0.40636   0.57236   0.00000  Uiso   1.00
H1141  H     0.51194   0.43663   0.55524   0.00000  Uiso   1.00
H1142  H     0.48340   0.47932   0.62518   0.00000  Uiso   1.00
H1143  H     0.43459   0.44425   0.64507   0.00000  Uiso   1.00
H1144  H     0.39654   0.49509   0.95108   0.00000  Uiso   1.00
H1145  H     0.50725   0.37631   0.90240   0.00000  Uiso   1.00
H1146  H     0.57088   0.36323   0.88396   0.00000  Uiso   1.00
H1147  H     0.53582   0.34878   0.94028   0.00000  Uiso   1.00
H1148  H     0.58745   0.40949   0.94220   0.00000  Uiso   1.00
H1149  H     0.52401   0.42155   0.96130   0.00000  Uiso   1.00
H1150  H     0.52763   0.45293   0.88370   0.00000  Uiso   1.00
H1151  H     0.58799   0.43644   0.86472   0.00000  Uiso   1.00
H1152  H     0.60694   0.49340   0.58695   0.00000  Uiso   1.00
H1153  H     0.37663   0.56007   0.90379   0.00000  Uiso   1.00
H1154  H     0.40864   0.44919   0.80952   0.00000  Uiso   1.00
H1155  H     0.65410   0.55442   0.97113   0.00000  Uiso   1.00
H1156  H     0.59141   0.55081   0.69051   0.00000  Uiso   1.00
H1157  H     0.66453   0.49134   0.52073   0.00000  Uiso   1.00
H1158  H     0.50664   0.53291   0.57988   0.00000  Uiso   1.00
H1159  H     0.48162   0.50199   0.91304   0.00000  Uiso   1.00
H1160  H     0.58956   0.37114   0.75737   0.00000  Uiso   1.00
H1161  H     0.41036   0.62888   0.74303   0.00000  Uiso   1.00
H1162  H     0.58947   0.62985   0.75701   0.00000  Uiso   1.00
N1163  N     0.45069   0.50001   0.74999   0.00000  Uiso   1.00
N1164  N     0.54931   0.49999   0.75001   0.00000  Uiso   1.00
O1165  O     0.37291   0.43989   0.75000   0.00000  Uiso   1.00
O1166  O     0.36269   0.54358   0.88355   0.00000  Uiso   1.00
O1167  O     0.44209   0.43940   0.79934   0.00000  Uiso   1.00
O1168  O     0.55792   0.56054   0.70056   0.00000  Uiso   1.00
O1169  O     0.62709   0.56011   0.75000   0.00000  Uiso   1.00
O1170  O     0.62706   0.43988   0.75000   0.00000  Uiso   1.00
O1171  O     0.37294   0.56012   0.74999   0.00000  Uiso   1.00
O1172  O     0.35186   0.50001   0.81491   0.00000  Uiso   1.00
O1173  O     0.64814   0.49999   0.68508   0.00000  Uiso   1.00
O1174  O     0.60600   0.50000   0.81492   0.00000  Uiso   1.00
O1175  O     0.39400   0.50000   0.68508   0.00000  Uiso   1.00
O1176  O     0.62577   0.49503   0.60968   0.00000  Uiso   1.00
C1177  C     0.66673   0.42073   0.75017   0.00000  Uiso   1.00
C1178  C     0.70995   0.35437   0.74636   0.00000  Uiso   1.00
C1179  C     0.99987   0.62391   0.74998   0.00000  Uiso   1.00
C1180  C     0.66674   0.37610   0.75028   0.00000  Uiso   1.00
C1181  C     0.85233   0.47045   0.77337   0.00000  Uiso   1.00
C1182  C     0.81435   0.52950   0.72655   0.00000  Uiso   1.00
C1183  C     0.80296   0.47035   0.77398   0.00000  Uiso   1.00
C1184  C     0.86372   0.52961   0.72596   0.00000  Uiso   1.00
C1185  C     0.97282   0.50041   0.83626   0.00000  Uiso   1.00
C1186  C     0.69390   0.49715   0.66373   0.00000  Uiso   1.00
C1187  C     0.95758   0.50431   0.88587   0.00000  Uiso   1.00
C1188  C     0.99991   0.57927   0.74993   0.00000  Uiso   1.00
C1189  C     0.70891   0.49208   0.61378   0.00000  Uiso   1.00
C1190  C     0.96594   0.53724   0.95363   0.00000  Uiso   1.00
C1191  C     0.69062   0.49231   0.54053   0.00000  Uiso   1.00
C1192  C     0.98480   0.52853   0.90768   0.00000  Uiso   1.00
C1193  C     0.67457   0.49366   0.58802   0.00000  Uiso   1.00
C1194  C     0.91224   0.48822   0.91049   0.00000  Uiso   1.00
C1195  C     0.75843   0.48583   0.59117   0.00000  Uiso   1.00
C1196  C     0.88951   0.50516   0.95323   0.00000  Uiso   1.00
C1197  C     0.77406   0.49580   0.54431   0.00000  Uiso   1.00
C1198  C     0.91866   0.52596   0.97634   0.00000  Uiso   1.00
C1199  C     0.85324   0.52415   0.54495   0.00000  Uiso   1.00
C1200  C     0.73994   0.49450   0.51858   0.00000  Uiso   1.00
C1201  C     0.83928   0.50155   0.97449   0.00000  Uiso   1.00
C1202  C     0.82258   0.50587   0.52195   0.00000  Uiso   1.00
C1203  C     0.79065   0.45984   0.61417   0.00000  Uiso   1.00
C1204  C     0.81718   0.42451   0.58488   0.00000  Uiso   1.00
C1205  C     0.84220   0.39586   0.61193   0.00000  Uiso   1.00
C1206  C     0.89425   0.44825   0.89484   0.00000  Uiso   1.00
C1207  C     0.88704   0.41368   0.93123   0.00000  Uiso   1.00
C1208  C     0.87448   0.37301   0.91320   0.00000  Uiso   1.00
C1209  C     0.80479   0.49845   0.94947   0.00000  Uiso   1.00
C1210  C     0.90001   0.53570   0.52186   0.00000  Uiso   1.00
C1211  C     0.75563   0.49594   0.97127   0.00000  Uiso   1.00
C1212  C     0.95674   0.35491   0.75413   0.00000  Uiso   1.00
C1213  C     0.70985   0.64511   0.74623   0.00000  Uiso   1.00
C1214  C     0.95665   0.64566   0.75393   0.00000  Uiso   1.00
Cu1215 Cu    0.71355   0.50001   0.75000   0.00000  Uiso   1.00
Cu1216 Cu    0.95311   0.49999   0.75000   0.00000  Uiso   1.00
H1217  H     0.92188   0.55183   0.53983   0.00000  Uiso   1.00
H1218  H     0.74382   0.37018   0.74321   0.00000  Uiso   1.00
H1219  H     0.86614   0.44699   0.79239   0.00000  Uiso   1.00
H1220  H     0.80056   0.55291   0.70748   0.00000  Uiso   1.00
H1221  H     0.86878   0.41331   0.62474   0.00000  Uiso   1.00
H1222  H     0.81522   0.38133   0.64101   0.00000  Uiso   1.00
H1223  H     0.86164   0.37116   0.58978   0.00000  Uiso   1.00
H1224  H     0.79090   0.40636   0.57236   0.00000  Uiso   1.00
H1225  H     0.84528   0.43663   0.55524   0.00000  Uiso   1.00
H1226  H     0.81674   0.47932   0.62518   0.00000  Uiso   1.00
H1227  H     0.76792   0.44425   0.64507   0.00000  Uiso   1.00
H1228  H     0.72988   0.49509   0.95108   0.00000  Uiso   1.00
H1229  H     0.84058   0.37631   0.90240   0.00000  Uiso   1.00
H1230  H     0.90421   0.36323   0.88396   0.00000  Uiso   1.00
H1231  H     0.86916   0.34878   0.94028   0.00000  Uiso   1.00
H1232  H     0.92078   0.40949   0.94220   0.00000  Uiso   1.00
H1233  H     0.85735   0.42155   0.96130   0.00000  Uiso   1.00
H1234  H     0.86096   0.45293   0.88370   0.00000  Uiso   1.00
H1235  H     0.92133   0.43644   0.86472   0.00000  Uiso   1.00
H1236  H     0.94027   0.49340   0.58695   0.00000  Uiso   1.00
H1237  H     0.70997   0.56007   0.90379   0.00000  Uiso   1.00
H1238  H     0.74197   0.44919   0.80952   0.00000  Uiso   1.00
H1239  H     0.98743   0.55442   0.97113   0.00000  Uiso   1.00
H1240  H     0.92474   0.55081   0.69051   0.00000  Uiso   1.00
H1241  H     0.99786   0.49134   0.52073   0.00000  Uiso   1.00
H1242  H     0.83998   0.53291   0.57988   0.00000  Uiso   1.00
H1243  H     0.81495   0.50199   0.91304   0.00000  Uiso   1.00
H1244  H     0.92289   0.37114   0.75737   0.00000  Uiso   1.00
H1245  H     0.74370   0.62888   0.74303   0.00000  Uiso   1.00
H1246  H     0.92281   0.62985   0.75701   0.00000  Uiso   1.00
N1247  N     0.78403   0.50001   0.74999   0.00000  Uiso   1.00
N1248  N     0.88264   0.49999   0.75001   0.00000  Uiso   1.00
O1249  O     0.70625   0.43989   0.75000   0.00000  Uiso   1.00
O1250  O     0.69602   0.54358   0.88355   0.00000  Uiso   1.00
O1251  O     0.77542   0.43940   0.79934   0.00000  Uiso   1.00
O1252  O     0.89126   0.56054   0.70056   0.00000  Uiso   1.00
O1253  O     0.96042   0.56011   0.75000   0.00000  Uiso   1.00
O1254  O     0.96039   0.43988   0.75000   0.00000  Uiso   1.00
O1255  O     0.70628   0.56012   0.74999   0.00000  Uiso   1.00
O1256  O     0.68519   0.50001   0.81491   0.00000  Uiso   1.00
O1257  O     0.98148   0.49999   0.68508   0.00000  Uiso   1.00
O1258  O     0.93933   0.50000   0.81492   0.00000  Uiso   1.00
O1259  O     0.72733   0.50000   0.68508   0.00000  Uiso   1.00
O1260  O     0.95910   0.49503   0.60968   0.00000  Uiso   1.00
C1261  C     0.00006   0.75407   0.75017   0.00000  Uiso   1.00
C1262  C     0.04329   0.68770   0.74636   0.00000  Uiso   1.00
C1263  C     0.33320   0.95725   0.74998   0.00000  Uiso   1.00
C1264  C     0.00008   0.70943   0.75028   0.00000  Uiso   1.00
C1265  C     0.18567   0.80378   0.77337   0.00000  Uiso   1.00
C1266  C     0.14769   0.86283   0.72655   0.00000  Uiso   1.00
C1267  C     0.13629   0.80368   0.77398   0.00000  Uiso   1.00
C1268  C     0.19706   0.86294   0.72596   0.00000  Uiso   1.00
C1269  C     0.30616   0.83375   0.83626   0.00000  Uiso   1.00
C1270  C     0.02724   0.83049   0.66373   0.00000  Uiso   1.00
C1271  C     0.29091   0.83765   0.88587   0.00000  Uiso   1.00
C1272  C     0.33325   0.91260   0.74993   0.00000  Uiso   1.00
C1273  C     0.04224   0.82541   0.61378   0.00000  Uiso   1.00
C1274  C     0.29927   0.87057   0.95363   0.00000  Uiso   1.00
C1275  C     0.02395   0.82564   0.54053   0.00000  Uiso   1.00
C1276  C     0.31814   0.86186   0.90768   0.00000  Uiso   1.00
C1277  C     0.00790   0.82699   0.58802   0.00000  Uiso   1.00
C1278  C     0.24558   0.82156   0.91049   0.00000  Uiso   1.00
C1279  C     0.09176   0.81916   0.59117   0.00000  Uiso   1.00
C1280  C     0.22285   0.83850   0.95323   0.00000  Uiso   1.00
C1281  C     0.10739   0.82914   0.54431   0.00000  Uiso   1.00
C1282  C     0.25200   0.85929   0.97634   0.00000  Uiso   1.00
C1283  C     0.18657   0.85748   0.54495   0.00000  Uiso   1.00
C1284  C     0.07328   0.82783   0.51858   0.00000  Uiso   1.00
C1285  C     0.17262   0.83488   0.97449   0.00000  Uiso   1.00
C1286  C     0.15592   0.83920   0.52195   0.00000  Uiso   1.00
C1287  C     0.12398   0.79317   0.61417   0.00000  Uiso   1.00
C1288  C     0.15052   0.75784   0.58488   0.00000  Uiso   1.00
C1289  C     0.17554   0.72919   0.61193   0.00000  Uiso   1.00
C1290  C     0.22758   0.78158   0.89484   0.00000  Uiso   1.00
C1291  C     0.22038   0.74702   0.93123   0.00000  Uiso   1.00
C1292  C     0.20781   0.70635   0.91320   0.00000  Uiso   1.00
C1293  C     0.13812   0.83178   0.94947   0.00000  Uiso   1.00
C1294  C     0.23334   0.86904   0.52186   0.00000  Uiso   1.00
C1295  C     0.08896   0.82927   0.97127   0.00000  Uiso   1.00
C1296  C     0.29008   0.68824   0.75413   0.00000  Uiso   1.00
C1297  C     0.04318   0.97844   0.74623   0.00000  Uiso   1.00
C1298  C     0.28999   0.97899   0.75393   0.00000  Uiso   1.00
Cu1299 Cu    0.04689   0.83334   0.75000   0.00000  Uiso   1.00
Cu1300 Cu    0.28645   0.83333   0.75000   0.00000  Uiso   1.00
H1301  H     0.25521   0.88517   0.53983   0.00000  Uiso   1.00
H1302  H     0.07715   0.70351   0.74321   0.00000  Uiso   1.00
H1303  H     0.19947   0.78033   0.79239   0.00000  Uiso   1.00
H1304  H     0.13390   0.88625   0.70748   0.00000  Uiso   1.00
H1305  H     0.20212   0.74664   0.62474   0.00000  Uiso   1.00
H1306  H     0.14856   0.71466   0.64101   0.00000  Uiso   1.00
H1307  H     0.19498   0.70449   0.58978   0.00000  Uiso   1.00
H1308  H     0.12423   0.73969   0.57236   0.00000  Uiso   1.00
H1309  H     0.17861   0.76997   0.55524   0.00000  Uiso   1.00
H1310  H     0.15007   0.81265   0.62518   0.00000  Uiso   1.00
H1311  H     0.10125   0.77759   0.64507   0.00000  Uiso   1.00
H1312  H     0.06321   0.82842   0.95108   0.00000  Uiso   1.00
H1313  H     0.17391   0.70964   0.90240   0.00000  Uiso   1.00
H1314  H     0.23755   0.69657   0.88396   0.00000  Uiso   1.00
H1315  H     0.20249   0.68211   0.94028   0.00000  Uiso   1.00
H1316  H     0.25412   0.74283   0.94220   0.00000  Uiso   1.00
H1317  H     0.19068   0.75489   0.96130   0.00000  Uiso   1.00
H1318  H     0.19429   0.78626   0.88370   0.00000  Uiso   1.00
H1319  H     0.25466   0.76977   0.86472   0.00000  Uiso   1.00
H1320  H     0.27361   0.82673   0.58695   0.00000  Uiso   1.00
H1321  H     0.04330   0.89340   0.90379   0.00000  Uiso   1.00
H1322  H     0.07531   0.78252   0.80952   0.00000  Uiso   1.00
H1323  H     0.32076   0.88776   0.97113   0.00000  Uiso   1.00
H1324  H     0.25807   0.88415   0.69051   0.00000  Uiso   1.00
H1325  H     0.33119   0.82467   0.52073   0.00000  Uiso   1.00
H1326  H     0.17331   0.86624   0.57988   0.00000  Uiso   1.00
H1327  H     0.14829   0.83532   0.91304   0.00000  Uiso   1.00
H1328  H     0.25622   0.70448   0.75737   0.00000  Uiso   1.00
H1329  H     0.07703   0.96221   0.74303   0.00000  Uiso   1.00
H1330  H     0.25614   0.96318   0.75701   0.00000  Uiso   1.00
N1331  N     0.11736   0.83334   0.74999   0.00000  Uiso   1.00
N1332  N     0.21597   0.83332   0.75001   0.00000  Uiso   1.00
O1333  O     0.03958   0.77322   0.75000   0.00000  Uiso   1.00
O1334  O     0.02935   0.87692   0.88355   0.00000  Uiso   1.00
O1335  O     0.10876   0.77273   0.79934   0.00000  Uiso   1.00
O1336  O     0.22459   0.89387   0.70056   0.00000  Uiso   1.00
O1337  O     0.29375   0.89345   0.75000   0.00000  Uiso   1.00
O1338  O     0.29372   0.77321   0.75000   0.00000  Uiso   1.00
O1339  O     0.03961   0.89346   0.74999   0.00000  Uiso   1.00
O1340  O     0.01852   0.83334   0.81491   0.00000  Uiso   1.00
O1341  O     0.31481   0.83332   0.68508   0.00000  Uiso   1.00
O1342  O     0.27267   0.83333   0.81492   0.00000  Uiso   1.00
O1343  O     0.06067   0.83333   0.68508   0.00000  Uiso   1.00
O1344  O     0.29244   0.82836   0.60968   0.00000  Uiso   1.00
C1345  C     0.33340   0.75407   0.75017   0.00000  Uiso   1.00
C1346  C     0.37662   0.68770   0.74636   0.00000  Uiso   1.00
C1347  C     0.66653   0.95725   0.74998   0.00000  Uiso   1.00
C1348  C     0.33341   0.70943   0.75028   0.00000  Uiso   1.00
C1349  C     0.51900   0.80378   0.77337   0.00000  Uiso   1.00
C1350  C     0.48102   0.86283   0.72655   0.00000  Uiso   1.00
C1351  C     0.46963   0.80368   0.77398   0.00000  Uiso   1.00
C1352  C     0.53039   0.86294   0.72596   0.00000  Uiso   1.00
C1353  C     0.63949   0.83375   0.83626   0.00000  Uiso   1.00
C1354  C     0.36057   0.83049   0.66373   0.00000  Uiso   1.00
C1355  C     0.62425   0.83765   0.88587   0.00000  Uiso   1.00
C1356  C     0.66658   0.91260   0.74993   0.00000  Uiso   1.00
C1357  C     0.37557   0.82541   0.61378   0.00000  Uiso   1.00
C1358  C     0.63260   0.87057   0.95363   0.00000  Uiso   1.00
C1359  C     0.35728   0.82564   0.54053   0.00000  Uiso   1.00
C1360  C     0.65147   0.86186   0.90768   0.00000  Uiso   1.00
C1361  C     0.34124   0.82699   0.58802   0.00000  Uiso   1.00
C1362  C     0.57891   0.82156   0.91049   0.00000  Uiso   1.00
C1363  C     0.42510   0.81916   0.59117   0.00000  Uiso   1.00
C1364  C     0.55618   0.83850   0.95323   0.00000  Uiso   1.00
C1365  C     0.44073   0.82914   0.54431   0.00000  Uiso   1.00
C1366  C     0.58533   0.85929   0.97634   0.00000  Uiso   1.00
C1367  C     0.51990   0.85748   0.54495   0.00000  Uiso   1.00
C1368  C     0.40661   0.82783   0.51858   0.00000  Uiso   1.00
C1369  C     0.50595   0.83488   0.97449   0.00000  Uiso   1.00
C1370  C     0.48925   0.83920   0.52195   0.00000  Uiso   1.00
C1371  C     0.45731   0.79317   0.61417   0.00000  Uiso   1.00
C1372  C     0.48385   0.75784   0.58488   0.00000  Uiso   1.00
C1373  C     0.50887   0.72919   0.61193   0.00000  Uiso   1.00
C1374  C     0.56092   0.78158   0.89484   0.00000  Uiso   1.00
C1375  C     0.55371   0.74702   0.93123   0.00000  Uiso   1.00
C1376  C     0.54115   0.70635   0.91320   0.00000  Uiso   1.00
C1377  C     0.47145   0.83178   0.94947   0.00000  Uiso   1.00
C1378  C     0.56668   0.86904   0.52186   0.00000  Uiso   1.00
C1379  C     0.42229   0.82927   0.97127   0.00000  Uiso   1.00
C1380  C     0.62341   0.68824   0.75413   0.00000  Uiso   1.00
C1381  C     0.37652   0.97844   0.74623   0.00000  Uiso   1.00
C1382  C     0.62332   0.97899   0.75393   0.00000  Uiso   1.00
Cu1383 Cu    0.38022   0.83334   0.75000   0.00000  Uiso   1.00
Cu1384 Cu    0.61978   0.83333   0.75000   0.00000  Uiso   1.00
H1385  H     0.58854   0.88517   0.53983   0.00000  Uiso   1.00
H1386  H     0.41048   0.70351   0.74321   0.00000  Uiso   1.00
H1387  H     0.53281   0.78033   0.79239   0.00000  Uiso   1.00
H1388  H     0.46723   0.88625   0.70748   0.00000  Uiso   1.00
H1389  H     0.53545   0.74664   0.62474   0.00000  Uiso   1.00
H1390  H     0.48189   0.71466   0.64101   0.00000  Uiso   1.00
H1391  H     0.52831   0.70449   0.58978   0.00000  Uiso   1.00
H1392  H     0.45756   0.73969   0.57236   0.00000  Uiso   1.00
H1393  H     0.51194   0.76997   0.55524   0.00000  Uiso   1.00
H1394  H     0.48340   0.81265   0.62518   0.00000  Uiso   1.00
H1395  H     0.43459   0.77759   0.64507   0.00000  Uiso   1.00
H1396  H     0.39654   0.82842   0.95108   0.00000  Uiso   1.00
H1397  H     0.50725   0.70964   0.90240   0.00000  Uiso   1.00
H1398  H     0.57088   0.69657   0.88396   0.00000  Uiso   1.00
H1399  H     0.53582   0.68211   0.94028   0.00000  Uiso   1.00
H1400  H     0.58745   0.74283   0.94220   0.00000  Uiso   1.00
H1401  H     0.52401   0.75489   0.96130   0.00000  Uiso   1.00
H1402  H     0.52763   0.78626   0.88370   0.00000  Uiso   1.00
H1403  H     0.58799   0.76977   0.86472   0.00000  Uiso   1.00
H1404  H     0.60694   0.82673   0.58695   0.00000  Uiso   1.00
H1405  H     0.37663   0.89340   0.90379   0.00000  Uiso   1.00
H1406  H     0.40864   0.78252   0.80952   0.00000  Uiso   1.00
H1407  H     0.65410   0.88776   0.97113   0.00000  Uiso   1.00
H1408  H     0.59141   0.88415   0.69051   0.00000  Uiso   1.00
H1409  H     0.66453   0.82467   0.52073   0.00000  Uiso   1.00
H1410  H     0.50664   0.86624   0.57988   0.00000  Uiso   1.00
H1411  H     0.48162   0.83532   0.91304   0.00000  Uiso   1.00
H1412  H     0.58956   0.70448   0.75737   0.00000  Uiso   1.00
H1413  H     0.41036   0.96221   0.74303   0.00000  Uiso   1.00
H1414  H     0.58947   0.96318   0.75701   0.00000  Uiso   1.00
N1415  N     0.45069   0.83334   0.74999   0.00000  Uiso   1.00
N1416  N     0.54931   0.83332   0.75001   0.00000  Uiso   1.00
O1417  O     0.37291   0.77322   0.75000   0.00000  Uiso   1.00
O1418  O     0.36269   0.87692   0.88355   0.00000  Uiso   1.00
O1419  O     0.44209   0.77273   0.79934   0.00000  Uiso   1.00
O1420  O     0.55792   0.89387   0.70056   0.00000  Uiso   1.00
O1421  O     0.62709   0.89345   0.75000   0.00000  Uiso   1.00
O1422  O     0.62706   0.77321   0.75000   0.00000  Uiso   1.00
O1423  O     0.37294   0.89346   0.74999   0.00000  Uiso   1.00
O1424  O     0.35186   0.83334   0.81491   0.00000  Uiso   1.00
O1425  O     0.64814   0.83332   0.68508   0.00000  Uiso   1.00
O1426  O     0.60600   0.83333   0.81492   0.00000  Uiso   1.00
O1427  O     0.39400   0.83333   0.68508   0.00000  Uiso   1.00
O1428  O     0.62577   0.82836   0.60968   0.00000  Uiso   1.00
C1429  C     0.66673   0.75407   0.75017   0.00000  Uiso   1.00
C1430  C     0.70995   0.68770   0.74636   0.00000  Uiso   1.00
C1431  C     0.99987   0.95725   0.74998   0.00000  Uiso   1.00
C1432  C     0.66674   0.70943   0.75028   0.00000  Uiso   1.00
C1433  C     0.85233   0.80378   0.77337   0.00000  Uiso   1.00
C1434  C     0.81435   0.86283   0.72655   0.00000  Uiso   1.00
C1435  C     0.80296   0.80368   0.77398   0.00000  Uiso   1.00
C1436  C     0.86372   0.86294   0.72596   0.00000  Uiso   1.00
C1437  C     0.97282   0.83375   0.83626   0.00000  Uiso   1.00
C1438  C     0.69390   0.83049   0.66373   0.00000  Uiso   1.00
C1439  C     0.95758   0.83765   0.88587   0.00000  Uiso   1.00
C1440  C     0.99991   0.91260   0.74993   0.00000  Uiso   1.00
C1441  C     0.70891   0.82541   0.61378   0.00000  Uiso   1.00
C1442  C     0.96594   0.87057   0.95363   0.00000  Uiso   1.00
C1443  C     0.69062   0.82564   0.54053   0.00000  Uiso   1.00
C1444  C     0.98480   0.86186   0.90768   0.00000  Uiso   1.00
C1445  C     0.67457   0.82699   0.58802   0.00000  Uiso   1.00
C1446  C     0.91224   0.82156   0.91049   0.00000  Uiso   1.00
C1447  C     0.75843   0.81916   0.59117   0.00000  Uiso   1.00
C1448  C     0.88951   0.83850   0.95323   0.00000  Uiso   1.00
C1449  C     0.77406   0.82914   0.54431   0.00000  Uiso   1.00
C1450  C     0.91866   0.85929   0.97634   0.00000  Uiso   1.00
C1451  C     0.85324   0.85748   0.54495   0.00000  Uiso   1.00
C1452  C     0.73994   0.82783   0.51858   0.00000  Uiso   1.00
C1453  C     0.83928   0.83488   0.97449   0.00000  Uiso   1.00
C1454  C     0.82258   0.83920   0.52195   0.00000  Uiso   1.00
C1455  C     0.79065   0.79317   0.61417   0.00000  Uiso   1.00
C1456  C     0.81718   0.75784   0.58488   0.00000  Uiso   1.00
C1457  C     0.84220   0.72919   0.61193   0.00000  Uiso   1.00
C1458  C     0.89425   0.78158   0.89484   0.00000  Uiso   1.00
C1459  C     0.88704   0.74702   0.93123   0.00000  Uiso   1.00
C1460  C     0.87448   0.70635   0.91320   0.00000  Uiso   1.00
C1461  C     0.80479   0.83178   0.94947   0.00000  Uiso   1.00
C1462  C     0.90001   0.86904   0.52186   0.00000  Uiso   1.00
C1463  C     0.75563   0.82927   0.97127   0.00000  Uiso   1.00
C1464  C     0.95674   0.68824   0.75413   0.00000  Uiso   1.00
C1465  C     0.70985   0.97844   0.74623   0.00000  Uiso   1.00
C1466  C     0.95665   0.97899   0.75393   0.00000  Uiso   1.00
Cu1467 Cu    0.71355   0.83334   0.75000   0.00000  Uiso   1.00
Cu1468 Cu    0.95311   0.83333   0.75000   0.00000  Uiso   1.00
H1469  H     0.92188   0.88517   0.53983   0.00000  Uiso   1.00
H1470  H     0.74382   0.70351   0.74321   0.00000  Uiso   1.00
H1471  H     0.86614   0.78033   0.79239   0.00000  Uiso   1.00
H1472  H     0.80056   0.88625   0.70748   0.00000  Uiso   1.00
H1473  H     0.86878   0.74664   0.62474   0.00000  Uiso   1.00
H1474  H     0.81522   0.71466   0.64101   0.00000  Uiso   1.00
H1475  H     0.86164   0.70449   0.58978   0.00000  Uiso   1.00
H1476  H     0.79090   0.73969   0.57236   0.00000  Uiso   1.00
H1477  H     0.84528   0.76997   0.55524   0.00000  Uiso   1.00
H1478  H     0.81674   0.81265   0.62518   0.00000  Uiso   1.00
H1479  H     0.76792   0.77759   0.64507   0.00000  Uiso   1.00
H1480  H     0.72988   0.82842   0.95108   0.00000  Uiso   1.00
H1481  H     0.84058   0.70964   0.90240   0.00000  Uiso   1.00
H1482  H     0.90421   0.69657   0.88396   0.00000  Uiso   1.00
H1483  H     0.86916   0.68211   0.94028   0.00000  Uiso   1.00
H1484  H     0.92078   0.74283   0.94220   0.00000  Uiso   1.00
H1485  H     0.85735   0.75489   0.96130   0.00000  Uiso   1.00
H1486  H     0.86096   0.78626   0.88370   0.00000  Uiso   1.00
H1487  H     0.92133   0.76977   0.86472   0.00000  Uiso   1.00
H1488  H     0.94027   0.82673   0.58695   0.00000  Uiso   1.00
H1489  H     0.70997   0.89340   0.90379   0.00000  Uiso   1.00
H1490  H     0.74197   0.78252   0.80952   0.00000  Uiso   1.00
H1491  H     0.98743   0.88776   0.97113   0.00000  Uiso   1.00
H1492  H     0.92474   0.88415   0.69051   0.00000  Uiso   1.00
H1493  H     0.99786   0.82467   0.52073   0.00000  Uiso   1.00
H1494  H     0.83998   0.86624   0.57988   0.00000  Uiso   1.00
H1495  H     0.81495   0.83532   0.91304   0.00000  Uiso   1.00
H1496  H     0.92289   0.70448   0.75737   0.00000  Uiso   1.00
H1497  H     0.74370   0.96221   0.74303   0.00000  Uiso   1.00
H1498  H     0.92281   0.96318   0.75701   0.00000  Uiso   1.00
N1499  N     0.78403   0.83334   0.74999   0.00000  Uiso   1.00
N1500  N     0.88264   0.83332   0.75001   0.00000  Uiso   1.00
O1501  O     0.70625   0.77322   0.75000   0.00000  Uiso   1.00
O1502  O     0.69602   0.87692   0.88355   0.00000  Uiso   1.00
O1503  O     0.77542   0.77273   0.79934   0.00000  Uiso   1.00
O1504  O     0.89126   0.89387   0.70056   0.00000  Uiso   1.00
O1505  O     0.96042   0.89345   0.75000   0.00000  Uiso   1.00
O1506  O     0.96039   0.77321   0.75000   0.00000  Uiso   1.00
O1507  O     0.70628   0.89346   0.74999   0.00000  Uiso   1.00
O1508  O     0.68519   0.83334   0.81491   0.00000  Uiso   1.00
O1509  O     0.98148   0.83332   0.68508   0.00000  Uiso   1.00
O1510  O     0.93933   0.83333   0.81492   0.00000  Uiso   1.00
O1511  O     0.72733   0.83333   0.68508   0.00000  Uiso   1.00
O1512  O     0.95910   0.82836   0.60968   0.00000  Uiso   1.00
loop_
_geom_bond_atom_site_label_1
_geom_bond_atom_site_label_2
_geom_bond_distance
_geom_bond_site_symmetry_2
_ccdc_geom_bond_type
C1     O73     1.297   .     A
C1     C4      1.450   .     S
C1     O246    1.293   1_455 S
C2     C4      1.400   .     A
C2     H42     1.083   .     S
C2     C541    1.384   1_545 S
C3     C12     1.450   .     S
C3     C38     1.400   .     A
C3     C121    1.403   .     S
C4     C204    1.402   1_455 S
C5     N72     1.356   .     A
C5     H43     1.082   .     S
C5     C7      1.412   .     A
C6     H44     1.082   .     S
C6     N71     1.356   .     A
C6     C8      1.412   .     A
C7     N71     1.389   .     A
C7     O75     1.374   .     S
C8     O76     1.374   .     S
C8     N72     1.389   .     A
C9     O82     1.298   .     A
C9     C11     1.474   .     S
C9     O164    1.301   .     S
C10    O83     1.302   .     A
C10    C13     1.488   .     S
C10    O249    1.306   1_455 S
C11    C18     1.416   .     A
C11    C16     1.410   .     A
C12    O77     1.297   .     A
C12    O163    1.293   .     S
C13    C19     1.421   .     A
C13    C17     1.416   .     A
C14    C16     1.402   .     A
C14    C22     1.398   .     A
C14    H63     1.084   .     S
C15    C24     1.398   .     A
C15    C17     1.406   .     A
C15    H233    1.083   1_455 S
C16    O158    1.382   .     S
C17    O252    1.382   1_455 S
C18    C30     1.535   .     S
C18    C20     1.421   .     A
C19    C21     1.416   .     A
C19    C27     1.538   .     S
C20    C25     1.420   .     A
C20    C22     1.416   .     A
C21    C26     1.416   .     A
C21    C24     1.412   .     A
C22    C790    1.397   .     S
C23    H66     1.080   .     S
C23    C26     1.408   .     A
C23    C34     1.391   .     A
C24    C791    1.398   1_554 S
C25    C33     1.409   .     A
C25    C782    1.415   .     S
C26    C781    1.415   1_554 S
C27    H50     1.108   .     S
C27    H51     1.110   .     S
C27    C28     1.541   .     S
C28    C29     1.527   .     S
C28    H49     1.108   .     S
C28    H48     1.112   .     S
C29    H47     1.110   .     S
C29    H45     1.111   .     S
C29    H46     1.111   .     S
C30    C31     1.538   .     S
C30    H59     1.110   .     S
C30    H58     1.104   .     S
C31    H56     1.112   .     S
C31    C32     1.527   .     S
C31    H57     1.109   .     S
C32    H55     1.110   .     S
C32    H54     1.111   .     S
C32    H53     1.111   .     S
C33    H67     1.079   .     S
C33    C35     1.393   .     A
C34    H41     1.084   .     S
C34    C778    1.397   1_554 S
C35    H52     1.083   .     S
C35    C780    1.398   .     S
C36    H68     1.083   .     S
C36    C88     1.402   .     S
C36    C542    1.384   1_545 S
C37    H69     1.083   .     S
C37    C171    1.403   1_455 S
C37    C254    1.384   .     S
C38    H70     1.083   .     S
C38    C288    1.384   .     S
Cu39   O79     1.962   .     S
Cu39   O80     1.938   .     S
Cu39   O83     1.921   .     S
Cu39   O73     1.966   .     S
Cu39   N71     2.022   .     S
Cu39   Cu208   2.691   1_455 S
Cu40   O82     1.921   .     S
Cu40   N72     2.022   .     S
Cu40   O81     1.938   .     S
Cu40   O78     1.962   .     S
Cu40   O77     1.966   .     S
Cu40   Cu123   2.691   .     S
H60    O84     0.991   .     S
H61    O74     0.992   .     S
H62    O75     0.980   .     S
H64    O76     0.980   .     S
H65    C99     1.083   .     S
O74    C184    1.382   1_455 S
O78    C85     1.293   .     S
O79    C180    1.293   1_455 S
O80    C177    1.301   1_455 S
O81    C94     1.306   .     S
O84    C101    1.382   .     S
C85    O157    1.297   .     A
C85    C88     1.450   .     S
C86    C88     1.400   .     A
C86    H126    1.083   .     S
C86    C625    1.384   1_545 S
C87    C96     1.450   .     S
C87    C122    1.400   .     A
C87    C205    1.403   .     S
C89    N156    1.356   .     A
C89    H127    1.082   .     S
C89    C91     1.412   .     A
C90    H128    1.082   .     S
C90    N155    1.356   .     A
C90    C92     1.412   .     A
C91    N155    1.389   .     A
C91    O159    1.374   .     S
C92    O160    1.374   .     S
C92    N156    1.389   .     A
C93    O166    1.298   .     A
C93    C95     1.474   .     S
C93    O248    1.301   .     S
C94    O167    1.302   .     A
C94    C97     1.488   .     S
C95    C102    1.416   .     A
C95    C100    1.410   .     A
C96    O161    1.297   .     A
C96    O247    1.293   .     S
C97    C103    1.421   .     A
C97    C101    1.416   .     A
C98    C100    1.402   .     A
C98    C106    1.398   .     A
C98    H147    1.084   .     S
C99    C108    1.398   .     A
C99    C101    1.406   .     A
C100   O242    1.382   .     S
C102   C114    1.535   .     S
C102   C104    1.421   .     A
C103   C105    1.416   .     A
C103   C111    1.538   .     S
C104   C109    1.420   .     A
C104   C106    1.416   .     A
C105   C110    1.416   .     A
C105   C108    1.412   .     A
C106   C874    1.397   .     S
C107   H150    1.080   .     S
C107   C110    1.408   .     A
C107   C118    1.391   .     A
C108   C875    1.398   1_554 S
C109   C117    1.409   .     A
C109   C866    1.415   .     S
C110   C865    1.415   1_554 S
C111   H134    1.108   .     S
C111   H135    1.110   .     S
C111   C112    1.541   .     S
C112   C113    1.527   .     S
C112   H133    1.108   .     S
C112   H132    1.112   .     S
C113   H131    1.110   .     S
C113   H129    1.111   .     S
C113   H130    1.111   .     S
C114   C115    1.538   .     S
C114   H143    1.110   .     S
C114   H142    1.104   .     S
C115   H140    1.112   .     S
C115   C116    1.527   .     S
C115   H141    1.109   .     S
C116   H139    1.110   .     S
C116   H138    1.111   .     S
C116   H137    1.111   .     S
C117   H151    1.079   .     S
C117   C119    1.393   .     A
C118   H125    1.084   .     S
C118   C862    1.397   1_554 S
C119   H136    1.083   .     S
C119   C864    1.398   .     S
C120   H152    1.083   .     S
C120   C172    1.402   .     S
C120   C626    1.384   1_545 S
C121   H153    1.083   .     S
C121   C338    1.384   .     S
C122   H154    1.083   .     S
C122   C372    1.384   .     S
Cu123  O163    1.962   .     S
Cu123  O164    1.938   .     S
Cu123  O167    1.921   .     S
Cu123  O157    1.966   .     S
Cu123  N155    2.022   .     S
Cu124  O166    1.921   .     S
Cu124  N156    2.022   .     S
Cu124  O165    1.938   .     S
Cu124  O162    1.962   .     S
Cu124  O161    1.966   .     S
Cu124  Cu207   2.691   .     S
H144   O168    0.991   .     S
H145   O158    0.992   .     S
H146   O159    0.980   .     S
H148   O160    0.980   .     S
H149   C183    1.083   .     S
O162   C169    1.293   .     S
O165   C178    1.306   .     S
O168   C185    1.382   .     S
C169   O241    1.297   .     A
C169   C172    1.450   .     S
C170   C172    1.400   .     A
C170   H210    1.083   .     S
C170   C709    1.384   1_545 S
C171   C180    1.450   .     S
C171   C206    1.400   .     A
C171   C37     1.403   1_655 S
C173   N240    1.356   .     A
C173   H211    1.082   .     S
C173   C175    1.412   .     A
C174   H212    1.082   .     S
C174   N239    1.356   .     A
C174   C176    1.412   .     A
C175   N239    1.389   .     A
C175   O243    1.374   .     S
C176   O244    1.374   .     S
C176   N240    1.389   .     A
C177   O250    1.298   .     A
C177   C179    1.474   .     S
C177   O80     1.301   1_655 S
C178   O251    1.302   .     A
C178   C181    1.488   .     S
C179   C186    1.416   .     A
C179   C184    1.410   .     A
C180   O245    1.297   .     A
C180   O79     1.293   1_655 S
C181   C187    1.421   .     A
C181   C185    1.416   .     A
C182   C184    1.402   .     A
C182   C190    1.398   .     A
C182   H231    1.084   .     S
C183   C192    1.398   .     A
C183   C185    1.406   .     A
C184   O74     1.382   1_655 S
C186   C198    1.535   .     S
C186   C188    1.421   .     A
C187   C189    1.416   .     A
C187   C195    1.538   .     S
C188   C193    1.420   .     A
C188   C190    1.416   .     A
C189   C194    1.416   .     A
C189   C192    1.412   .     A
C190   C958    1.397   .     S
C191   H234    1.080   .     S
C191   C194    1.408   .     A
C191   C202    1.391   .     A
C192   C959    1.398   1_554 S
C193   C201    1.409   .     A
C193   C950    1.415   .     S
C194   C949    1.415   1_554 S
C195   H218    1.108   .     S
C195   H219    1.110   .     S
C195   C196    1.541   .     S
C196   C197    1.527   .     S
C196   H217    1.108   .     S
C196   H216    1.112   .     S
C197   H215    1.110   .     S
C197   H213    1.111   .     S
C197   H214    1.111   .     S
C198   C199    1.538   .     S
C198   H227    1.110   .     S
C198   H226    1.104   .     S
C199   H224    1.112   .     S
C199   C200    1.527   .     S
C199   H225    1.109   .     S
C200   H223    1.110   .     S
C200   H222    1.111   .     S
C200   H221    1.111   .     S
C201   H235    1.079   .     S
C201   C203    1.393   .     A
C202   H209    1.084   .     S
C202   C946    1.397   1_554 S
C203   H220    1.083   .     S
C203   C948    1.398   .     S
C204   H236    1.083   .     S
C204   C4      1.402   1_655 S
C204   C710    1.384   1_545 S
C205   H237    1.083   .     S
C205   C422    1.384   .     S
C206   H238    1.083   .     S
C206   C456    1.384   .     S
Cu207  O247    1.962   .     S
Cu207  O248    1.938   .     S
Cu207  O251    1.921   .     S
Cu207  O241    1.966   .     S
Cu207  N239    2.022   .     S
Cu208  O250    1.921   .     S
Cu208  N240    2.022   .     S
Cu208  O249    1.938   .     S
Cu208  O246    1.962   .     S
Cu208  O245    1.966   .     S
Cu208  Cu39    2.691   1_655 S
H228   O252    0.991   .     S
H229   O242    0.992   .     S
H230   O243    0.980   .     S
H232   O244    0.980   .     S
H233   C15     1.083   1_655 S
O246   C1      1.293   1_655 S
O249   C10     1.306   1_655 S
O252   C17     1.382   1_655 S
C253   O325    1.297   .     A
C253   C256    1.450   .     S
C253   O498    1.293   1_455 S
C254   C256    1.400   .     A
C254   H294    1.083   .     S
C255   C264    1.450   .     S
C255   C290    1.400   .     A
C255   C373    1.403   .     S
C256   C456    1.402   1_455 S
C257   N324    1.356   .     A
C257   H295    1.082   .     S
C257   C259    1.412   .     A
C258   H296    1.082   .     S
C258   N323    1.356   .     A
C258   C260    1.412   .     A
C259   N323    1.389   .     A
C259   O327    1.374   .     S
C260   O328    1.374   .     S
C260   N324    1.389   .     A
C261   O334    1.298   .     A
C261   C263    1.474   .     S
C261   O416    1.301   .     S
C262   O335    1.302   .     A
C262   C265    1.488   .     S
C262   O501    1.306   1_455 S
C263   C270    1.416   .     A
C263   C268    1.410   .     A
C264   O329    1.297   .     A
C264   O415    1.293   .     S
C265   C271    1.421   .     A
C265   C269    1.416   .     A
C266   C268    1.402   .     A
C266   C274    1.398   .     A
C266   H315    1.084   .     S
C267   C276    1.398   .     A
C267   C269    1.406   .     A
C267   H485    1.083   1_455 S
C268   O410    1.382   .     S
C269   O504    1.382   1_455 S
C270   C282    1.535   .     S
C270   C272    1.421   .     A
C271   C273    1.416   .     A
C271   C279    1.538   .     S
C272   C277    1.420   .     A
C272   C274    1.416   .     A
C273   C278    1.416   .     A
C273   C276    1.412   .     A
C274   C1042   1.397   .     S
C275   H318    1.080   .     S
C275   C278    1.408   .     A
C275   C286    1.391   .     A
C276   C1043   1.398   1_554 S
C277   C285    1.409   .     A
C277   C1034   1.415   .     S
C278   C1033   1.415   1_554 S
C279   H302    1.108   .     S
C279   H303    1.110   .     S
C279   C280    1.541   .     S
C280   C281    1.527   .     S
C280   H301    1.108   .     S
C280   H300    1.112   .     S
C281   H299    1.110   .     S
C281   H297    1.111   .     S
C281   H298    1.111   .     S
C282   C283    1.538   .     S
C282   H311    1.110   .     S
C282   H310    1.104   .     S
C283   H308    1.112   .     S
C283   C284    1.527   .     S
C283   H309    1.109   .     S
C284   H307    1.110   .     S
C284   H306    1.111   .     S
C284   H305    1.111   .     S
C285   H319    1.079   .     S
C285   C287    1.393   .     A
C286   H293    1.084   .     S
C286   C1030   1.397   1_554 S
C287   H304    1.083   .     S
C287   C1032   1.398   .     S
C288   H320    1.083   .     S
C288   C340    1.402   .     S
C289   H321    1.083   .     S
C289   C423    1.403   1_455 S
C289   C506    1.384   .     S
C290   H322    1.083   .     S
C290   C540    1.384   .     S
Cu291  O331    1.962   .     S
Cu291  O332    1.938   .     S
Cu291  O335    1.921   .     S
Cu291  O325    1.966   .     S
Cu291  N323    2.022   .     S
Cu291  Cu460   2.691   1_455 S
Cu292  O334    1.921   .     S
Cu292  N324    2.022   .     S
Cu292  O333    1.938   .     S
Cu292  O330    1.962   .     S
Cu292  O329    1.966   .     S
Cu292  Cu375   2.691   .     S
H312   O336    0.991   .     S
H313   O326    0.992   .     S
H314   O327    0.980   .     S
H316   O328    0.980   .     S
H317   C351    1.083   .     S
O326   C436    1.382   1_455 S
O330   C337    1.293   .     S
O331   C432    1.293   1_455 S
O332   C429    1.301   1_455 S
O333   C346    1.306   .     S
O336   C353    1.382   .     S
C337   O409    1.297   .     A
C337   C340    1.450   .     S
C338   C340    1.400   .     A
C338   H378    1.083   .     S
C339   C348    1.450   .     S
C339   C374    1.400   .     A
C339   C457    1.403   .     S
C341   N408    1.356   .     A
C341   H379    1.082   .     S
C341   C343    1.412   .     A
C342   H380    1.082   .     S
C342   N407    1.356   .     A
C342   C344    1.412   .     A
C343   N407    1.389   .     A
C343   O411    1.374   .     S
C344   O412    1.374   .     S
C344   N408    1.389   .     A
C345   O418    1.298   .     A
C345   C347    1.474   .     S
C345   O500    1.301   .     S
C346   O419    1.302   .     A
C346   C349    1.488   .     S
C347   C354    1.416   .     A
C347   C352    1.410   .     A
C348   O413    1.297   .     A
C348   O499    1.293   .     S
C349   C355    1.421   .     A
C349   C353    1.416   .     A
C350   C352    1.402   .     A
C350   C358    1.398   .     A
C350   H399    1.084   .     S
C351   C360    1.398   .     A
C351   C353    1.406   .     A
C352   O494    1.382   .     S
C354   C366    1.535   .     S
C354   C356    1.421   .     A
C355   C357    1.416   .     A
C355   C363    1.538   .     S
C356   C361    1.420   .     A
C356   C358    1.416   .     A
C357   C362    1.416   .     A
C357   C360    1.412   .     A
C358   C1126   1.397   .     S
C359   H402    1.080   .     S
C359   C362    1.408   .     A
C359   C370    1.391   .     A
C360   C1127   1.398   1_554 S
C361   C369    1.409   .     A
C361   C1118   1.415   .     S
C362   C1117   1.415   1_554 S
C363   H386    1.108   .     S
C363   H387    1.110   .     S
C363   C364    1.541   .     S
C364   C365    1.527   .     S
C364   H385    1.108   .     S
C364   H384    1.112   .     S
C365   H383    1.110   .     S
C365   H381    1.111   .     S
C365   H382    1.111   .     S
C366   C367    1.538   .     S
C366   H395    1.110   .     S
C366   H394    1.104   .     S
C367   H392    1.112   .     S
C367   C368    1.527   .     S
C367   H393    1.109   .     S
C368   H391    1.110   .     S
C368   H390    1.111   .     S
C368   H389    1.111   .     S
C369   H403    1.079   .     S
C369   C371    1.393   .     A
C370   H377    1.084   .     S
C370   C1114   1.397   1_554 S
C371   H388    1.083   .     S
C371   C1116   1.398   .     S
C372   H404    1.083   .     S
C372   C424    1.402   .     S
C373   H405    1.083   .     S
C373   C590    1.384   .     S
C374   H406    1.083   .     S
C374   C624    1.384   .     S
Cu375  O415    1.962   .     S
Cu375  O416    1.938   .     S
Cu375  O419    1.921   .     S
Cu375  O409    1.966   .     S
Cu375  N407    2.022   .     S
Cu376  O418    1.921   .     S
Cu376  N408    2.022   .     S
Cu376  O417    1.938   .     S
Cu376  O414    1.962   .     S
Cu376  O413    1.966   .     S
Cu376  Cu459   2.691   .     S
H396   O420    0.991   .     S
H397   O410    0.992   .     S
H398   O411    0.980   .     S
H400   O412    0.980   .     S
H401   C435    1.083   .     S
O414   C421    1.293   .     S
O417   C430    1.306   .     S
O420   C437    1.382   .     S
C421   O493    1.297   .     A
C421   C424    1.450   .     S
C422   C424    1.400   .     A
C422   H462    1.083   .     S
C423   C432    1.450   .     S
C423   C458    1.400   .     A
C423   C289    1.403   1_655 S
C425   N492    1.356   .     A
C425   H463    1.082   .     S
C425   C427    1.412   .     A
C426   H464    1.082   .     S
C426   N491    1.356   .     A
C426   C428    1.412   .     A
C427   N491    1.389   .     A
C427   O495    1.374   .     S
C428   O496    1.374   .     S
C428   N492    1.389   .     A
C429   O502    1.298   .     A
C429   C431    1.474   .     S
C429   O332    1.301   1_655 S
C430   O503    1.302   .     A
C430   C433    1.488   .     S
C431   C438    1.416   .     A
C431   C436    1.410   .     A
C432   O497    1.297   .     A
C432   O331    1.293   1_655 S
C433   C439    1.421   .     A
C433   C437    1.416   .     A
C434   C436    1.402   .     A
C434   C442    1.398   .     A
C434   H483    1.084   .     S
C435   C444    1.398   .     A
C435   C437    1.406   .     A
C436   O326    1.382   1_655 S
C438   C450    1.535   .     S
C438   C440    1.421   .     A
C439   C441    1.416   .     A
C439   C447    1.538   .     S
C440   C445    1.420   .     A
C440   C442    1.416   .     A
C441   C446    1.416   .     A
C441   C444    1.412   .     A
C442   C1210   1.397   .     S
C443   H486    1.080   .     S
C443   C446    1.408   .     A
C443   C454    1.391   .     A
C444   C1211   1.398   1_554 S
C445   C453    1.409   .     A
C445   C1202   1.415   .     S
C446   C1201   1.415   1_554 S
C447   H470    1.108   .     S
C447   H471    1.110   .     S
C447   C448    1.541   .     S
C448   C449    1.527   .     S
C448   H469    1.108   .     S
C448   H468    1.112   .     S
C449   H467    1.110   .     S
C449   H465    1.111   .     S
C449   H466    1.111   .     S
C450   C451    1.538   .     S
C450   H479    1.110   .     S
C450   H478    1.104   .     S
C451   H476    1.112   .     S
C451   C452    1.527   .     S
C451   H477    1.109   .     S
C452   H475    1.110   .     S
C452   H474    1.111   .     S
C452   H473    1.111   .     S
C453   H487    1.079   .     S
C453   C455    1.393   .     A
C454   H461    1.084   .     S
C454   C1198   1.397   1_554 S
C455   H472    1.083   .     S
C455   C1200   1.398   .     S
C456   H488    1.083   .     S
C456   C256    1.402   1_655 S
C457   H489    1.083   .     S
C457   C674    1.384   .     S
C458   H490    1.083   .     S
C458   C708    1.384   .     S
Cu459  O499    1.962   .     S
Cu459  O500    1.938   .     S
Cu459  O503    1.921   .     S
Cu459  O493    1.966   .     S
Cu459  N491    2.022   .     S
Cu460  O502    1.921   .     S
Cu460  N492    2.022   .     S
Cu460  O501    1.938   .     S
Cu460  O498    1.962   .     S
Cu460  O497    1.966   .     S
Cu460  Cu291   2.691   1_655 S
H480   O504    0.991   .     S
H481   O494    0.992   .     S
H482   O495    0.980   .     S
H484   O496    0.980   .     S
H485   C267    1.083   1_655 S
O498   C253    1.293   1_655 S
O501   C262    1.306   1_655 S
O504   C269    1.382   1_655 S
C505   O577    1.297   .     A
C505   C508    1.450   .     S
C505   O750    1.293   1_455 S
C506   C508    1.400   .     A
C506   H546    1.083   .     S
C507   C516    1.450   .     S
C507   C542    1.400   .     A
C507   C625    1.403   .     S
C508   C708    1.402   1_455 S
C509   N576    1.356   .     A
C509   H547    1.082   .     S
C509   C511    1.412   .     A
C510   H548    1.082   .     S
C510   N575    1.356   .     A
C510   C512    1.412   .     A
C511   N575    1.389   .     A
C511   O579    1.374   .     S
C512   O580    1.374   .     S
C512   N576    1.389   .     A
C513   O586    1.298   .     A
C513   C515    1.474   .     S
C513   O668    1.301   .     S
C514   O587    1.302   .     A
C514   C517    1.488   .     S
C514   O753    1.306   1_455 S
C515   C522    1.416   .     A
C515   C520    1.410   .     A
C516   O581    1.297   .     A
C516   O667    1.293   .     S
C517   C523    1.421   .     A
C517   C521    1.416   .     A
C518   C520    1.402   .     A
C518   C526    1.398   .     A
C518   H567    1.084   .     S
C519   C528    1.398   .     A
C519   C521    1.406   .     A
C519   H737    1.083   1_455 S
C520   O662    1.382   .     S
C521   O756    1.382   1_455 S
C522   C534    1.535   .     S
C522   C524    1.421   .     A
C523   C525    1.416   .     A
C523   C531    1.538   .     S
C524   C529    1.420   .     A
C524   C526    1.416   .     A
C525   C530    1.416   .     A
C525   C528    1.412   .     A
C526   C1294   1.397   .     S
C527   H570    1.080   .     S
C527   C530    1.408   .     A
C527   C538    1.391   .     A
C528   C1295   1.398   1_554 S
C529   C537    1.409   .     A
C529   C1286   1.415   .     S
C530   C1285   1.415   1_554 S
C531   H554    1.108   .     S
C531   H555    1.110   .     S
C531   C532    1.541   .     S
C532   C533    1.527   .     S
C532   H553    1.108   .     S
C532   H552    1.112   .     S
C533   H551    1.110   .     S
C533   H549    1.111   .     S
C533   H550    1.111   .     S
C534   C535    1.538   .     S
C534   H563    1.110   .     S
C534   H562    1.104   .     S
C535   H560    1.112   .     S
C535   C536    1.527   .     S
C535   H561    1.109   .     S
C536   H559    1.110   .     S
C536   H558    1.111   .     S
C536   H557    1.111   .     S
C537   H571    1.079   .     S
C537   C539    1.393   .     A
C538   H545    1.084   .     S
C538   C1282   1.397   1_554 S
C539   H556    1.083   .     S
C539   C1284   1.398   .     S
C540   H572    1.083   .     S
C540   C592    1.402   .     S
C541   H573    1.083   .     S
C541   C675    1.403   1_455 S
C541   C2      1.384   1_565 S
C542   H574    1.083   .     S
C542   C36     1.384   1_565 S
Cu543  O583    1.962   .     S
Cu543  O584    1.938   .     S
Cu543  O587    1.921   .     S
Cu543  O577    1.966   .     S
Cu543  N575    2.022   .     S
Cu543  Cu712   2.691   1_455 S
Cu544  O586    1.921   .     S
Cu544  N576    2.022   .     S
Cu544  O585    1.938   .     S
Cu544  O582    1.962   .     S
Cu544  O581    1.966   .     S
Cu544  Cu627   2.691   .     S
H564   O588    0.991   .     S
H565   O578    0.992   .     S
H566   O579    0.980   .     S
H568   O580    0.980   .     S
H569   C603    1.083   .     S
O578   C688    1.382   1_455 S
O582   C589    1.293   .     S
O583   C684    1.293   1_455 S
O584   C681    1.301   1_455 S
O585   C598    1.306   .     S
O588   C605    1.382   .     S
C589   O661    1.297   .     A
C589   C592    1.450   .     S
C590   C592    1.400   .     A
C590   H630    1.083   .     S
C591   C600    1.450   .     S
C591   C626    1.400   .     A
C591   C709    1.403   .     S
C593   N660    1.356   .     A
C593   H631    1.082   .     S
C593   C595    1.412   .     A
C594   H632    1.082   .     S
C594   N659    1.356   .     A
C594   C596    1.412   .     A
C595   N659    1.389   .     A
C595   O663    1.374   .     S
C596   O664    1.374   .     S
C596   N660    1.389   .     A
C597   O670    1.298   .     A
C597   C599    1.474   .     S
C597   O752    1.301   .     S
C598   O671    1.302   .     A
C598   C601    1.488   .     S
C599   C606    1.416   .     A
C599   C604    1.410   .     A
C600   O665    1.297   .     A
C600   O751    1.293   .     S
C601   C607    1.421   .     A
C601   C605    1.416   .     A
C602   C604    1.402   .     A
C602   C610    1.398   .     A
C602   H651    1.084   .     S
C603   C612    1.398   .     A
C603   C605    1.406   .     A
C604   O746    1.382   .     S
C606   C618    1.535   .     S
C606   C608    1.421   .     A
C607   C609    1.416   .     A
C607   C615    1.538   .     S
C608   C613    1.420   .     A
C608   C610    1.416   .     A
C609   C614    1.416   .     A
C609   C612    1.412   .     A
C610   C1378   1.397   .     S
C611   H654    1.080   .     S
C611   C614    1.408   .     A
C611   C622    1.391   .     A
C612   C1379   1.398   1_554 S
C613   C621    1.409   .     A
C613   C1370   1.415   .     S
C614   C1369   1.415   1_554 S
C615   H638    1.108   .     S
C615   H639    1.110   .     S
C615   C616    1.541   .     S
C616   C617    1.527   .     S
C616   H637    1.108   .     S
C616   H636    1.112   .     S
C617   H635    1.110   .     S
C617   H633    1.111   .     S
C617   H634    1.111   .     S
C618   C619    1.538   .     S
C618   H647    1.110   .     S
C618   H646    1.104   .     S
C619   H644    1.112   .     S
C619   C620    1.527   .     S
C619   H645    1.109   .     S
C620   H643    1.110   .     S
C620   H642    1.111   .     S
C620   H641    1.111   .     S
C621   H655    1.079   .     S
C621   C623    1.393   .     A
C622   H629    1.084   .     S
C622   C1366   1.397   1_554 S
C623   H640    1.083   .     S
C623   C1368   1.398   .     S
C624   H656    1.083   .     S
C624   C676    1.402   .     S
C625   H657    1.083   .     S
C625   C86     1.384   1_565 S
C626   H658    1.083   .     S
C626   C120    1.384   1_565 S
Cu627  O667    1.962   .     S
Cu627  O668    1.938   .     S
Cu627  O671    1.921   .     S
Cu627  O661    1.966   .     S
Cu627  N659    2.022   .     S
Cu628  O670    1.921   .     S
Cu628  N660    2.022   .     S
Cu628  O669    1.938   .     S
Cu628  O666    1.962   .     S
Cu628  O665    1.966   .     S
Cu628  Cu711   2.691   .     S
H648   O672    0.991   .     S
H649   O662    0.992   .     S
H650   O663    0.980   .     S
H652   O664    0.980   .     S
H653   C687    1.083   .     S
O666   C673    1.293   .     S
O669   C682    1.306   .     S
O672   C689    1.382   .     S
C673   O745    1.297   .     A
C673   C676    1.450   .     S
C674   C676    1.400   .     A
C674   H714    1.083   .     S
C675   C684    1.450   .     S
C675   C710    1.400   .     A
C675   C541    1.403   1_655 S
C677   N744    1.356   .     A
C677   H715    1.082   .     S
C677   C679    1.412   .     A
C678   H716    1.082   .     S
C678   N743    1.356   .     A
C678   C680    1.412   .     A
C679   N743    1.389   .     A
C679   O747    1.374   .     S
C680   O748    1.374   .     S
C680   N744    1.389   .     A
C681   O754    1.298   .     A
C681   C683    1.474   .     S
C681   O584    1.301   1_655 S
C682   O755    1.302   .     A
C682   C685    1.488   .     S
C683   C690    1.416   .     A
C683   C688    1.410   .     A
C684   O749    1.297   .     A
C684   O583    1.293   1_655 S
C685   C691    1.421   .     A
C685   C689    1.416   .     A
C686   C688    1.402   .     A
C686   C694    1.398   .     A
C686   H735    1.084   .     S
C687   C696    1.398   .     A
C687   C689    1.406   .     A
C688   O578    1.382   1_655 S
C690   C702    1.535   .     S
C690   C692    1.421   .     A
C691   C693    1.416   .     A
C691   C699    1.538   .     S
C692   C697    1.420   .     A
C692   C694    1.416   .     A
C693   C698    1.416   .     A
C693   C696    1.412   .     A
C694   C1462   1.397   .     S
C695   H738    1.080   .     S
C695   C698    1.408   .     A
C695   C706    1.391   .     A
C696   C1463   1.398   1_554 S
C697   C705    1.409   .     A
C697   C1454   1.415   .     S
C698   C1453   1.415   1_554 S
C699   H722    1.108   .     S
C699   H723    1.110   .     S
C699   C700    1.541   .     S
C700   C701    1.527   .     S
C700   H721    1.108   .     S
C700   H720    1.112   .     S
C701   H719    1.110   .     S
C701   H717    1.111   .     S
C701   H718    1.111   .     S
C702   C703    1.538   .     S
C702   H731    1.110   .     S
C702   H730    1.104   .     S
C703   H728    1.112   .     S
C703   C704    1.527   .     S
C703   H729    1.109   .     S
C704   H727    1.110   .     S
C704   H726    1.111   .     S
C704   H725    1.111   .     S
C705   H739    1.079   .     S
C705   C707    1.393   .     A
C706   H713    1.084   .     S
C706   C1450   1.397   1_554 S
C707   H724    1.083   .     S
C707   C1452   1.398   .     S
C708   H740    1.083   .     S
C708   C508    1.402   1_655 S
C709   H741    1.083   .     S
C709   C170    1.384   1_565 S
C710   H742    1.083   .     S
C710   C204    1.384   1_565 S
Cu711  O751    1.962   .     S
Cu711  O752    1.938   .     S
Cu711  O755    1.921   .     S
Cu711  O745    1.966   .     S
Cu711  N743    2.022   .     S
Cu712  O754    1.921   .     S
Cu712  N744    2.022   .     S
Cu712  O753    1.938   .     S
Cu712  O750    1.962   .     S
Cu712  O749    1.966   .     S
Cu712  Cu543   2.691   1_655 S
H732   O756    0.991   .     S
H733   O746    0.992   .     S
H734   O747    0.980   .     S
H736   O748    0.980   .     S
H737   C519    1.083   1_655 S
O750   C505    1.293   1_655 S
O753   C514    1.306   1_655 S
O756   C521    1.382   1_655 S
C757   O829    1.297   .     A
C757   C760    1.450   .     S
C757   O1002   1.293   1_455 S
C758   C760    1.400   .     A
C758   H798    1.083   .     S
C758   C1297   1.384   1_545 S
C759   C768    1.450   .     S
C759   C794    1.400   .     A
C759   C877    1.403   .     S
C760   C960    1.402   1_455 S
C761   N828    1.356   .     A
C761   H799    1.082   .     S
C761   C763    1.412   .     A
C762   H800    1.082   .     S
C762   N827    1.356   .     A
C762   C764    1.412   .     A
C763   N827    1.389   .     A
C763   O831    1.374   .     S
C764   O832    1.374   .     S
C764   N828    1.389   .     A
C765   O838    1.298   .     A
C765   C767    1.474   .     S
C765   O920    1.301   .     S
C766   O839    1.302   .     A
C766   C769    1.488   .     S
C766   O1005   1.306   1_455 S
C767   C774    1.416   .     A
C767   C772    1.410   .     A
C768   O833    1.297   .     A
C768   O919    1.293   .     S
C769   C775    1.421   .     A
C769   C773    1.416   .     A
C770   C772    1.402   .     A
C770   C778    1.398   .     A
C770   H819    1.084   .     S
C771   C780    1.398   .     A
C771   C773    1.406   .     A
C771   H989    1.083   1_455 S
C772   O914    1.382   .     S
C773   O1008   1.382   1_455 S
C774   C786    1.535   .     S
C774   C776    1.421   .     A
C775   C777    1.416   .     A
C775   C783    1.538   .     S
C776   C781    1.420   .     A
C776   C778    1.416   .     A
C777   C782    1.416   .     A
C777   C780    1.412   .     A
C778   C34     1.397   1_556 S
C779   H822    1.080   .     S
C779   C782    1.408   .     A
C779   C790    1.391   .     A
C781   C789    1.409   .     A
C781   C26     1.415   1_556 S
C783   H806    1.108   .     S
C783   H807    1.110   .     S
C783   C784    1.541   .     S
C784   C785    1.527   .     S
C784   H805    1.108   .     S
C784   H804    1.112   .     S
C785   H803    1.110   .     S
C785   H801    1.111   .     S
C785   H802    1.111   .     S
C786   C787    1.538   .     S
C786   H815    1.110   .     S
C786   H814    1.104   .     S
C787   H812    1.112   .     S
C787   C788    1.527   .     S
C787   H813    1.109   .     S
C788   H811    1.110   .     S
C788   H810    1.111   .     S
C788   H809    1.111   .     S
C789   H823    1.079   .     S
C789   C791    1.393   .     A
C790   H797    1.084   .     S
C791   H808    1.083   .     S
C791   C24     1.398   1_556 S
C792   H824    1.083   .     S
C792   C844    1.402   .     S
C792   C1298   1.384   1_545 S
C793   H825    1.083   .     S
C793   C927    1.403   1_455 S
C793   C1010   1.384   .     S
C794   H826    1.083   .     S
C794   C1044   1.384   .     S
Cu795  O835    1.962   .     S
Cu795  O836    1.938   .     S
Cu795  O839    1.921   .     S
Cu795  O829    1.966   .     S
Cu795  N827    2.022   .     S
Cu795  Cu964   2.691   1_455 S
Cu796  O838    1.921   .     S
Cu796  N828    2.022   .     S
Cu796  O837    1.938   .     S
Cu796  O834    1.962   .     S
Cu796  O833    1.966   .     S
Cu796  Cu879   2.691   .     S
H816   O840    0.991   .     S
H817   O830    0.992   .     S
H818   O831    0.980   .     S
H820   O832    0.980   .     S
H821   C855    1.083   .     S
O830   C940    1.382   1_455 S
O834   C841    1.293   .     S
O835   C936    1.293   1_455 S
O836   C933    1.301   1_455 S
O837   C850    1.306   .     S
O840   C857    1.382   .     S
C841   O913    1.297   .     A
C841   C844    1.450   .     S
C842   C844    1.400   .     A
C842   H882    1.083   .     S
C842   C1381   1.384   1_545 S
C843   C852    1.450   .     S
C843   C878    1.400   .     A
C843   C961    1.403   .     S
C845   N912    1.356   .     A
C845   H883    1.082   .     S
C845   C847    1.412   .     A
C846   H884    1.082   .     S
C846   N911    1.356   .     A
C846   C848    1.412   .     A
C847   N911    1.389   .     A
C847   O915    1.374   .     S
C848   O916    1.374   .     S
C848   N912    1.389   .     A
C849   O922    1.298   .     A
C849   C851    1.474   .     S
C849   O1004   1.301   .     S
C850   O923    1.302   .     A
C850   C853    1.488   .     S
C851   C858    1.416   .     A
C851   C856    1.410   .     A
C852   O917    1.297   .     A
C852   O1003   1.293   .     S
C853   C859    1.421   .     A
C853   C857    1.416   .     A
C854   C856    1.402   .     A
C854   C862    1.398   .     A
C854   H903    1.084   .     S
C855   C864    1.398   .     A
C855   C857    1.406   .     A
C856   O998    1.382   .     S
C858   C870    1.535   .     S
C858   C860    1.421   .     A
C859   C861    1.416   .     A
C859   C867    1.538   .     S
C860   C865    1.420   .     A
C860   C862    1.416   .     A
C861   C866    1.416   .     A
C861   C864    1.412   .     A
C862   C118    1.397   1_556 S
C863   H906    1.080   .     S
C863   C866    1.408   .     A
C863   C874    1.391   .     A
C865   C873    1.409   .     A
C865   C110    1.415   1_556 S
C867   H890    1.108   .     S
C867   H891    1.110   .     S
C867   C868    1.541   .     S
C868   C869    1.527   .     S
C868   H889    1.108   .     S
C868   H888    1.112   .     S
C869   H887    1.110   .     S
C869   H885    1.111   .     S
C869   H886    1.111   .     S
C870   C871    1.538   .     S
C870   H899    1.110   .     S
C870   H898    1.104   .     S
C871   H896    1.112   .     S
C871   C872    1.527   .     S
C871   H897    1.109   .     S
C872   H895    1.110   .     S
C872   H894    1.111   .     S
C872   H893    1.111   .     S
C873   H907    1.079   .     S
C873   C875    1.393   .     A
C874   H881    1.084   .     S
C875   H892    1.083   .     S
C875   C108    1.398   1_556 S
C876   H908    1.083   .     S
C876   C928    1.402   .     S
C876   C1382   1.384   1_545 S
C877   H909    1.083   .     S
C877   C1094   1.384   .     S
C878   H910    1.083   .     S
C878   C1128   1.384   .     S
Cu879  O919    1.962   .     S
Cu879  O920    1.938   .     S
Cu879  O923    1.921   .     S
Cu879  O913    1.966   .     S
Cu879  N911    2.022   .     S
Cu880  O922    1.921   .     S
Cu880  N912    2.022   .     S
Cu880  O921    1.938   .     S
Cu880  O918    1.962   .     S
Cu880  O917    1.966   .     S
Cu880  Cu963   2.691   .     S
H900   O924    0.991   .     S
H901   O914    0.992   .     S
H902   O915    0.980   .     S
H904   O916    0.980   .     S
H905   C939    1.083   .     S
O918   C925    1.293   .     S
O921   C934    1.306   .     S
O924   C941    1.382   .     S
C925   O997    1.297   .     A
C925   C928    1.450   .     S
C926   C928    1.400   .     A
C926   H966    1.083   .     S
C926   C1465   1.384   1_545 S
C927   C936    1.450   .     S
C927   C962    1.400   .     A
C927   C793    1.403   1_655 S
C929   N996    1.356   .     A
C929   H967    1.082   .     S
C929   C931    1.412   .     A
C930   H968    1.082   .     S
C930   N995    1.356   .     A
C930   C932    1.412   .     A
C931   N995    1.389   .     A
C931   O999    1.374   .     S
C932   O1000   1.374   .     S
C932   N996    1.389   .     A
C933   O1006   1.298   .     A
C933   C935    1.474   .     S
C933   O836    1.301   1_655 S
C934   O1007   1.302   .     A
C934   C937    1.488   .     S
C935   C942    1.416   .     A
C935   C940    1.410   .     A
C936   O1001   1.297   .     A
C936   O835    1.293   1_655 S
C937   C943    1.421   .     A
C937   C941    1.416   .     A
C938   C940    1.402   .     A
C938   C946    1.398   .     A
C938   H987    1.084   .     S
C939   C948    1.398   .     A
C939   C941    1.406   .     A
C940   O830    1.382   1_655 S
C942   C954    1.535   .     S
C942   C944    1.421   .     A
C943   C945    1.416   .     A
C943   C951    1.538   .     S
C944   C949    1.420   .     A
C944   C946    1.416   .     A
C945   C950    1.416   .     A
C945   C948    1.412   .     A
C946   C202    1.397   1_556 S
C947   H990    1.080   .     S
C947   C950    1.408   .     A
C947   C958    1.391   .     A
C949   C957    1.409   .     A
C949   C194    1.415   1_556 S
C951   H974    1.108   .     S
C951   H975    1.110   .     S
C951   C952    1.541   .     S
C952   C953    1.527   .     S
C952   H973    1.108   .     S
C952   H972    1.112   .     S
C953   H971    1.110   .     S
C953   H969    1.111   .     S
C953   H970    1.111   .     S
C954   C955    1.538   .     S
C954   H983    1.110   .     S
C954   H982    1.104   .     S
C955   H980    1.112   .     S
C955   C956    1.527   .     S
C955   H981    1.109   .     S
C956   H979    1.110   .     S
C956   H978    1.111   .     S
C956   H977    1.111   .     S
C957   H991    1.079   .     S
C957   C959    1.393   .     A
C958   H965    1.084   .     S
C959   H976    1.083   .     S
C959   C192    1.398   1_556 S
C960   H992    1.083   .     S
C960   C760    1.402   1_655 S
C960   C1466   1.384   1_545 S
C961   H993    1.083   .     S
C961   C1178   1.384   .     S
C962   H994    1.083   .     S
C962   C1212   1.384   .     S
Cu963  O1003   1.962   .     S
Cu963  O1004   1.938   .     S
Cu963  O1007   1.921   .     S
Cu963  O997    1.966   .     S
Cu963  N995    2.022   .     S
Cu964  O1006   1.921   .     S
Cu964  N996    2.022   .     S
Cu964  O1005   1.938   .     S
Cu964  O1002   1.962   .     S
Cu964  O1001   1.966   .     S
Cu964  Cu795   2.691   1_655 S
H984   O1008   0.991   .     S
H985   O998    0.992   .     S
H986   O999    0.980   .     S
H988   O1000   0.980   .     S
H989   C771    1.083   1_655 S
O1002  C757    1.293   1_655 S
O1005  C766    1.306   1_655 S
O1008  C773    1.382   1_655 S
C1009  O1081   1.297   .     A
C1009  C1012   1.450   .     S
C1009  O1254   1.293   1_455 S
C1010  C1012   1.400   .     A
C1010  H1050   1.083   .     S
C1011  C1020   1.450   .     S
C1011  C1046   1.400   .     A
C1011  C1129   1.403   .     S
C1012  C1212   1.402   1_455 S
C1013  N1080   1.356   .     A
C1013  H1051   1.082   .     S
C1013  C1015   1.412   .     A
C1014  H1052   1.082   .     S
C1014  N1079   1.356   .     A
C1014  C1016   1.412   .     A
C1015  N1079   1.389   .     A
C1015  O1083   1.374   .     S
C1016  O1084   1.374   .     S
C1016  N1080   1.389   .     A
C1017  O1090   1.298   .     A
C1017  C1019   1.474   .     S
C1017  O1172   1.301   .     S
C1018  O1091   1.302   .     A
C1018  C1021   1.488   .     S
C1018  O1257   1.306   1_455 S
C1019  C1026   1.416   .     A
C1019  C1024   1.410   .     A
C1020  O1085   1.297   .     A
C1020  O1171   1.293   .     S
C1021  C1027   1.421   .     A
C1021  C1025   1.416   .     A
C1022  C1024   1.402   .     A
C1022  C1030   1.398   .     A
C1022  H1071   1.084   .     S
C1023  C1032   1.398   .     A
C1023  C1025   1.406   .     A
C1023  H1241   1.083   1_455 S
C1024  O1166   1.382   .     S
C1025  O1260   1.382   1_455 S
C1026  C1038   1.535   .     S
C1026  C1028   1.421   .     A
C1027  C1029   1.416   .     A
C1027  C1035   1.538   .     S
C1028  C1033   1.420   .     A
C1028  C1030   1.416   .     A
C1029  C1034   1.416   .     A
C1029  C1032   1.412   .     A
C1030  C286    1.397   1_556 S
C1031  H1074   1.080   .     S
C1031  C1034   1.408   .     A
C1031  C1042   1.391   .     A
C1033  C1041   1.409   .     A
C1033  C278    1.415   1_556 S
C1035  H1058   1.108   .     S
C1035  H1059   1.110   .     S
C1035  C1036   1.541   .     S
C1036  C1037   1.527   .     S
C1036  H1057   1.108   .     S
C1036  H1056   1.112   .     S
C1037  H1055   1.110   .     S
C1037  H1053   1.111   .     S
C1037  H1054   1.111   .     S
C1038  C1039   1.538   .     S
C1038  H1067   1.110   .     S
C1038  H1066   1.104   .     S
C1039  H1064   1.112   .     S
C1039  C1040   1.527   .     S
C1039  H1065   1.109   .     S
C1040  H1063   1.110   .     S
C1040  H1062   1.111   .     S
C1040  H1061   1.111   .     S
C1041  H1075   1.079   .     S
C1041  C1043   1.393   .     A
C1042  H1049   1.084   .     S
C1043  H1060   1.083   .     S
C1043  C276    1.398   1_556 S
C1044  H1076   1.083   .     S
C1044  C1096   1.402   .     S
C1045  H1077   1.083   .     S
C1045  C1179   1.403   1_455 S
C1045  C1262   1.384   .     S
C1046  H1078   1.083   .     S
C1046  C1296   1.384   .     S
Cu1047 O1087   1.962   .     S
Cu1047 O1088   1.938   .     S
Cu1047 O1091   1.921   .     S
Cu1047 O1081   1.966   .     S
Cu1047 N1079   2.022   .     S
Cu1047 Cu1216  2.691   1_455 S
Cu1048 O1090   1.921   .     S
Cu1048 N1080   2.022   .     S
Cu1048 O1089   1.938   .     S
Cu1048 O1086   1.962   .     S
Cu1048 O1085   1.966   .     S
Cu1048 Cu1131  2.691   .     S
H1068  O1092   0.991   .     S
H1069  O1082   0.992   .     S
H1070  O1083   0.980   .     S
H1072  O1084   0.980   .     S
H1073  C1107   1.083   .     S
O1082  C1192   1.382   1_455 S
O1086  C1093   1.293   .     S
O1087  C1188   1.293   1_455 S
O1088  C1185   1.301   1_455 S
O1089  C1102   1.306   .     S
O1092  C1109   1.382   .     S
C1093  O1165   1.297   .     A
C1093  C1096   1.450   .     S
C1094  C1096   1.400   .     A
C1094  H1134   1.083   .     S
C1095  C1104   1.450   .     S
C1095  C1130   1.400   .     A
C1095  C1213   1.403   .     S
C1097  N1164   1.356   .     A
C1097  H1135   1.082   .     S
C1097  C1099   1.412   .     A
C1098  H1136   1.082   .     S
C1098  N1163   1.356   .     A
C1098  C1100   1.412   .     A
C1099  N1163   1.389   .     A
C1099  O1167   1.374   .     S
C1100  O1168   1.374   .     S
C1100  N1164   1.389   .     A
C1101  O1174   1.298   .     A
C1101  C1103   1.474   .     S
C1101  O1256   1.301   .     S
C1102  O1175   1.302   .     A
C1102  C1105   1.488   .     S
C1103  C1110   1.416   .     A
C1103  C1108   1.410   .     A
C1104  O1169   1.297   .     A
C1104  O1255   1.293   .     S
C1105  C1111   1.421   .     A
C1105  C1109   1.416   .     A
C1106  C1108   1.402   .     A
C1106  C1114   1.398   .     A
C1106  H1155   1.084   .     S
C1107  C1116   1.398   .     A
C1107  C1109   1.406   .     A
C1108  O1250   1.382   .     S
C1110  C1122   1.535   .     S
C1110  C1112   1.421   .     A
C1111  C1113   1.416   .     A
C1111  C1119   1.538   .     S
C1112  C1117   1.420   .     A
C1112  C1114   1.416   .     A
C1113  C1118   1.416   .     A
C1113  C1116   1.412   .     A
C1114  C370    1.397   1_556 S
C1115  H1158   1.080   .     S
C1115  C1118   1.408   .     A
C1115  C1126   1.391   .     A
C1117  C1125   1.409   .     A
C1117  C362    1.415   1_556 S
C1119  H1142   1.108   .     S
C1119  H1143   1.110   .     S
C1119  C1120   1.541   .     S
C1120  C1121   1.527   .     S
C1120  H1141   1.108   .     S
C1120  H1140   1.112   .     S
C1121  H1139   1.110   .     S
C1121  H1137   1.111   .     S
C1121  H1138   1.111   .     S
C1122  C1123   1.538   .     S
C1122  H1151   1.110   .     S
C1122  H1150   1.104   .     S
C1123  H1148   1.112   .     S
C1123  C1124   1.527   .     S
C1123  H1149   1.109   .     S
C1124  H1147   1.110   .     S
C1124  H1146   1.111   .     S
C1124  H1145   1.111   .     S
C1125  H1159   1.079   .     S
C1125  C1127   1.393   .     A
C1126  H1133   1.084   .     S
C1127  H1144   1.083   .     S
C1127  C360    1.398   1_556 S
C1128  H1160   1.083   .     S
C1128  C1180   1.402   .     S
C1129  H1161   1.083   .     S
C1129  C1346   1.384   .     S
C1130  H1162   1.083   .     S
C1130  C1380   1.384   .     S
Cu1131 O1171   1.962   .     S
Cu1131 O1172   1.938   .     S
Cu1131 O1175   1.921   .     S
Cu1131 O1165   1.966   .     S
Cu1131 N1163   2.022   .     S
Cu1132 O1174   1.921   .     S
Cu1132 N1164   2.022   .     S
Cu1132 O1173   1.938   .     S
Cu1132 O1170   1.962   .     S
Cu1132 O1169   1.966   .     S
Cu1132 Cu1215  2.691   .     S
H1152  O1176   0.991   .     S
H1153  O1166   0.992   .     S
H1154  O1167   0.980   .     S
H1156  O1168   0.980   .     S
H1157  C1191   1.083   .     S
O1170  C1177   1.293   .     S
O1173  C1186   1.306   .     S
O1176  C1193   1.382   .     S
C1177  O1249   1.297   .     A
C1177  C1180   1.450   .     S
C1178  C1180   1.400   .     A
C1178  H1218   1.083   .     S
C1179  C1188   1.450   .     S
C1179  C1214   1.400   .     A
C1179  C1045   1.403   1_655 S
C1181  N1248   1.356   .     A
C1181  H1219   1.082   .     S
C1181  C1183   1.412   .     A
C1182  H1220   1.082   .     S
C1182  N1247   1.356   .     A
C1182  C1184   1.412   .     A
C1183  N1247   1.389   .     A
C1183  O1251   1.374   .     S
C1184  O1252   1.374   .     S
C1184  N1248   1.389   .     A
C1185  O1258   1.298   .     A
C1185  C1187   1.474   .     S
C1185  O1088   1.301   1_655 S
C1186  O1259   1.302   .     A
C1186  C1189   1.488   .     S
C1187  C1194   1.416   .     A
C1187  C1192   1.410   .     A
C1188  O1253   1.297   .     A
C1188  O1087   1.293   1_655 S
C1189  C1195   1.421   .     A
C1189  C1193   1.416   .     A
C1190  C1192   1.402   .     A
C1190  C1198   1.398   .     A
C1190  H1239   1.084   .     S
C1191  C1200   1.398   .     A
C1191  C1193   1.406   .     A
C1192  O1082   1.382   1_655 S
C1194  C1206   1.535   .     S
C1194  C1196   1.421   .     A
C1195  C1197   1.416   .     A
C1195  C1203   1.538   .     S
C1196  C1201   1.420   .     A
C1196  C1198   1.416   .     A
C1197  C1202   1.416   .     A
C1197  C1200   1.412   .     A
C1198  C454    1.397   1_556 S
C1199  H1242   1.080   .     S
C1199  C1202   1.408   .     A
C1199  C1210   1.391   .     A
C1201  C1209   1.409   .     A
C1201  C446    1.415   1_556 S
C1203  H1226   1.108   .     S
C1203  H1227   1.110   .     S
C1203  C1204   1.541   .     S
C1204  C1205   1.527   .     S
C1204  H1225   1.108   .     S
C1204  H1224   1.112   .     S
C1205  H1223   1.110   .     S
C1205  H1221   1.111   .     S
C1205  H1222   1.111   .     S
C1206  C1207   1.538   .     S
C1206  H1235   1.110   .     S
C1206  H1234   1.104   .     S
C1207  H1232   1.112   .     S
C1207  C1208   1.527   .     S
C1207  H1233   1.109   .     S
C1208  H1231   1.110   .     S
C1208  H1230   1.111   .     S
C1208  H1229   1.111   .     S
C1209  H1243   1.079   .     S
C1209  C1211   1.393   .     A
C1210  H1217   1.084   .     S
C1211  H1228   1.083   .     S
C1211  C444    1.398   1_556 S
C1212  H1244   1.083   .     S
C1212  C1012   1.402   1_655 S
C1213  H1245   1.083   .     S
C1213  C1430   1.384   .     S
C1214  H1246   1.083   .     S
C1214  C1464   1.384   .     S
Cu1215 O1255   1.962   .     S
Cu1215 O1256   1.938   .     S
Cu1215 O1259   1.921   .     S
Cu1215 O1249   1.966   .     S
Cu1215 N1247   2.022   .     S
Cu1216 O1258   1.921   .     S
Cu1216 N1248   2.022   .     S
Cu1216 O1257   1.938   .     S
Cu1216 O1254   1.962   .     S
Cu1216 O1253   1.966   .     S
Cu1216 Cu1047  2.691   1_655 S
H1236  O1260   0.991   .     S
H1237  O1250   0.992   .     S
H1238  O1251   0.980   .     S
H1240  O1252   0.980   .     S
H1241  C1023   1.083   1_655 S
O1254  C1009   1.293   1_655 S
O1257  C1018   1.306   1_655 S
O1260  C1025   1.382   1_655 S
C1261  O1333   1.297   .     A
C1261  C1264   1.450   .     S
C1261  O1506   1.293   1_455 S
C1262  C1264   1.400   .     A
C1262  H1302   1.083   .     S
C1263  C1272   1.450   .     S
C1263  C1298   1.400   .     A
C1263  C1381   1.403   .     S
C1264  C1464   1.402   1_455 S
C1265  N1332   1.356   .     A
C1265  H1303   1.082   .     S
C1265  C1267   1.412   .     A
C1266  H1304   1.082   .     S
C1266  N1331   1.356   .     A
C1266  C1268   1.412   .     A
C1267  N1331   1.389   .     A
C1267  O1335   1.374   .     S
C1268  O1336   1.374   .     S
C1268  N1332   1.389   .     A
C1269  O1342   1.298   .     A
C1269  C1271   1.474   .     S
C1269  O1424   1.301   .     S
C1270  O1343   1.302   .     A
C1270  C1273   1.488   .     S
C1270  O1509   1.306   1_455 S
C1271  C1278   1.416   .     A
C1271  C1276   1.410   .     A
C1272  O1337   1.297   .     A
C1272  O1423   1.293   .     S
C1273  C1279   1.421   .     A
C1273  C1277   1.416   .     A
C1274  C1276   1.402   .     A
C1274  C1282   1.398   .     A
C1274  H1323   1.084   .     S
C1275  C1284   1.398   .     A
C1275  C1277   1.406   .     A
C1275  H1493   1.083   1_455 S
C1276  O1418   1.382   .     S
C1277  O1512   1.382   1_455 S
C1278  C1290   1.535   .     S
C1278  C1280   1.421   .     A
C1279  C1281   1.416   .     A
C1279  C1287   1.538   .     S
C1280  C1285   1.420   .     A
C1280  C1282   1.416   .     A
C1281  C1286   1.416   .     A
C1281  C1284   1.412   .     A
C1282  C538    1.397   1_556 S
C1283  H1326   1.080   .     S
C1283  C1286   1.408   .     A
C1283  C1294   1.391   .     A
C1285  C1293   1.409   .     A
C1285  C530    1.415   1_556 S
C1287  H1310   1.108   .     S
C1287  H1311   1.110   .     S
C1287  C1288   1.541   .     S
C1288  C1289   1.527   .     S
C1288  H1309   1.108   .     S
C1288  H1308   1.112   .     S
C1289  H1307   1.110   .     S
C1289  H1305   1.111   .     S
C1289  H1306   1.111   .     S
C1290  C1291   1.538   .     S
C1290  H1319   1.110   .     S
C1290  H1318   1.104   .     S
C1291  H1316   1.112   .     S
C1291  C1292   1.527   .     S
C1291  H1317   1.109   .     S
C1292  H1315   1.110   .     S
C1292  H1314   1.111   .     S
C1292  H1313   1.111   .     S
C1293  H1327   1.079   .     S
C1293  C1295   1.393   .     A
C1294  H1301   1.084   .     S
C1295  H1312   1.083   .     S
C1295  C528    1.398   1_556 S
C1296  H1328   1.083   .     S
C1296  C1348   1.402   .     S
C1297  H1329   1.083   .     S
C1297  C1431   1.403   1_455 S
C1297  C758    1.384   1_565 S
C1298  H1330   1.083   .     S
C1298  C792    1.384   1_565 S
Cu1299 O1339   1.962   .     S
Cu1299 O1340   1.938   .     S
Cu1299 O1343   1.921   .     S
Cu1299 O1333   1.966   .     S
Cu1299 N1331   2.022   .     S
Cu1299 Cu1468  2.691   1_455 S
Cu1300 O1342   1.921   .     S
Cu1300 N1332   2.022   .     S
Cu1300 O1341   1.938   .     S
Cu1300 O1338   1.962   .     S
Cu1300 O1337   1.966   .     S
Cu1300 Cu1383  2.691   .     S
H1320  O1344   0.991   .     S
H1321  O1334   0.992   .     S
H1322  O1335   0.980   .     S
H1324  O1336   0.980   .     S
H1325  C1359   1.083   .     S
O1334  C1444   1.382   1_455 S
O1338  C1345   1.293   .     S
O1339  C1440   1.293   1_455 S
O1340  C1437   1.301   1_455 S
O1341  C1354   1.306   .     S
O1344  C1361   1.382   .     S
C1345  O1417   1.297   .     A
C1345  C1348   1.450   .     S
C1346  C1348   1.400   .     A
C1346  H1386   1.083   .     S
C1347  C1356   1.450   .     S
C1347  C1382   1.400   .     A
C1347  C1465   1.403   .     S
C1349  N1416   1.356   .     A
C1349  H1387   1.082   .     S
C1349  C1351   1.412   .     A
C1350  H1388   1.082   .     S
C1350  N1415   1.356   .     A
C1350  C1352   1.412   .     A
C1351  N1415   1.389   .     A
C1351  O1419   1.374   .     S
C1352  O1420   1.374   .     S
C1352  N1416   1.389   .     A
C1353  O1426   1.298   .     A
C1353  C1355   1.474   .     S
C1353  O1508   1.301   .     S
C1354  O1427   1.302   .     A
C1354  C1357   1.488   .     S
C1355  C1362   1.416   .     A
C1355  C1360   1.410   .     A
C1356  O1421   1.297   .     A
C1356  O1507   1.293   .     S
C1357  C1363   1.421   .     A
C1357  C1361   1.416   .     A
C1358  C1360   1.402   .     A
C1358  C1366   1.398   .     A
C1358  H1407   1.084   .     S
C1359  C1368   1.398   .     A
C1359  C1361   1.406   .     A
C1360  O1502   1.382   .     S
C1362  C1374   1.535   .     S
C1362  C1364   1.421   .     A
C1363  C1365   1.416   .     A
C1363  C1371   1.538   .     S
C1364  C1369   1.420   .     A
C1364  C1366   1.416   .     A
C1365  C1370   1.416   .     A
C1365  C1368   1.412   .     A
C1366  C622    1.397   1_556 S
C1367  H1410   1.080   .     S
C1367  C1370   1.408   .     A
C1367  C1378   1.391   .     A
C1369  C1377   1.409   .     A
C1369  C614    1.415   1_556 S
C1371  H1394   1.108   .     S
C1371  H1395   1.110   .     S
C1371  C1372   1.541   .     S
C1372  C1373   1.527   .     S
C1372  H1393   1.108   .     S
C1372  H1392   1.112   .     S
C1373  H1391   1.110   .     S
C1373  H1389   1.111   .     S
C1373  H1390   1.111   .     S
C1374  C1375   1.538   .     S
C1374  H1403   1.110   .     S
C1374  H1402   1.104   .     S
C1375  H1400   1.112   .     S
C1375  C1376   1.527   .     S
C1375  H1401   1.109   .     S
C1376  H1399   1.110   .     S
C1376  H1398   1.111   .     S
C1376  H1397   1.111   .     S
C1377  H1411   1.079   .     S
C1377  C1379   1.393   .     A
C1378  H1385   1.084   .     S
C1379  H1396   1.083   .     S
C1379  C612    1.398   1_556 S
C1380  H1412   1.083   .     S
C1380  C1432   1.402   .     S
C1381  H1413   1.083   .     S
C1381  C842    1.384   1_565 S
C1382  H1414   1.083   .     S
C1382  C876    1.384   1_565 S
Cu1383 O1423   1.962   .     S
Cu1383 O1424   1.938   .     S
Cu1383 O1427   1.921   .     S
Cu1383 O1417   1.966   .     S
Cu1383 N1415   2.022   .     S
Cu1384 O1426   1.921   .     S
Cu1384 N1416   2.022   .     S
Cu1384 O1425   1.938   .     S
Cu1384 O1422   1.962   .     S
Cu1384 O1421   1.966   .     S
Cu1384 Cu1467  2.691   .     S
H1404  O1428   0.991   .     S
H1405  O1418   0.992   .     S
H1406  O1419   0.980   .     S
H1408  O1420   0.980   .     S
H1409  C1443   1.083   .     S
O1422  C1429   1.293   .     S
O1425  C1438   1.306   .     S
O1428  C1445   1.382   .     S
C1429  O1501   1.297   .     A
C1429  C1432   1.450   .     S
C1430  C1432   1.400   .     A
C1430  H1470   1.083   .     S
C1431  C1440   1.450   .     S
C1431  C1466   1.400   .     A
C1431  C1297   1.403   1_655 S
C1433  N1500   1.356   .     A
C1433  H1471   1.082   .     S
C1433  C1435   1.412   .     A
C1434  H1472   1.082   .     S
C1434  N1499   1.356   .     A
C1434  C1436   1.412   .     A
C1435  N1499   1.389   .     A
C1435  O1503   1.374   .     S
C1436  O1504   1.374   .     S
C1436  N1500   1.389   .     A
C1437  O1510   1.298   .     A
C1437  C1439   1.474   .     S
C1437  O1340   1.301   1_655 S
C1438  O1511   1.302   .     A
C1438  C1441   1.488   .     S
C1439  C1446   1.416   .     A
C1439  C1444   1.410   .     A
C1440  O1505   1.297   .     A
C1440  O1339   1.293   1_655 S
C1441  C1447   1.421   .     A
C1441  C1445   1.416   .     A
C1442  C1444   1.402   .     A
C1442  C1450   1.398   .     A
C1442  H1491   1.084   .     S
C1443  C1452   1.398   .     A
C1443  C1445   1.406   .     A
C1444  O1334   1.382   1_655 S
C1446  C1458   1.535   .     S
C1446  C1448   1.421   .     A
C1447  C1449   1.416   .     A
C1447  C1455   1.538   .     S
C1448  C1453   1.420   .     A
C1448  C1450   1.416   .     A
C1449  C1454   1.416   .     A
C1449  C1452   1.412   .     A
C1450  C706    1.397   1_556 S
C1451  H1494   1.080   .     S
C1451  C1454   1.408   .     A
C1451  C1462   1.391   .     A
C1453  C1461   1.409   .     A
C1453  C698    1.415   1_556 S
C1455  H1478   1.108   .     S
C1455  H1479   1.110   .     S
C1455  C1456   1.541   .     S
C1456  C1457   1.527   .     S
C1456  H1477   1.108   .     S
C1456  H1476   1.112   .     S
C1457  H1475   1.110   .     S
C1457  H1473   1.111   .     S
C1457  H1474   1.111   .     S
C1458  C1459   1.538   .     S
C1458  H1487   1.110   .     S
C1458  H1486   1.104   .     S
C1459  H1484   1.112   .     S
C1459  C1460   1.527   .     S
C1459  H1485   1.109   .     S
C1460  H1483   1.110   .     S
C1460  H1482   1.111   .     S
C1460  H1481   1.111   .     S
C1461  H1495   1.079   .     S
C1461  C1463   1.393   .     A
C1462  H1469   1.084   .     S
C1463  H1480   1.083   .     S
C1463  C696    1.398   1_556 S
C1464  H1496   1.083   .     S
C1464  C1264   1.402   1_655 S
C1465  H1497   1.083   .     S
C1465  C926    1.384   1_565 S
C1466  H1498   1.083   .     S
C1466  C960    1.384   1_565 S
Cu1467 O1507   1.962   .     S
Cu1467 O1508   1.938   .     S
Cu1467 O1511   1.921   .     S
Cu1467 O1501   1.966   .     S
Cu1467 N1499   2.022   .     S
Cu1468 O1510   1.921   .     S
Cu1468 N1500   2.022   .     S
Cu1468 O1509   1.938   .     S
Cu1468 O1506   1.962   .     S
Cu1468 O1505   1.966   .     S
Cu1468 Cu1299  2.691   1_655 S
H1488  O1512   0.991   .     S
H1489  O1502   0.992   .     S
H1490  O1503   0.980   .     S
H1492  O1504   0.980   .     S
H1493  C1275   1.083   1_655 S
O1506  C1261   1.293   1_655 S
O1509  C1270   1.306   1_655 S
O1512  C1277   1.382   1_655 S
