data_str_m2_o5_o17_pcu_sym.36
_audit_creation_date              2020-01-03
_audit_creation_method            'Materials Studio'
_symmetry_space_group_name_H-M    'P1'
_symmetry_Int_Tables_number       1
_symmetry_cell_setting            triclinic
loop_
_symmetry_equiv_pos_as_xyz
  x,y,z
_cell_length_a                    30.2610
_cell_length_b                    27.2262
_cell_length_c                    23.3566
_cell_angle_alpha                 90.0145
_cell_angle_beta                  90.0004
_cell_angle_gamma                 90.0001
loop_
_atom_site_label
_atom_site_type_symbol
_atom_site_fract_x
_atom_site_fract_y
_atom_site_fract_z
_atom_site_U_iso_or_equiv
_atom_site_adp_type
_atom_site_occupancy
O1     O     0.25000   0.09613   0.21425   0.00000  Uiso   1.00
O2     O     0.25000   0.23720   0.11908   0.00000  Uiso   1.00
O3     O     0.25000   0.23720   0.21425   0.00000  Uiso   1.00
O4     O     0.25000   0.09613   0.11908   0.00000  Uiso   1.00
C5     C     0.25000   0.07335   0.16666   0.00000  Uiso   1.00
C6     C     0.25000   0.25998   0.16667   0.00000  Uiso   1.00
O7     O     0.18513   0.16667   0.21427   0.00000  Uiso   1.00
O8     O     0.31487   0.16667   0.11907   0.00000  Uiso   1.00
O9     O     0.31487   0.16667   0.21427   0.00000  Uiso   1.00
O10    O     0.18513   0.16667   0.11907   0.00000  Uiso   1.00
C11    C     0.16432   0.16667   0.16667   0.00000  Uiso   1.00
C12    C     0.33568   0.16667   0.16667   0.00000  Uiso   1.00
Cu13   Cu    0.25000   0.16667   0.22303   0.00000  Uiso   1.00
Cu14   Cu    0.25000   0.16667   0.11031   0.00000  Uiso   1.00
N15    N     0.25000   0.16667   0.02561   0.00000  Uiso   1.00
N16    N     0.25000   0.16667   0.30773   0.00000  Uiso   1.00
C17    C     0.40653   0.20245   0.13526   0.00000  Uiso   1.00
C18    C     0.09347   0.13089   0.19809   0.00000  Uiso   1.00
C19    C     0.40653   0.13089   0.19808   0.00000  Uiso   1.00
C20    C     0.09347   0.20244   0.13525   0.00000  Uiso   1.00
C21    C     0.38387   0.16667   0.16667   0.00000  Uiso   1.00
C22    C     0.11613   0.16667   0.16667   0.00000  Uiso   1.00
C23    C     0.45318   0.12858   0.19548   0.00000  Uiso   1.00
C24    C     0.04682   0.20476   0.13787   0.00000  Uiso   1.00
C25    C     0.45318   0.20476   0.13787   0.00000  Uiso   1.00
C26    C     0.04682   0.12858   0.19548   0.00000  Uiso   1.00
C27    C     0.47660   0.16667   0.16667   0.00000  Uiso   1.00
C28    C     0.02340   0.16667   0.16667   0.00000  Uiso   1.00
C29    C     0.47680   0.08864   0.21950   0.00000  Uiso   1.00
C30    C     0.02320   0.24470   0.11386   0.00000  Uiso   1.00
C31    C     0.47680   0.24470   0.11387   0.00000  Uiso   1.00
C32    C     0.02320   0.08864   0.21950   0.00000  Uiso   1.00
C33    C     0.25000   0.02180   0.16666   0.00000  Uiso   1.00
C34    C     0.25000   0.31153   0.16668   0.00000  Uiso   1.00
N35    N     0.45373   0.04663   0.24181   0.00000  Uiso   1.00
H36    H     0.46218   0.04165   0.28480   0.00000  Uiso   1.00
H37    H     0.46243   0.01539   0.21840   0.00000  Uiso   1.00
N38    N     0.04627   0.28671   0.09157   0.00000  Uiso   1.00
H39    H     0.03758   0.31795   0.11500   0.00000  Uiso   1.00
H40    H     0.03781   0.29173   0.04858   0.00000  Uiso   1.00
N41    N     0.45373   0.28672   0.09157   0.00000  Uiso   1.00
H42    H     0.46243   0.31795   0.11499   0.00000  Uiso   1.00
H43    H     0.46217   0.29171   0.04858   0.00000  Uiso   1.00
N44    N     0.04627   0.04664   0.24181   0.00000  Uiso   1.00
H45    H     0.03782   0.04165   0.28480   0.00000  Uiso   1.00
H46    H     0.03757   0.01539   0.21841   0.00000  Uiso   1.00
N47    N     0.38150   0.23613   0.10084   0.00000  Uiso   1.00
O48    O     0.35670   0.26920   0.12503   0.00000  Uiso   1.00
O49    O     0.38088   0.23117   0.04544   0.00000  Uiso   1.00
N50    N     0.11850   0.09721   0.23250   0.00000  Uiso   1.00
O51    O     0.14330   0.06413   0.20831   0.00000  Uiso   1.00
O52    O     0.11913   0.10217   0.28790   0.00000  Uiso   1.00
N53    N     0.38150   0.09720   0.23249   0.00000  Uiso   1.00
O54    O     0.38086   0.10217   0.28789   0.00000  Uiso   1.00
O55    O     0.35671   0.06412   0.20829   0.00000  Uiso   1.00
N56    N     0.11849   0.23612   0.10082   0.00000  Uiso   1.00
O57    O     0.14331   0.26919   0.12501   0.00000  Uiso   1.00
O58    O     0.11910   0.23116   0.04542   0.00000  Uiso   1.00
O59    O     0.75000   0.09613   0.21425   0.00000  Uiso   1.00
O60    O     0.75000   0.23720   0.11908   0.00000  Uiso   1.00
O61    O     0.75000   0.23720   0.21425   0.00000  Uiso   1.00
O62    O     0.75000   0.09613   0.11908   0.00000  Uiso   1.00
C63    C     0.75000   0.07335   0.16666   0.00000  Uiso   1.00
C64    C     0.75000   0.25998   0.16667   0.00000  Uiso   1.00
O65    O     0.68513   0.16667   0.21427   0.00000  Uiso   1.00
O66    O     0.81487   0.16667   0.11907   0.00000  Uiso   1.00
O67    O     0.81487   0.16667   0.21427   0.00000  Uiso   1.00
O68    O     0.68513   0.16667   0.11907   0.00000  Uiso   1.00
C69    C     0.66432   0.16667   0.16667   0.00000  Uiso   1.00
C70    C     0.83568   0.16667   0.16667   0.00000  Uiso   1.00
Cu71   Cu    0.75000   0.16667   0.22303   0.00000  Uiso   1.00
Cu72   Cu    0.75000   0.16667   0.11031   0.00000  Uiso   1.00
N73    N     0.75000   0.16667   0.02561   0.00000  Uiso   1.00
N74    N     0.75000   0.16667   0.30773   0.00000  Uiso   1.00
C75    C     0.90653   0.20245   0.13526   0.00000  Uiso   1.00
C76    C     0.59347   0.13089   0.19809   0.00000  Uiso   1.00
C77    C     0.90653   0.13089   0.19808   0.00000  Uiso   1.00
C78    C     0.59347   0.20244   0.13525   0.00000  Uiso   1.00
C79    C     0.88387   0.16667   0.16667   0.00000  Uiso   1.00
C80    C     0.61613   0.16667   0.16667   0.00000  Uiso   1.00
C81    C     0.95318   0.12858   0.19548   0.00000  Uiso   1.00
C82    C     0.54682   0.20476   0.13787   0.00000  Uiso   1.00
C83    C     0.95318   0.20476   0.13787   0.00000  Uiso   1.00
C84    C     0.54682   0.12858   0.19548   0.00000  Uiso   1.00
C85    C     0.97660   0.16667   0.16667   0.00000  Uiso   1.00
C86    C     0.52340   0.16667   0.16667   0.00000  Uiso   1.00
C87    C     0.97680   0.08864   0.21950   0.00000  Uiso   1.00
C88    C     0.52320   0.24470   0.11386   0.00000  Uiso   1.00
C89    C     0.97680   0.24470   0.11387   0.00000  Uiso   1.00
C90    C     0.52320   0.08864   0.21950   0.00000  Uiso   1.00
C91    C     0.75000   0.02180   0.16666   0.00000  Uiso   1.00
C92    C     0.75000   0.31153   0.16668   0.00000  Uiso   1.00
N93    N     0.95373   0.04663   0.24181   0.00000  Uiso   1.00
H94    H     0.96218   0.04165   0.28480   0.00000  Uiso   1.00
H95    H     0.96243   0.01539   0.21840   0.00000  Uiso   1.00
N96    N     0.54627   0.28671   0.09157   0.00000  Uiso   1.00
H97    H     0.53758   0.31795   0.11500   0.00000  Uiso   1.00
H98    H     0.53781   0.29173   0.04858   0.00000  Uiso   1.00
N99    N     0.95373   0.28672   0.09157   0.00000  Uiso   1.00
H100   H     0.96243   0.31795   0.11499   0.00000  Uiso   1.00
H101   H     0.96217   0.29171   0.04858   0.00000  Uiso   1.00
N102   N     0.54627   0.04664   0.24181   0.00000  Uiso   1.00
H103   H     0.53782   0.04165   0.28480   0.00000  Uiso   1.00
H104   H     0.53757   0.01539   0.21841   0.00000  Uiso   1.00
N105   N     0.88150   0.23613   0.10084   0.00000  Uiso   1.00
O106   O     0.85670   0.26920   0.12503   0.00000  Uiso   1.00
O107   O     0.88088   0.23117   0.04544   0.00000  Uiso   1.00
N108   N     0.61850   0.09721   0.23250   0.00000  Uiso   1.00
O109   O     0.64330   0.06413   0.20831   0.00000  Uiso   1.00
O110   O     0.61913   0.10217   0.28790   0.00000  Uiso   1.00
N111   N     0.88150   0.09720   0.23249   0.00000  Uiso   1.00
O112   O     0.88086   0.10217   0.28789   0.00000  Uiso   1.00
O113   O     0.85671   0.06412   0.20829   0.00000  Uiso   1.00
N114   N     0.61849   0.23612   0.10082   0.00000  Uiso   1.00
O115   O     0.64331   0.26919   0.12501   0.00000  Uiso   1.00
O116   O     0.61910   0.23116   0.04542   0.00000  Uiso   1.00
O117   O     0.25000   0.42946   0.21425   0.00000  Uiso   1.00
O118   O     0.25000   0.57054   0.11908   0.00000  Uiso   1.00
O119   O     0.25000   0.57054   0.21425   0.00000  Uiso   1.00
O120   O     0.25000   0.42946   0.11908   0.00000  Uiso   1.00
C121   C     0.25000   0.40668   0.16666   0.00000  Uiso   1.00
C122   C     0.25000   0.59332   0.16667   0.00000  Uiso   1.00
O123   O     0.18513   0.50000   0.21427   0.00000  Uiso   1.00
O124   O     0.31487   0.50000   0.11907   0.00000  Uiso   1.00
O125   O     0.31487   0.50000   0.21427   0.00000  Uiso   1.00
O126   O     0.18513   0.50000   0.11907   0.00000  Uiso   1.00
C127   C     0.16432   0.50000   0.16667   0.00000  Uiso   1.00
C128   C     0.33568   0.50000   0.16667   0.00000  Uiso   1.00
Cu129  Cu    0.25000   0.50000   0.22303   0.00000  Uiso   1.00
Cu130  Cu    0.25000   0.50000   0.11031   0.00000  Uiso   1.00
N131   N     0.25000   0.50000   0.02561   0.00000  Uiso   1.00
N132   N     0.25000   0.50000   0.30773   0.00000  Uiso   1.00
C133   C     0.40653   0.53578   0.13526   0.00000  Uiso   1.00
C134   C     0.09347   0.46423   0.19809   0.00000  Uiso   1.00
C135   C     0.40653   0.46422   0.19808   0.00000  Uiso   1.00
C136   C     0.09347   0.53577   0.13525   0.00000  Uiso   1.00
C137   C     0.38387   0.50000   0.16667   0.00000  Uiso   1.00
C138   C     0.11613   0.50000   0.16667   0.00000  Uiso   1.00
C139   C     0.45318   0.46191   0.19548   0.00000  Uiso   1.00
C140   C     0.04682   0.53809   0.13787   0.00000  Uiso   1.00
C141   C     0.45318   0.53809   0.13787   0.00000  Uiso   1.00
C142   C     0.04682   0.46191   0.19548   0.00000  Uiso   1.00
C143   C     0.47660   0.50000   0.16667   0.00000  Uiso   1.00
C144   C     0.02340   0.50000   0.16667   0.00000  Uiso   1.00
C145   C     0.47680   0.42198   0.21950   0.00000  Uiso   1.00
C146   C     0.02320   0.57803   0.11386   0.00000  Uiso   1.00
C147   C     0.47680   0.57803   0.11387   0.00000  Uiso   1.00
C148   C     0.02320   0.42198   0.21950   0.00000  Uiso   1.00
C149   C     0.25000   0.35514   0.16666   0.00000  Uiso   1.00
C150   C     0.25000   0.64486   0.16668   0.00000  Uiso   1.00
N151   N     0.45373   0.37997   0.24181   0.00000  Uiso   1.00
H152   H     0.46218   0.37498   0.28480   0.00000  Uiso   1.00
H153   H     0.46243   0.34872   0.21840   0.00000  Uiso   1.00
N154   N     0.04627   0.62005   0.09157   0.00000  Uiso   1.00
H155   H     0.03758   0.65128   0.11500   0.00000  Uiso   1.00
H156   H     0.03781   0.62506   0.04858   0.00000  Uiso   1.00
N157   N     0.45373   0.62005   0.09157   0.00000  Uiso   1.00
H158   H     0.46243   0.65129   0.11499   0.00000  Uiso   1.00
H159   H     0.46217   0.62505   0.04858   0.00000  Uiso   1.00
N160   N     0.04627   0.37997   0.24181   0.00000  Uiso   1.00
H161   H     0.03782   0.37498   0.28480   0.00000  Uiso   1.00
H162   H     0.03757   0.34872   0.21841   0.00000  Uiso   1.00
N163   N     0.38150   0.56947   0.10084   0.00000  Uiso   1.00
O164   O     0.35670   0.60253   0.12503   0.00000  Uiso   1.00
O165   O     0.38088   0.56451   0.04544   0.00000  Uiso   1.00
N166   N     0.11850   0.43054   0.23250   0.00000  Uiso   1.00
O167   O     0.14330   0.39746   0.20831   0.00000  Uiso   1.00
O168   O     0.11913   0.43551   0.28790   0.00000  Uiso   1.00
N169   N     0.38150   0.43053   0.23249   0.00000  Uiso   1.00
O170   O     0.38086   0.43550   0.28789   0.00000  Uiso   1.00
O171   O     0.35671   0.39746   0.20829   0.00000  Uiso   1.00
N172   N     0.11849   0.56945   0.10082   0.00000  Uiso   1.00
O173   O     0.14331   0.60252   0.12501   0.00000  Uiso   1.00
O174   O     0.11910   0.56449   0.04542   0.00000  Uiso   1.00
O175   O     0.75000   0.42946   0.21425   0.00000  Uiso   1.00
O176   O     0.75000   0.57054   0.11908   0.00000  Uiso   1.00
O177   O     0.75000   0.57054   0.21425   0.00000  Uiso   1.00
O178   O     0.75000   0.42946   0.11908   0.00000  Uiso   1.00
C179   C     0.75000   0.40668   0.16666   0.00000  Uiso   1.00
C180   C     0.75000   0.59332   0.16667   0.00000  Uiso   1.00
O181   O     0.68513   0.50000   0.21427   0.00000  Uiso   1.00
O182   O     0.81487   0.50000   0.11907   0.00000  Uiso   1.00
O183   O     0.81487   0.50000   0.21427   0.00000  Uiso   1.00
O184   O     0.68513   0.50000   0.11907   0.00000  Uiso   1.00
C185   C     0.66432   0.50000   0.16667   0.00000  Uiso   1.00
C186   C     0.83568   0.50000   0.16667   0.00000  Uiso   1.00
Cu187  Cu    0.75000   0.50000   0.22303   0.00000  Uiso   1.00
Cu188  Cu    0.75000   0.50000   0.11031   0.00000  Uiso   1.00
N189   N     0.75000   0.50000   0.02561   0.00000  Uiso   1.00
N190   N     0.75000   0.50000   0.30773   0.00000  Uiso   1.00
C191   C     0.90653   0.53578   0.13526   0.00000  Uiso   1.00
C192   C     0.59347   0.46423   0.19809   0.00000  Uiso   1.00
C193   C     0.90653   0.46422   0.19808   0.00000  Uiso   1.00
C194   C     0.59347   0.53577   0.13525   0.00000  Uiso   1.00
C195   C     0.88387   0.50000   0.16667   0.00000  Uiso   1.00
C196   C     0.61613   0.50000   0.16667   0.00000  Uiso   1.00
C197   C     0.95318   0.46191   0.19548   0.00000  Uiso   1.00
C198   C     0.54682   0.53809   0.13787   0.00000  Uiso   1.00
C199   C     0.95318   0.53809   0.13787   0.00000  Uiso   1.00
C200   C     0.54682   0.46191   0.19548   0.00000  Uiso   1.00
C201   C     0.97660   0.50000   0.16667   0.00000  Uiso   1.00
C202   C     0.52340   0.50000   0.16667   0.00000  Uiso   1.00
C203   C     0.97680   0.42198   0.21950   0.00000  Uiso   1.00
C204   C     0.52320   0.57803   0.11386   0.00000  Uiso   1.00
C205   C     0.97680   0.57803   0.11387   0.00000  Uiso   1.00
C206   C     0.52320   0.42198   0.21950   0.00000  Uiso   1.00
C207   C     0.75000   0.35514   0.16666   0.00000  Uiso   1.00
C208   C     0.75000   0.64486   0.16668   0.00000  Uiso   1.00
N209   N     0.95373   0.37997   0.24181   0.00000  Uiso   1.00
H210   H     0.96218   0.37498   0.28480   0.00000  Uiso   1.00
H211   H     0.96243   0.34872   0.21840   0.00000  Uiso   1.00
N212   N     0.54627   0.62005   0.09157   0.00000  Uiso   1.00
H213   H     0.53758   0.65128   0.11500   0.00000  Uiso   1.00
H214   H     0.53781   0.62506   0.04858   0.00000  Uiso   1.00
N215   N     0.95373   0.62005   0.09157   0.00000  Uiso   1.00
H216   H     0.96243   0.65129   0.11499   0.00000  Uiso   1.00
H217   H     0.96217   0.62505   0.04858   0.00000  Uiso   1.00
N218   N     0.54627   0.37997   0.24181   0.00000  Uiso   1.00
H219   H     0.53782   0.37498   0.28480   0.00000  Uiso   1.00
H220   H     0.53757   0.34872   0.21841   0.00000  Uiso   1.00
N221   N     0.88150   0.56947   0.10084   0.00000  Uiso   1.00
O222   O     0.85670   0.60253   0.12503   0.00000  Uiso   1.00
O223   O     0.88088   0.56451   0.04544   0.00000  Uiso   1.00
N224   N     0.61850   0.43054   0.23250   0.00000  Uiso   1.00
O225   O     0.64330   0.39746   0.20831   0.00000  Uiso   1.00
O226   O     0.61913   0.43551   0.28790   0.00000  Uiso   1.00
N227   N     0.88150   0.43053   0.23249   0.00000  Uiso   1.00
O228   O     0.88086   0.43550   0.28789   0.00000  Uiso   1.00
O229   O     0.85671   0.39746   0.20829   0.00000  Uiso   1.00
N230   N     0.61849   0.56945   0.10082   0.00000  Uiso   1.00
O231   O     0.64331   0.60252   0.12501   0.00000  Uiso   1.00
O232   O     0.61910   0.56449   0.04542   0.00000  Uiso   1.00
O233   O     0.25000   0.76280   0.21425   0.00000  Uiso   1.00
O234   O     0.25000   0.90387   0.11908   0.00000  Uiso   1.00
O235   O     0.25000   0.90387   0.21425   0.00000  Uiso   1.00
O236   O     0.25000   0.76280   0.11908   0.00000  Uiso   1.00
C237   C     0.25000   0.74002   0.16666   0.00000  Uiso   1.00
C238   C     0.25000   0.92665   0.16667   0.00000  Uiso   1.00
O239   O     0.18513   0.83333   0.21427   0.00000  Uiso   1.00
O240   O     0.31487   0.83333   0.11907   0.00000  Uiso   1.00
O241   O     0.31487   0.83333   0.21427   0.00000  Uiso   1.00
O242   O     0.18513   0.83333   0.11907   0.00000  Uiso   1.00
C243   C     0.16432   0.83333   0.16667   0.00000  Uiso   1.00
C244   C     0.33568   0.83333   0.16667   0.00000  Uiso   1.00
Cu245  Cu    0.25000   0.83333   0.22303   0.00000  Uiso   1.00
Cu246  Cu    0.25000   0.83333   0.11031   0.00000  Uiso   1.00
N247   N     0.25000   0.83333   0.02561   0.00000  Uiso   1.00
N248   N     0.25000   0.83333   0.30773   0.00000  Uiso   1.00
C249   C     0.40653   0.86911   0.13526   0.00000  Uiso   1.00
C250   C     0.09347   0.79756   0.19809   0.00000  Uiso   1.00
C251   C     0.40653   0.79756   0.19808   0.00000  Uiso   1.00
C252   C     0.09347   0.86911   0.13525   0.00000  Uiso   1.00
C253   C     0.38387   0.83333   0.16667   0.00000  Uiso   1.00
C254   C     0.11613   0.83333   0.16667   0.00000  Uiso   1.00
C255   C     0.45318   0.79525   0.19548   0.00000  Uiso   1.00
C256   C     0.04682   0.87142   0.13787   0.00000  Uiso   1.00
C257   C     0.45318   0.87143   0.13787   0.00000  Uiso   1.00
C258   C     0.04682   0.79525   0.19548   0.00000  Uiso   1.00
C259   C     0.47660   0.83334   0.16667   0.00000  Uiso   1.00
C260   C     0.02340   0.83333   0.16667   0.00000  Uiso   1.00
C261   C     0.47680   0.75531   0.21950   0.00000  Uiso   1.00
C262   C     0.02320   0.91136   0.11386   0.00000  Uiso   1.00
C263   C     0.47680   0.91137   0.11387   0.00000  Uiso   1.00
C264   C     0.02320   0.75531   0.21950   0.00000  Uiso   1.00
C265   C     0.25000   0.68847   0.16666   0.00000  Uiso   1.00
C266   C     0.25000   0.97820   0.16668   0.00000  Uiso   1.00
N267   N     0.45373   0.71330   0.24181   0.00000  Uiso   1.00
H268   H     0.46218   0.70831   0.28480   0.00000  Uiso   1.00
H269   H     0.46243   0.68206   0.21840   0.00000  Uiso   1.00
N270   N     0.04627   0.95338   0.09157   0.00000  Uiso   1.00
H271   H     0.03758   0.98461   0.11500   0.00000  Uiso   1.00
H272   H     0.03781   0.95839   0.04858   0.00000  Uiso   1.00
N273   N     0.45373   0.95338   0.09157   0.00000  Uiso   1.00
H274   H     0.46243   0.98462   0.11499   0.00000  Uiso   1.00
H275   H     0.46217   0.95838   0.04858   0.00000  Uiso   1.00
N276   N     0.04627   0.71330   0.24181   0.00000  Uiso   1.00
H277   H     0.03782   0.70832   0.28480   0.00000  Uiso   1.00
H278   H     0.03757   0.68206   0.21841   0.00000  Uiso   1.00
N279   N     0.38150   0.90280   0.10084   0.00000  Uiso   1.00
O280   O     0.35670   0.93587   0.12503   0.00000  Uiso   1.00
O281   O     0.38088   0.89784   0.04544   0.00000  Uiso   1.00
N282   N     0.11850   0.76387   0.23250   0.00000  Uiso   1.00
O283   O     0.14330   0.73080   0.20831   0.00000  Uiso   1.00
O284   O     0.11913   0.76884   0.28790   0.00000  Uiso   1.00
N285   N     0.38150   0.76387   0.23249   0.00000  Uiso   1.00
O286   O     0.38086   0.76883   0.28789   0.00000  Uiso   1.00
O287   O     0.35671   0.73079   0.20829   0.00000  Uiso   1.00
N288   N     0.11849   0.90279   0.10082   0.00000  Uiso   1.00
O289   O     0.14331   0.93586   0.12501   0.00000  Uiso   1.00
O290   O     0.11910   0.89783   0.04542   0.00000  Uiso   1.00
O291   O     0.75000   0.76280   0.21425   0.00000  Uiso   1.00
O292   O     0.75000   0.90387   0.11908   0.00000  Uiso   1.00
O293   O     0.75000   0.90387   0.21425   0.00000  Uiso   1.00
O294   O     0.75000   0.76280   0.11908   0.00000  Uiso   1.00
C295   C     0.75000   0.74002   0.16666   0.00000  Uiso   1.00
C296   C     0.75000   0.92665   0.16667   0.00000  Uiso   1.00
O297   O     0.68513   0.83333   0.21427   0.00000  Uiso   1.00
O298   O     0.81487   0.83333   0.11907   0.00000  Uiso   1.00
O299   O     0.81487   0.83333   0.21427   0.00000  Uiso   1.00
O300   O     0.68513   0.83333   0.11907   0.00000  Uiso   1.00
C301   C     0.66432   0.83333   0.16667   0.00000  Uiso   1.00
C302   C     0.83568   0.83333   0.16667   0.00000  Uiso   1.00
Cu303  Cu    0.75000   0.83333   0.22303   0.00000  Uiso   1.00
Cu304  Cu    0.75000   0.83333   0.11031   0.00000  Uiso   1.00
N305   N     0.75000   0.83333   0.02561   0.00000  Uiso   1.00
N306   N     0.75000   0.83333   0.30773   0.00000  Uiso   1.00
C307   C     0.90653   0.86911   0.13526   0.00000  Uiso   1.00
C308   C     0.59347   0.79756   0.19809   0.00000  Uiso   1.00
C309   C     0.90653   0.79756   0.19808   0.00000  Uiso   1.00
C310   C     0.59347   0.86911   0.13525   0.00000  Uiso   1.00
C311   C     0.88387   0.83333   0.16667   0.00000  Uiso   1.00
C312   C     0.61613   0.83333   0.16667   0.00000  Uiso   1.00
C313   C     0.95318   0.79525   0.19548   0.00000  Uiso   1.00
C314   C     0.54682   0.87142   0.13787   0.00000  Uiso   1.00
C315   C     0.95318   0.87143   0.13787   0.00000  Uiso   1.00
C316   C     0.54682   0.79525   0.19548   0.00000  Uiso   1.00
C317   C     0.97660   0.83334   0.16667   0.00000  Uiso   1.00
C318   C     0.52340   0.83333   0.16667   0.00000  Uiso   1.00
C319   C     0.97680   0.75531   0.21950   0.00000  Uiso   1.00
C320   C     0.52320   0.91136   0.11386   0.00000  Uiso   1.00
C321   C     0.97680   0.91137   0.11387   0.00000  Uiso   1.00
C322   C     0.52320   0.75531   0.21950   0.00000  Uiso   1.00
C323   C     0.75000   0.68847   0.16666   0.00000  Uiso   1.00
C324   C     0.75000   0.97820   0.16668   0.00000  Uiso   1.00
N325   N     0.95373   0.71330   0.24181   0.00000  Uiso   1.00
H326   H     0.96218   0.70831   0.28480   0.00000  Uiso   1.00
H327   H     0.96243   0.68206   0.21840   0.00000  Uiso   1.00
N328   N     0.54627   0.95338   0.09157   0.00000  Uiso   1.00
H329   H     0.53758   0.98461   0.11500   0.00000  Uiso   1.00
H330   H     0.53781   0.95839   0.04858   0.00000  Uiso   1.00
N331   N     0.95373   0.95338   0.09157   0.00000  Uiso   1.00
H332   H     0.96243   0.98462   0.11499   0.00000  Uiso   1.00
H333   H     0.96217   0.95838   0.04858   0.00000  Uiso   1.00
N334   N     0.54627   0.71330   0.24181   0.00000  Uiso   1.00
H335   H     0.53782   0.70832   0.28480   0.00000  Uiso   1.00
H336   H     0.53757   0.68206   0.21841   0.00000  Uiso   1.00
N337   N     0.88150   0.90280   0.10084   0.00000  Uiso   1.00
O338   O     0.85670   0.93587   0.12503   0.00000  Uiso   1.00
O339   O     0.88088   0.89784   0.04544   0.00000  Uiso   1.00
N340   N     0.61850   0.76387   0.23250   0.00000  Uiso   1.00
O341   O     0.64330   0.73080   0.20831   0.00000  Uiso   1.00
O342   O     0.61913   0.76884   0.28790   0.00000  Uiso   1.00
N343   N     0.88150   0.76387   0.23249   0.00000  Uiso   1.00
O344   O     0.88086   0.76883   0.28789   0.00000  Uiso   1.00
O345   O     0.85671   0.73079   0.20829   0.00000  Uiso   1.00
N346   N     0.61849   0.90279   0.10082   0.00000  Uiso   1.00
O347   O     0.64331   0.93586   0.12501   0.00000  Uiso   1.00
O348   O     0.61910   0.89783   0.04542   0.00000  Uiso   1.00
O349   O     0.25000   0.09613   0.54759   0.00000  Uiso   1.00
O350   O     0.25000   0.23720   0.45241   0.00000  Uiso   1.00
O351   O     0.25000   0.23720   0.54759   0.00000  Uiso   1.00
O352   O     0.25000   0.09613   0.45241   0.00000  Uiso   1.00
C353   C     0.25000   0.07335   0.49999   0.00000  Uiso   1.00
C354   C     0.25000   0.25998   0.50001   0.00000  Uiso   1.00
O355   O     0.18513   0.16667   0.54760   0.00000  Uiso   1.00
O356   O     0.31487   0.16667   0.45240   0.00000  Uiso   1.00
O357   O     0.31487   0.16667   0.54760   0.00000  Uiso   1.00
O358   O     0.18513   0.16667   0.45240   0.00000  Uiso   1.00
C359   C     0.16432   0.16667   0.50000   0.00000  Uiso   1.00
C360   C     0.33568   0.16667   0.50000   0.00000  Uiso   1.00
Cu361  Cu    0.25000   0.16667   0.55636   0.00000  Uiso   1.00
Cu362  Cu    0.25000   0.16667   0.44364   0.00000  Uiso   1.00
N363   N     0.25000   0.16667   0.35894   0.00000  Uiso   1.00
N364   N     0.25000   0.16667   0.64106   0.00000  Uiso   1.00
C365   C     0.40653   0.20245   0.46859   0.00000  Uiso   1.00
C366   C     0.09347   0.13089   0.53142   0.00000  Uiso   1.00
C367   C     0.40653   0.13089   0.53142   0.00000  Uiso   1.00
C368   C     0.09347   0.20244   0.46858   0.00000  Uiso   1.00
C369   C     0.38387   0.16667   0.50000   0.00000  Uiso   1.00
C370   C     0.11613   0.16667   0.50000   0.00000  Uiso   1.00
C371   C     0.45318   0.12858   0.52881   0.00000  Uiso   1.00
C372   C     0.04682   0.20476   0.47120   0.00000  Uiso   1.00
C373   C     0.45318   0.20476   0.47121   0.00000  Uiso   1.00
C374   C     0.04682   0.12858   0.52881   0.00000  Uiso   1.00
C375   C     0.47660   0.16667   0.50001   0.00000  Uiso   1.00
C376   C     0.02340   0.16667   0.50001   0.00000  Uiso   1.00
C377   C     0.47680   0.08864   0.55283   0.00000  Uiso   1.00
C378   C     0.02320   0.24470   0.44719   0.00000  Uiso   1.00
C379   C     0.47680   0.24470   0.44720   0.00000  Uiso   1.00
C380   C     0.02320   0.08864   0.55283   0.00000  Uiso   1.00
C381   C     0.25000   0.02180   0.49999   0.00000  Uiso   1.00
C382   C     0.25000   0.31153   0.50001   0.00000  Uiso   1.00
N383   N     0.45373   0.04663   0.57514   0.00000  Uiso   1.00
H384   H     0.46218   0.04165   0.61814   0.00000  Uiso   1.00
H385   H     0.46243   0.01539   0.55174   0.00000  Uiso   1.00
N386   N     0.04627   0.28671   0.42490   0.00000  Uiso   1.00
H387   H     0.03758   0.31795   0.44833   0.00000  Uiso   1.00
H388   H     0.03781   0.29173   0.38191   0.00000  Uiso   1.00
N389   N     0.45373   0.28672   0.42491   0.00000  Uiso   1.00
H390   H     0.46243   0.31795   0.44832   0.00000  Uiso   1.00
H391   H     0.46217   0.29171   0.38191   0.00000  Uiso   1.00
N392   N     0.04627   0.04664   0.57514   0.00000  Uiso   1.00
H393   H     0.03782   0.04165   0.61814   0.00000  Uiso   1.00
H394   H     0.03757   0.01539   0.55174   0.00000  Uiso   1.00
N395   N     0.38150   0.23613   0.43418   0.00000  Uiso   1.00
O396   O     0.35670   0.26920   0.45837   0.00000  Uiso   1.00
O397   O     0.38088   0.23117   0.37877   0.00000  Uiso   1.00
N398   N     0.11850   0.09721   0.56583   0.00000  Uiso   1.00
O399   O     0.14330   0.06413   0.54164   0.00000  Uiso   1.00
O400   O     0.11913   0.10217   0.62124   0.00000  Uiso   1.00
N401   N     0.38150   0.09720   0.56582   0.00000  Uiso   1.00
O402   O     0.38086   0.10217   0.62123   0.00000  Uiso   1.00
O403   O     0.35671   0.06412   0.54162   0.00000  Uiso   1.00
N404   N     0.11849   0.23612   0.43416   0.00000  Uiso   1.00
O405   O     0.14331   0.26919   0.45834   0.00000  Uiso   1.00
O406   O     0.11910   0.23116   0.37875   0.00000  Uiso   1.00
O407   O     0.75000   0.09613   0.54759   0.00000  Uiso   1.00
O408   O     0.75000   0.23720   0.45241   0.00000  Uiso   1.00
O409   O     0.75000   0.23720   0.54759   0.00000  Uiso   1.00
O410   O     0.75000   0.09613   0.45241   0.00000  Uiso   1.00
C411   C     0.75000   0.07335   0.49999   0.00000  Uiso   1.00
C412   C     0.75000   0.25998   0.50001   0.00000  Uiso   1.00
O413   O     0.68513   0.16667   0.54760   0.00000  Uiso   1.00
O414   O     0.81487   0.16667   0.45240   0.00000  Uiso   1.00
O415   O     0.81487   0.16667   0.54760   0.00000  Uiso   1.00
O416   O     0.68513   0.16667   0.45240   0.00000  Uiso   1.00
C417   C     0.66432   0.16667   0.50000   0.00000  Uiso   1.00
C418   C     0.83568   0.16667   0.50000   0.00000  Uiso   1.00
Cu419  Cu    0.75000   0.16667   0.55636   0.00000  Uiso   1.00
Cu420  Cu    0.75000   0.16667   0.44364   0.00000  Uiso   1.00
N421   N     0.75000   0.16667   0.35894   0.00000  Uiso   1.00
N422   N     0.75000   0.16667   0.64106   0.00000  Uiso   1.00
C423   C     0.90653   0.20245   0.46859   0.00000  Uiso   1.00
C424   C     0.59347   0.13089   0.53142   0.00000  Uiso   1.00
C425   C     0.90653   0.13089   0.53142   0.00000  Uiso   1.00
C426   C     0.59347   0.20244   0.46858   0.00000  Uiso   1.00
C427   C     0.88387   0.16667   0.50000   0.00000  Uiso   1.00
C428   C     0.61613   0.16667   0.50000   0.00000  Uiso   1.00
C429   C     0.95318   0.12858   0.52881   0.00000  Uiso   1.00
C430   C     0.54682   0.20476   0.47120   0.00000  Uiso   1.00
C431   C     0.95318   0.20476   0.47121   0.00000  Uiso   1.00
C432   C     0.54682   0.12858   0.52881   0.00000  Uiso   1.00
C433   C     0.97660   0.16667   0.50001   0.00000  Uiso   1.00
C434   C     0.52340   0.16667   0.50001   0.00000  Uiso   1.00
C435   C     0.97680   0.08864   0.55283   0.00000  Uiso   1.00
C436   C     0.52320   0.24470   0.44719   0.00000  Uiso   1.00
C437   C     0.97680   0.24470   0.44720   0.00000  Uiso   1.00
C438   C     0.52320   0.08864   0.55283   0.00000  Uiso   1.00
C439   C     0.75000   0.02180   0.49999   0.00000  Uiso   1.00
C440   C     0.75000   0.31153   0.50001   0.00000  Uiso   1.00
N441   N     0.95373   0.04663   0.57514   0.00000  Uiso   1.00
H442   H     0.96218   0.04165   0.61814   0.00000  Uiso   1.00
H443   H     0.96243   0.01539   0.55174   0.00000  Uiso   1.00
N444   N     0.54627   0.28671   0.42490   0.00000  Uiso   1.00
H445   H     0.53758   0.31795   0.44833   0.00000  Uiso   1.00
H446   H     0.53781   0.29173   0.38191   0.00000  Uiso   1.00
N447   N     0.95373   0.28672   0.42491   0.00000  Uiso   1.00
H448   H     0.96243   0.31795   0.44832   0.00000  Uiso   1.00
H449   H     0.96217   0.29171   0.38191   0.00000  Uiso   1.00
N450   N     0.54627   0.04664   0.57514   0.00000  Uiso   1.00
H451   H     0.53782   0.04165   0.61814   0.00000  Uiso   1.00
H452   H     0.53757   0.01539   0.55174   0.00000  Uiso   1.00
N453   N     0.88150   0.23613   0.43418   0.00000  Uiso   1.00
O454   O     0.85670   0.26920   0.45837   0.00000  Uiso   1.00
O455   O     0.88088   0.23117   0.37877   0.00000  Uiso   1.00
N456   N     0.61850   0.09721   0.56583   0.00000  Uiso   1.00
O457   O     0.64330   0.06413   0.54164   0.00000  Uiso   1.00
O458   O     0.61913   0.10217   0.62124   0.00000  Uiso   1.00
N459   N     0.88150   0.09720   0.56582   0.00000  Uiso   1.00
O460   O     0.88086   0.10217   0.62123   0.00000  Uiso   1.00
O461   O     0.85671   0.06412   0.54162   0.00000  Uiso   1.00
N462   N     0.61849   0.23612   0.43416   0.00000  Uiso   1.00
O463   O     0.64331   0.26919   0.45834   0.00000  Uiso   1.00
O464   O     0.61910   0.23116   0.37875   0.00000  Uiso   1.00
O465   O     0.25000   0.42946   0.54759   0.00000  Uiso   1.00
O466   O     0.25000   0.57054   0.45241   0.00000  Uiso   1.00
O467   O     0.25000   0.57054   0.54759   0.00000  Uiso   1.00
O468   O     0.25000   0.42946   0.45241   0.00000  Uiso   1.00
C469   C     0.25000   0.40668   0.49999   0.00000  Uiso   1.00
C470   C     0.25000   0.59332   0.50001   0.00000  Uiso   1.00
O471   O     0.18513   0.50000   0.54760   0.00000  Uiso   1.00
O472   O     0.31487   0.50000   0.45240   0.00000  Uiso   1.00
O473   O     0.31487   0.50000   0.54760   0.00000  Uiso   1.00
O474   O     0.18513   0.50000   0.45240   0.00000  Uiso   1.00
C475   C     0.16432   0.50000   0.50000   0.00000  Uiso   1.00
C476   C     0.33568   0.50000   0.50000   0.00000  Uiso   1.00
Cu477  Cu    0.25000   0.50000   0.55636   0.00000  Uiso   1.00
Cu478  Cu    0.25000   0.50000   0.44364   0.00000  Uiso   1.00
N479   N     0.25000   0.50000   0.35894   0.00000  Uiso   1.00
N480   N     0.25000   0.50000   0.64106   0.00000  Uiso   1.00
C481   C     0.40653   0.53578   0.46859   0.00000  Uiso   1.00
C482   C     0.09347   0.46423   0.53142   0.00000  Uiso   1.00
C483   C     0.40653   0.46422   0.53142   0.00000  Uiso   1.00
C484   C     0.09347   0.53577   0.46858   0.00000  Uiso   1.00
C485   C     0.38387   0.50000   0.50000   0.00000  Uiso   1.00
C486   C     0.11613   0.50000   0.50000   0.00000  Uiso   1.00
C487   C     0.45318   0.46191   0.52881   0.00000  Uiso   1.00
C488   C     0.04682   0.53809   0.47120   0.00000  Uiso   1.00
C489   C     0.45318   0.53809   0.47121   0.00000  Uiso   1.00
C490   C     0.04682   0.46191   0.52881   0.00000  Uiso   1.00
C491   C     0.47660   0.50000   0.50001   0.00000  Uiso   1.00
C492   C     0.02340   0.50000   0.50001   0.00000  Uiso   1.00
C493   C     0.47680   0.42198   0.55283   0.00000  Uiso   1.00
C494   C     0.02320   0.57803   0.44719   0.00000  Uiso   1.00
C495   C     0.47680   0.57803   0.44720   0.00000  Uiso   1.00
C496   C     0.02320   0.42198   0.55283   0.00000  Uiso   1.00
C497   C     0.25000   0.35514   0.49999   0.00000  Uiso   1.00
C498   C     0.25000   0.64486   0.50001   0.00000  Uiso   1.00
N499   N     0.45373   0.37997   0.57514   0.00000  Uiso   1.00
H500   H     0.46218   0.37498   0.61814   0.00000  Uiso   1.00
H501   H     0.46243   0.34872   0.55174   0.00000  Uiso   1.00
N502   N     0.04627   0.62005   0.42490   0.00000  Uiso   1.00
H503   H     0.03758   0.65128   0.44833   0.00000  Uiso   1.00
H504   H     0.03781   0.62506   0.38191   0.00000  Uiso   1.00
N505   N     0.45373   0.62005   0.42491   0.00000  Uiso   1.00
H506   H     0.46243   0.65129   0.44832   0.00000  Uiso   1.00
H507   H     0.46217   0.62505   0.38191   0.00000  Uiso   1.00
N508   N     0.04627   0.37997   0.57514   0.00000  Uiso   1.00
H509   H     0.03782   0.37498   0.61814   0.00000  Uiso   1.00
H510   H     0.03757   0.34872   0.55174   0.00000  Uiso   1.00
N511   N     0.38150   0.56947   0.43418   0.00000  Uiso   1.00
O512   O     0.35670   0.60253   0.45837   0.00000  Uiso   1.00
O513   O     0.38088   0.56451   0.37877   0.00000  Uiso   1.00
N514   N     0.11850   0.43054   0.56583   0.00000  Uiso   1.00
O515   O     0.14330   0.39746   0.54164   0.00000  Uiso   1.00
O516   O     0.11913   0.43551   0.62124   0.00000  Uiso   1.00
N517   N     0.38150   0.43053   0.56582   0.00000  Uiso   1.00
O518   O     0.38086   0.43550   0.62123   0.00000  Uiso   1.00
O519   O     0.35671   0.39746   0.54162   0.00000  Uiso   1.00
N520   N     0.11849   0.56945   0.43416   0.00000  Uiso   1.00
O521   O     0.14331   0.60252   0.45834   0.00000  Uiso   1.00
O522   O     0.11910   0.56449   0.37875   0.00000  Uiso   1.00
O523   O     0.75000   0.42946   0.54759   0.00000  Uiso   1.00
O524   O     0.75000   0.57054   0.45241   0.00000  Uiso   1.00
O525   O     0.75000   0.57054   0.54759   0.00000  Uiso   1.00
O526   O     0.75000   0.42946   0.45241   0.00000  Uiso   1.00
C527   C     0.75000   0.40668   0.49999   0.00000  Uiso   1.00
C528   C     0.75000   0.59332   0.50001   0.00000  Uiso   1.00
O529   O     0.68513   0.50000   0.54760   0.00000  Uiso   1.00
O530   O     0.81487   0.50000   0.45240   0.00000  Uiso   1.00
O531   O     0.81487   0.50000   0.54760   0.00000  Uiso   1.00
O532   O     0.68513   0.50000   0.45240   0.00000  Uiso   1.00
C533   C     0.66432   0.50000   0.50000   0.00000  Uiso   1.00
C534   C     0.83568   0.50000   0.50000   0.00000  Uiso   1.00
Cu535  Cu    0.75000   0.50000   0.55636   0.00000  Uiso   1.00
Cu536  Cu    0.75000   0.50000   0.44364   0.00000  Uiso   1.00
N537   N     0.75000   0.50000   0.35894   0.00000  Uiso   1.00
N538   N     0.75000   0.50000   0.64106   0.00000  Uiso   1.00
C539   C     0.90653   0.53578   0.46859   0.00000  Uiso   1.00
C540   C     0.59347   0.46423   0.53142   0.00000  Uiso   1.00
C541   C     0.90653   0.46422   0.53142   0.00000  Uiso   1.00
C542   C     0.59347   0.53577   0.46858   0.00000  Uiso   1.00
C543   C     0.88387   0.50000   0.50000   0.00000  Uiso   1.00
C544   C     0.61613   0.50000   0.50000   0.00000  Uiso   1.00
C545   C     0.95318   0.46191   0.52881   0.00000  Uiso   1.00
C546   C     0.54682   0.53809   0.47120   0.00000  Uiso   1.00
C547   C     0.95318   0.53809   0.47121   0.00000  Uiso   1.00
C548   C     0.54682   0.46191   0.52881   0.00000  Uiso   1.00
C549   C     0.97660   0.50000   0.50001   0.00000  Uiso   1.00
C550   C     0.52340   0.50000   0.50001   0.00000  Uiso   1.00
C551   C     0.97680   0.42198   0.55283   0.00000  Uiso   1.00
C552   C     0.52320   0.57803   0.44719   0.00000  Uiso   1.00
C553   C     0.97680   0.57803   0.44720   0.00000  Uiso   1.00
C554   C     0.52320   0.42198   0.55283   0.00000  Uiso   1.00
C555   C     0.75000   0.35514   0.49999   0.00000  Uiso   1.00
C556   C     0.75000   0.64486   0.50001   0.00000  Uiso   1.00
N557   N     0.95373   0.37997   0.57514   0.00000  Uiso   1.00
H558   H     0.96218   0.37498   0.61814   0.00000  Uiso   1.00
H559   H     0.96243   0.34872   0.55174   0.00000  Uiso   1.00
N560   N     0.54627   0.62005   0.42490   0.00000  Uiso   1.00
H561   H     0.53758   0.65128   0.44833   0.00000  Uiso   1.00
H562   H     0.53781   0.62506   0.38191   0.00000  Uiso   1.00
N563   N     0.95373   0.62005   0.42491   0.00000  Uiso   1.00
H564   H     0.96243   0.65129   0.44832   0.00000  Uiso   1.00
H565   H     0.96217   0.62505   0.38191   0.00000  Uiso   1.00
N566   N     0.54627   0.37997   0.57514   0.00000  Uiso   1.00
H567   H     0.53782   0.37498   0.61814   0.00000  Uiso   1.00
H568   H     0.53757   0.34872   0.55174   0.00000  Uiso   1.00
N569   N     0.88150   0.56947   0.43418   0.00000  Uiso   1.00
O570   O     0.85670   0.60253   0.45837   0.00000  Uiso   1.00
O571   O     0.88088   0.56451   0.37877   0.00000  Uiso   1.00
N572   N     0.61850   0.43054   0.56583   0.00000  Uiso   1.00
O573   O     0.64330   0.39746   0.54164   0.00000  Uiso   1.00
O574   O     0.61913   0.43551   0.62124   0.00000  Uiso   1.00
N575   N     0.88150   0.43053   0.56582   0.00000  Uiso   1.00
O576   O     0.88086   0.43550   0.62123   0.00000  Uiso   1.00
O577   O     0.85671   0.39746   0.54162   0.00000  Uiso   1.00
N578   N     0.61849   0.56945   0.43416   0.00000  Uiso   1.00
O579   O     0.64331   0.60252   0.45834   0.00000  Uiso   1.00
O580   O     0.61910   0.56449   0.37875   0.00000  Uiso   1.00
O581   O     0.25000   0.76280   0.54759   0.00000  Uiso   1.00
O582   O     0.25000   0.90387   0.45241   0.00000  Uiso   1.00
O583   O     0.25000   0.90387   0.54759   0.00000  Uiso   1.00
O584   O     0.25000   0.76280   0.45241   0.00000  Uiso   1.00
C585   C     0.25000   0.74002   0.49999   0.00000  Uiso   1.00
C586   C     0.25000   0.92665   0.50001   0.00000  Uiso   1.00
O587   O     0.18513   0.83333   0.54760   0.00000  Uiso   1.00
O588   O     0.31487   0.83333   0.45240   0.00000  Uiso   1.00
O589   O     0.31487   0.83333   0.54760   0.00000  Uiso   1.00
O590   O     0.18513   0.83333   0.45240   0.00000  Uiso   1.00
C591   C     0.16432   0.83333   0.50000   0.00000  Uiso   1.00
C592   C     0.33568   0.83333   0.50000   0.00000  Uiso   1.00
Cu593  Cu    0.25000   0.83333   0.55636   0.00000  Uiso   1.00
Cu594  Cu    0.25000   0.83333   0.44364   0.00000  Uiso   1.00
N595   N     0.25000   0.83333   0.35894   0.00000  Uiso   1.00
N596   N     0.25000   0.83333   0.64106   0.00000  Uiso   1.00
C597   C     0.40653   0.86911   0.46859   0.00000  Uiso   1.00
C598   C     0.09347   0.79756   0.53142   0.00000  Uiso   1.00
C599   C     0.40653   0.79756   0.53142   0.00000  Uiso   1.00
C600   C     0.09347   0.86911   0.46858   0.00000  Uiso   1.00
C601   C     0.38387   0.83333   0.50000   0.00000  Uiso   1.00
C602   C     0.11613   0.83333   0.50000   0.00000  Uiso   1.00
C603   C     0.45318   0.79525   0.52881   0.00000  Uiso   1.00
C604   C     0.04682   0.87142   0.47120   0.00000  Uiso   1.00
C605   C     0.45318   0.87143   0.47121   0.00000  Uiso   1.00
C606   C     0.04682   0.79525   0.52881   0.00000  Uiso   1.00
C607   C     0.47660   0.83334   0.50001   0.00000  Uiso   1.00
C608   C     0.02340   0.83333   0.50001   0.00000  Uiso   1.00
C609   C     0.47680   0.75531   0.55283   0.00000  Uiso   1.00
C610   C     0.02320   0.91136   0.44719   0.00000  Uiso   1.00
C611   C     0.47680   0.91137   0.44720   0.00000  Uiso   1.00
C612   C     0.02320   0.75531   0.55283   0.00000  Uiso   1.00
C613   C     0.25000   0.68847   0.49999   0.00000  Uiso   1.00
C614   C     0.25000   0.97820   0.50001   0.00000  Uiso   1.00
N615   N     0.45373   0.71330   0.57514   0.00000  Uiso   1.00
H616   H     0.46218   0.70831   0.61814   0.00000  Uiso   1.00
H617   H     0.46243   0.68206   0.55174   0.00000  Uiso   1.00
N618   N     0.04627   0.95338   0.42490   0.00000  Uiso   1.00
H619   H     0.03758   0.98461   0.44833   0.00000  Uiso   1.00
H620   H     0.03781   0.95839   0.38191   0.00000  Uiso   1.00
N621   N     0.45373   0.95338   0.42491   0.00000  Uiso   1.00
H622   H     0.46243   0.98462   0.44832   0.00000  Uiso   1.00
H623   H     0.46217   0.95838   0.38191   0.00000  Uiso   1.00
N624   N     0.04627   0.71330   0.57514   0.00000  Uiso   1.00
H625   H     0.03782   0.70832   0.61814   0.00000  Uiso   1.00
H626   H     0.03757   0.68206   0.55174   0.00000  Uiso   1.00
N627   N     0.38150   0.90280   0.43418   0.00000  Uiso   1.00
O628   O     0.35670   0.93587   0.45837   0.00000  Uiso   1.00
O629   O     0.38088   0.89784   0.37877   0.00000  Uiso   1.00
N630   N     0.11850   0.76387   0.56583   0.00000  Uiso   1.00
O631   O     0.14330   0.73080   0.54164   0.00000  Uiso   1.00
O632   O     0.11913   0.76884   0.62124   0.00000  Uiso   1.00
N633   N     0.38150   0.76387   0.56582   0.00000  Uiso   1.00
O634   O     0.38086   0.76883   0.62123   0.00000  Uiso   1.00
O635   O     0.35671   0.73079   0.54162   0.00000  Uiso   1.00
N636   N     0.11849   0.90279   0.43416   0.00000  Uiso   1.00
O637   O     0.14331   0.93586   0.45834   0.00000  Uiso   1.00
O638   O     0.11910   0.89783   0.37875   0.00000  Uiso   1.00
O639   O     0.75000   0.76280   0.54759   0.00000  Uiso   1.00
O640   O     0.75000   0.90387   0.45241   0.00000  Uiso   1.00
O641   O     0.75000   0.90387   0.54759   0.00000  Uiso   1.00
O642   O     0.75000   0.76280   0.45241   0.00000  Uiso   1.00
C643   C     0.75000   0.74002   0.49999   0.00000  Uiso   1.00
C644   C     0.75000   0.92665   0.50001   0.00000  Uiso   1.00
O645   O     0.68513   0.83333   0.54760   0.00000  Uiso   1.00
O646   O     0.81487   0.83333   0.45240   0.00000  Uiso   1.00
O647   O     0.81487   0.83333   0.54760   0.00000  Uiso   1.00
O648   O     0.68513   0.83333   0.45240   0.00000  Uiso   1.00
C649   C     0.66432   0.83333   0.50000   0.00000  Uiso   1.00
C650   C     0.83568   0.83333   0.50000   0.00000  Uiso   1.00
Cu651  Cu    0.75000   0.83333   0.55636   0.00000  Uiso   1.00
Cu652  Cu    0.75000   0.83333   0.44364   0.00000  Uiso   1.00
N653   N     0.75000   0.83333   0.35894   0.00000  Uiso   1.00
N654   N     0.75000   0.83333   0.64106   0.00000  Uiso   1.00
C655   C     0.90653   0.86911   0.46859   0.00000  Uiso   1.00
C656   C     0.59347   0.79756   0.53142   0.00000  Uiso   1.00
C657   C     0.90653   0.79756   0.53142   0.00000  Uiso   1.00
C658   C     0.59347   0.86911   0.46858   0.00000  Uiso   1.00
C659   C     0.88387   0.83333   0.50000   0.00000  Uiso   1.00
C660   C     0.61613   0.83333   0.50000   0.00000  Uiso   1.00
C661   C     0.95318   0.79525   0.52881   0.00000  Uiso   1.00
C662   C     0.54682   0.87142   0.47120   0.00000  Uiso   1.00
C663   C     0.95318   0.87143   0.47121   0.00000  Uiso   1.00
C664   C     0.54682   0.79525   0.52881   0.00000  Uiso   1.00
C665   C     0.97660   0.83334   0.50001   0.00000  Uiso   1.00
C666   C     0.52340   0.83333   0.50001   0.00000  Uiso   1.00
C667   C     0.97680   0.75531   0.55283   0.00000  Uiso   1.00
C668   C     0.52320   0.91136   0.44719   0.00000  Uiso   1.00
C669   C     0.97680   0.91137   0.44720   0.00000  Uiso   1.00
C670   C     0.52320   0.75531   0.55283   0.00000  Uiso   1.00
C671   C     0.75000   0.68847   0.49999   0.00000  Uiso   1.00
C672   C     0.75000   0.97820   0.50001   0.00000  Uiso   1.00
N673   N     0.95373   0.71330   0.57514   0.00000  Uiso   1.00
H674   H     0.96218   0.70831   0.61814   0.00000  Uiso   1.00
H675   H     0.96243   0.68206   0.55174   0.00000  Uiso   1.00
N676   N     0.54627   0.95338   0.42490   0.00000  Uiso   1.00
H677   H     0.53758   0.98461   0.44833   0.00000  Uiso   1.00
H678   H     0.53781   0.95839   0.38191   0.00000  Uiso   1.00
N679   N     0.95373   0.95338   0.42491   0.00000  Uiso   1.00
H680   H     0.96243   0.98462   0.44832   0.00000  Uiso   1.00
H681   H     0.96217   0.95838   0.38191   0.00000  Uiso   1.00
N682   N     0.54627   0.71330   0.57514   0.00000  Uiso   1.00
H683   H     0.53782   0.70832   0.61814   0.00000  Uiso   1.00
H684   H     0.53757   0.68206   0.55174   0.00000  Uiso   1.00
N685   N     0.88150   0.90280   0.43418   0.00000  Uiso   1.00
O686   O     0.85670   0.93587   0.45837   0.00000  Uiso   1.00
O687   O     0.88088   0.89784   0.37877   0.00000  Uiso   1.00
N688   N     0.61850   0.76387   0.56583   0.00000  Uiso   1.00
O689   O     0.64330   0.73080   0.54164   0.00000  Uiso   1.00
O690   O     0.61913   0.76884   0.62124   0.00000  Uiso   1.00
N691   N     0.88150   0.76387   0.56582   0.00000  Uiso   1.00
O692   O     0.88086   0.76883   0.62123   0.00000  Uiso   1.00
O693   O     0.85671   0.73079   0.54162   0.00000  Uiso   1.00
N694   N     0.61849   0.90279   0.43416   0.00000  Uiso   1.00
O695   O     0.64331   0.93586   0.45834   0.00000  Uiso   1.00
O696   O     0.61910   0.89783   0.37875   0.00000  Uiso   1.00
O697   O     0.25000   0.09613   0.88092   0.00000  Uiso   1.00
O698   O     0.25000   0.23720   0.78575   0.00000  Uiso   1.00
O699   O     0.25000   0.23720   0.88092   0.00000  Uiso   1.00
O700   O     0.25000   0.09613   0.78575   0.00000  Uiso   1.00
C701   C     0.25000   0.07335   0.83333   0.00000  Uiso   1.00
C702   C     0.25000   0.25998   0.83334   0.00000  Uiso   1.00
O703   O     0.18513   0.16667   0.88093   0.00000  Uiso   1.00
O704   O     0.31487   0.16667   0.78573   0.00000  Uiso   1.00
O705   O     0.31487   0.16667   0.88093   0.00000  Uiso   1.00
O706   O     0.18513   0.16667   0.78573   0.00000  Uiso   1.00
C707   C     0.16432   0.16667   0.83333   0.00000  Uiso   1.00
C708   C     0.33568   0.16667   0.83333   0.00000  Uiso   1.00
Cu709  Cu    0.25000   0.16667   0.88969   0.00000  Uiso   1.00
Cu710  Cu    0.25000   0.16667   0.77697   0.00000  Uiso   1.00
N711   N     0.25000   0.16667   0.69227   0.00000  Uiso   1.00
N712   N     0.25000   0.16667   0.97439   0.00000  Uiso   1.00
C713   C     0.40653   0.20245   0.80193   0.00000  Uiso   1.00
C714   C     0.09347   0.13089   0.86475   0.00000  Uiso   1.00
C715   C     0.40653   0.13089   0.86475   0.00000  Uiso   1.00
C716   C     0.09347   0.20244   0.80192   0.00000  Uiso   1.00
C717   C     0.38387   0.16667   0.83334   0.00000  Uiso   1.00
C718   C     0.11613   0.16667   0.83333   0.00000  Uiso   1.00
C719   C     0.45318   0.12858   0.86214   0.00000  Uiso   1.00
C720   C     0.04682   0.20476   0.80454   0.00000  Uiso   1.00
C721   C     0.45318   0.20476   0.80454   0.00000  Uiso   1.00
C722   C     0.04682   0.12858   0.86214   0.00000  Uiso   1.00
C723   C     0.47660   0.16667   0.83334   0.00000  Uiso   1.00
C724   C     0.02340   0.16667   0.83334   0.00000  Uiso   1.00
C725   C     0.47680   0.08864   0.88616   0.00000  Uiso   1.00
C726   C     0.02320   0.24470   0.78053   0.00000  Uiso   1.00
C727   C     0.47680   0.24470   0.78053   0.00000  Uiso   1.00
C728   C     0.02320   0.08864   0.88616   0.00000  Uiso   1.00
C729   C     0.25000   0.02180   0.83332   0.00000  Uiso   1.00
C730   C     0.25000   0.31153   0.83334   0.00000  Uiso   1.00
N731   N     0.45373   0.04663   0.90848   0.00000  Uiso   1.00
H732   H     0.46218   0.04165   0.95147   0.00000  Uiso   1.00
H733   H     0.46243   0.01539   0.88507   0.00000  Uiso   1.00
N734   N     0.04627   0.28671   0.75824   0.00000  Uiso   1.00
H735   H     0.03758   0.31795   0.78167   0.00000  Uiso   1.00
H736   H     0.03781   0.29173   0.71525   0.00000  Uiso   1.00
N737   N     0.45373   0.28672   0.75824   0.00000  Uiso   1.00
H738   H     0.46243   0.31795   0.78165   0.00000  Uiso   1.00
H739   H     0.46217   0.29171   0.71525   0.00000  Uiso   1.00
N740   N     0.04627   0.04664   0.90848   0.00000  Uiso   1.00
H741   H     0.03782   0.04165   0.95147   0.00000  Uiso   1.00
H742   H     0.03757   0.01539   0.88507   0.00000  Uiso   1.00
N743   N     0.38150   0.23613   0.76751   0.00000  Uiso   1.00
O744   O     0.35670   0.26920   0.79170   0.00000  Uiso   1.00
O745   O     0.38088   0.23117   0.71210   0.00000  Uiso   1.00
N746   N     0.11850   0.09721   0.89917   0.00000  Uiso   1.00
O747   O     0.14330   0.06413   0.87497   0.00000  Uiso   1.00
O748   O     0.11913   0.10217   0.95457   0.00000  Uiso   1.00
N749   N     0.38150   0.09720   0.89916   0.00000  Uiso   1.00
O750   O     0.38086   0.10217   0.95456   0.00000  Uiso   1.00
O751   O     0.35671   0.06412   0.87496   0.00000  Uiso   1.00
N752   N     0.11849   0.23612   0.76749   0.00000  Uiso   1.00
O753   O     0.14331   0.26919   0.79167   0.00000  Uiso   1.00
O754   O     0.11910   0.23116   0.71209   0.00000  Uiso   1.00
O755   O     0.75000   0.09613   0.88092   0.00000  Uiso   1.00
O756   O     0.75000   0.23720   0.78575   0.00000  Uiso   1.00
O757   O     0.75000   0.23720   0.88092   0.00000  Uiso   1.00
O758   O     0.75000   0.09613   0.78575   0.00000  Uiso   1.00
C759   C     0.75000   0.07335   0.83333   0.00000  Uiso   1.00
C760   C     0.75000   0.25998   0.83334   0.00000  Uiso   1.00
O761   O     0.68513   0.16667   0.88093   0.00000  Uiso   1.00
O762   O     0.81487   0.16667   0.78573   0.00000  Uiso   1.00
O763   O     0.81487   0.16667   0.88093   0.00000  Uiso   1.00
O764   O     0.68513   0.16667   0.78573   0.00000  Uiso   1.00
C765   C     0.66432   0.16667   0.83333   0.00000  Uiso   1.00
C766   C     0.83568   0.16667   0.83333   0.00000  Uiso   1.00
Cu767  Cu    0.75000   0.16667   0.88969   0.00000  Uiso   1.00
Cu768  Cu    0.75000   0.16667   0.77697   0.00000  Uiso   1.00
N769   N     0.75000   0.16667   0.69227   0.00000  Uiso   1.00
N770   N     0.75000   0.16667   0.97439   0.00000  Uiso   1.00
C771   C     0.90653   0.20245   0.80193   0.00000  Uiso   1.00
C772   C     0.59347   0.13089   0.86475   0.00000  Uiso   1.00
C773   C     0.90653   0.13089   0.86475   0.00000  Uiso   1.00
C774   C     0.59347   0.20244   0.80192   0.00000  Uiso   1.00
C775   C     0.88387   0.16667   0.83334   0.00000  Uiso   1.00
C776   C     0.61613   0.16667   0.83333   0.00000  Uiso   1.00
C777   C     0.95318   0.12858   0.86214   0.00000  Uiso   1.00
C778   C     0.54682   0.20476   0.80454   0.00000  Uiso   1.00
C779   C     0.95318   0.20476   0.80454   0.00000  Uiso   1.00
C780   C     0.54682   0.12858   0.86214   0.00000  Uiso   1.00
C781   C     0.97660   0.16667   0.83334   0.00000  Uiso   1.00
C782   C     0.52340   0.16667   0.83334   0.00000  Uiso   1.00
C783   C     0.97680   0.08864   0.88616   0.00000  Uiso   1.00
C784   C     0.52320   0.24470   0.78053   0.00000  Uiso   1.00
C785   C     0.97680   0.24470   0.78053   0.00000  Uiso   1.00
C786   C     0.52320   0.08864   0.88616   0.00000  Uiso   1.00
C787   C     0.75000   0.02180   0.83332   0.00000  Uiso   1.00
C788   C     0.75000   0.31153   0.83334   0.00000  Uiso   1.00
N789   N     0.95373   0.04663   0.90848   0.00000  Uiso   1.00
H790   H     0.96218   0.04165   0.95147   0.00000  Uiso   1.00
H791   H     0.96243   0.01539   0.88507   0.00000  Uiso   1.00
N792   N     0.54627   0.28671   0.75824   0.00000  Uiso   1.00
H793   H     0.53758   0.31795   0.78167   0.00000  Uiso   1.00
H794   H     0.53781   0.29173   0.71525   0.00000  Uiso   1.00
N795   N     0.95373   0.28672   0.75824   0.00000  Uiso   1.00
H796   H     0.96243   0.31795   0.78165   0.00000  Uiso   1.00
H797   H     0.96217   0.29171   0.71525   0.00000  Uiso   1.00
N798   N     0.54627   0.04664   0.90848   0.00000  Uiso   1.00
H799   H     0.53782   0.04165   0.95147   0.00000  Uiso   1.00
H800   H     0.53757   0.01539   0.88507   0.00000  Uiso   1.00
N801   N     0.88150   0.23613   0.76751   0.00000  Uiso   1.00
O802   O     0.85670   0.26920   0.79170   0.00000  Uiso   1.00
O803   O     0.88088   0.23117   0.71210   0.00000  Uiso   1.00
N804   N     0.61850   0.09721   0.89917   0.00000  Uiso   1.00
O805   O     0.64330   0.06413   0.87497   0.00000  Uiso   1.00
O806   O     0.61913   0.10217   0.95457   0.00000  Uiso   1.00
N807   N     0.88150   0.09720   0.89916   0.00000  Uiso   1.00
O808   O     0.88086   0.10217   0.95456   0.00000  Uiso   1.00
O809   O     0.85671   0.06412   0.87496   0.00000  Uiso   1.00
N810   N     0.61849   0.23612   0.76749   0.00000  Uiso   1.00
O811   O     0.64331   0.26919   0.79167   0.00000  Uiso   1.00
O812   O     0.61910   0.23116   0.71209   0.00000  Uiso   1.00
O813   O     0.25000   0.42946   0.88092   0.00000  Uiso   1.00
O814   O     0.25000   0.57054   0.78575   0.00000  Uiso   1.00
O815   O     0.25000   0.57054   0.88092   0.00000  Uiso   1.00
O816   O     0.25000   0.42946   0.78575   0.00000  Uiso   1.00
C817   C     0.25000   0.40668   0.83333   0.00000  Uiso   1.00
C818   C     0.25000   0.59332   0.83334   0.00000  Uiso   1.00
O819   O     0.18513   0.50000   0.88093   0.00000  Uiso   1.00
O820   O     0.31487   0.50000   0.78573   0.00000  Uiso   1.00
O821   O     0.31487   0.50000   0.88093   0.00000  Uiso   1.00
O822   O     0.18513   0.50000   0.78573   0.00000  Uiso   1.00
C823   C     0.16432   0.50000   0.83333   0.00000  Uiso   1.00
C824   C     0.33568   0.50000   0.83333   0.00000  Uiso   1.00
Cu825  Cu    0.25000   0.50000   0.88969   0.00000  Uiso   1.00
Cu826  Cu    0.25000   0.50000   0.77697   0.00000  Uiso   1.00
N827   N     0.25000   0.50000   0.69227   0.00000  Uiso   1.00
N828   N     0.25000   0.50000   0.97439   0.00000  Uiso   1.00
C829   C     0.40653   0.53578   0.80193   0.00000  Uiso   1.00
C830   C     0.09347   0.46423   0.86475   0.00000  Uiso   1.00
C831   C     0.40653   0.46422   0.86475   0.00000  Uiso   1.00
C832   C     0.09347   0.53577   0.80192   0.00000  Uiso   1.00
C833   C     0.38387   0.50000   0.83334   0.00000  Uiso   1.00
C834   C     0.11613   0.50000   0.83333   0.00000  Uiso   1.00
C835   C     0.45318   0.46191   0.86214   0.00000  Uiso   1.00
C836   C     0.04682   0.53809   0.80454   0.00000  Uiso   1.00
C837   C     0.45318   0.53809   0.80454   0.00000  Uiso   1.00
C838   C     0.04682   0.46191   0.86214   0.00000  Uiso   1.00
C839   C     0.47660   0.50000   0.83334   0.00000  Uiso   1.00
C840   C     0.02340   0.50000   0.83334   0.00000  Uiso   1.00
C841   C     0.47680   0.42198   0.88616   0.00000  Uiso   1.00
C842   C     0.02320   0.57803   0.78053   0.00000  Uiso   1.00
C843   C     0.47680   0.57803   0.78053   0.00000  Uiso   1.00
C844   C     0.02320   0.42198   0.88616   0.00000  Uiso   1.00
C845   C     0.25000   0.35514   0.83332   0.00000  Uiso   1.00
C846   C     0.25000   0.64486   0.83334   0.00000  Uiso   1.00
N847   N     0.45373   0.37997   0.90848   0.00000  Uiso   1.00
H848   H     0.46218   0.37498   0.95147   0.00000  Uiso   1.00
H849   H     0.46243   0.34872   0.88507   0.00000  Uiso   1.00
N850   N     0.04627   0.62005   0.75824   0.00000  Uiso   1.00
H851   H     0.03758   0.65128   0.78167   0.00000  Uiso   1.00
H852   H     0.03781   0.62506   0.71525   0.00000  Uiso   1.00
N853   N     0.45373   0.62005   0.75824   0.00000  Uiso   1.00
H854   H     0.46243   0.65129   0.78165   0.00000  Uiso   1.00
H855   H     0.46217   0.62505   0.71525   0.00000  Uiso   1.00
N856   N     0.04627   0.37997   0.90848   0.00000  Uiso   1.00
H857   H     0.03782   0.37498   0.95147   0.00000  Uiso   1.00
H858   H     0.03757   0.34872   0.88507   0.00000  Uiso   1.00
N859   N     0.38150   0.56947   0.76751   0.00000  Uiso   1.00
O860   O     0.35670   0.60253   0.79170   0.00000  Uiso   1.00
O861   O     0.38088   0.56451   0.71210   0.00000  Uiso   1.00
N862   N     0.11850   0.43054   0.89917   0.00000  Uiso   1.00
O863   O     0.14330   0.39746   0.87497   0.00000  Uiso   1.00
O864   O     0.11913   0.43551   0.95457   0.00000  Uiso   1.00
N865   N     0.38150   0.43053   0.89916   0.00000  Uiso   1.00
O866   O     0.38086   0.43550   0.95456   0.00000  Uiso   1.00
O867   O     0.35671   0.39746   0.87496   0.00000  Uiso   1.00
N868   N     0.11849   0.56945   0.76749   0.00000  Uiso   1.00
O869   O     0.14331   0.60252   0.79167   0.00000  Uiso   1.00
O870   O     0.11910   0.56449   0.71209   0.00000  Uiso   1.00
O871   O     0.75000   0.42946   0.88092   0.00000  Uiso   1.00
O872   O     0.75000   0.57054   0.78575   0.00000  Uiso   1.00
O873   O     0.75000   0.57054   0.88092   0.00000  Uiso   1.00
O874   O     0.75000   0.42946   0.78575   0.00000  Uiso   1.00
C875   C     0.75000   0.40668   0.83333   0.00000  Uiso   1.00
C876   C     0.75000   0.59332   0.83334   0.00000  Uiso   1.00
O877   O     0.68513   0.50000   0.88093   0.00000  Uiso   1.00
O878   O     0.81487   0.50000   0.78573   0.00000  Uiso   1.00
O879   O     0.81487   0.50000   0.88093   0.00000  Uiso   1.00
O880   O     0.68513   0.50000   0.78573   0.00000  Uiso   1.00
C881   C     0.66432   0.50000   0.83333   0.00000  Uiso   1.00
C882   C     0.83568   0.50000   0.83333   0.00000  Uiso   1.00
Cu883  Cu    0.75000   0.50000   0.88969   0.00000  Uiso   1.00
Cu884  Cu    0.75000   0.50000   0.77697   0.00000  Uiso   1.00
N885   N     0.75000   0.50000   0.69227   0.00000  Uiso   1.00
N886   N     0.75000   0.50000   0.97439   0.00000  Uiso   1.00
C887   C     0.90653   0.53578   0.80193   0.00000  Uiso   1.00
C888   C     0.59347   0.46423   0.86475   0.00000  Uiso   1.00
C889   C     0.90653   0.46422   0.86475   0.00000  Uiso   1.00
C890   C     0.59347   0.53577   0.80192   0.00000  Uiso   1.00
C891   C     0.88387   0.50000   0.83334   0.00000  Uiso   1.00
C892   C     0.61613   0.50000   0.83333   0.00000  Uiso   1.00
C893   C     0.95318   0.46191   0.86214   0.00000  Uiso   1.00
C894   C     0.54682   0.53809   0.80454   0.00000  Uiso   1.00
C895   C     0.95318   0.53809   0.80454   0.00000  Uiso   1.00
C896   C     0.54682   0.46191   0.86214   0.00000  Uiso   1.00
C897   C     0.97660   0.50000   0.83334   0.00000  Uiso   1.00
C898   C     0.52340   0.50000   0.83334   0.00000  Uiso   1.00
C899   C     0.97680   0.42198   0.88616   0.00000  Uiso   1.00
C900   C     0.52320   0.57803   0.78053   0.00000  Uiso   1.00
C901   C     0.97680   0.57803   0.78053   0.00000  Uiso   1.00
C902   C     0.52320   0.42198   0.88616   0.00000  Uiso   1.00
C903   C     0.75000   0.35514   0.83332   0.00000  Uiso   1.00
C904   C     0.75000   0.64486   0.83334   0.00000  Uiso   1.00
N905   N     0.95373   0.37997   0.90848   0.00000  Uiso   1.00
H906   H     0.96218   0.37498   0.95147   0.00000  Uiso   1.00
H907   H     0.96243   0.34872   0.88507   0.00000  Uiso   1.00
N908   N     0.54627   0.62005   0.75824   0.00000  Uiso   1.00
H909   H     0.53758   0.65128   0.78167   0.00000  Uiso   1.00
H910   H     0.53781   0.62506   0.71525   0.00000  Uiso   1.00
N911   N     0.95373   0.62005   0.75824   0.00000  Uiso   1.00
H912   H     0.96243   0.65129   0.78165   0.00000  Uiso   1.00
H913   H     0.96217   0.62505   0.71525   0.00000  Uiso   1.00
N914   N     0.54627   0.37997   0.90848   0.00000  Uiso   1.00
H915   H     0.53782   0.37498   0.95147   0.00000  Uiso   1.00
H916   H     0.53757   0.34872   0.88507   0.00000  Uiso   1.00
N917   N     0.88150   0.56947   0.76751   0.00000  Uiso   1.00
O918   O     0.85670   0.60253   0.79170   0.00000  Uiso   1.00
O919   O     0.88088   0.56451   0.71210   0.00000  Uiso   1.00
N920   N     0.61850   0.43054   0.89917   0.00000  Uiso   1.00
O921   O     0.64330   0.39746   0.87497   0.00000  Uiso   1.00
O922   O     0.61913   0.43551   0.95457   0.00000  Uiso   1.00
N923   N     0.88150   0.43053   0.89916   0.00000  Uiso   1.00
O924   O     0.88086   0.43550   0.95456   0.00000  Uiso   1.00
O925   O     0.85671   0.39746   0.87496   0.00000  Uiso   1.00
N926   N     0.61849   0.56945   0.76749   0.00000  Uiso   1.00
O927   O     0.64331   0.60252   0.79167   0.00000  Uiso   1.00
O928   O     0.61910   0.56449   0.71209   0.00000  Uiso   1.00
O929   O     0.25000   0.76280   0.88092   0.00000  Uiso   1.00
O930   O     0.25000   0.90387   0.78575   0.00000  Uiso   1.00
O931   O     0.25000   0.90387   0.88092   0.00000  Uiso   1.00
O932   O     0.25000   0.76280   0.78575   0.00000  Uiso   1.00
C933   C     0.25000   0.74002   0.83333   0.00000  Uiso   1.00
C934   C     0.25000   0.92665   0.83334   0.00000  Uiso   1.00
O935   O     0.18513   0.83333   0.88093   0.00000  Uiso   1.00
O936   O     0.31487   0.83333   0.78573   0.00000  Uiso   1.00
O937   O     0.31487   0.83333   0.88093   0.00000  Uiso   1.00
O938   O     0.18513   0.83333   0.78573   0.00000  Uiso   1.00
C939   C     0.16432   0.83333   0.83333   0.00000  Uiso   1.00
C940   C     0.33568   0.83333   0.83333   0.00000  Uiso   1.00
Cu941  Cu    0.25000   0.83333   0.88969   0.00000  Uiso   1.00
Cu942  Cu    0.25000   0.83333   0.77697   0.00000  Uiso   1.00
N943   N     0.25000   0.83333   0.69227   0.00000  Uiso   1.00
N944   N     0.25000   0.83333   0.97439   0.00000  Uiso   1.00
C945   C     0.40653   0.86911   0.80193   0.00000  Uiso   1.00
C946   C     0.09347   0.79756   0.86475   0.00000  Uiso   1.00
C947   C     0.40653   0.79756   0.86475   0.00000  Uiso   1.00
C948   C     0.09347   0.86911   0.80192   0.00000  Uiso   1.00
C949   C     0.38387   0.83333   0.83334   0.00000  Uiso   1.00
C950   C     0.11613   0.83333   0.83333   0.00000  Uiso   1.00
C951   C     0.45318   0.79525   0.86214   0.00000  Uiso   1.00
C952   C     0.04682   0.87142   0.80454   0.00000  Uiso   1.00
C953   C     0.45318   0.87143   0.80454   0.00000  Uiso   1.00
C954   C     0.04682   0.79525   0.86214   0.00000  Uiso   1.00
C955   C     0.47660   0.83334   0.83334   0.00000  Uiso   1.00
C956   C     0.02340   0.83333   0.83334   0.00000  Uiso   1.00
C957   C     0.47680   0.75531   0.88616   0.00000  Uiso   1.00
C958   C     0.02320   0.91136   0.78053   0.00000  Uiso   1.00
C959   C     0.47680   0.91137   0.78053   0.00000  Uiso   1.00
C960   C     0.02320   0.75531   0.88616   0.00000  Uiso   1.00
C961   C     0.25000   0.68847   0.83332   0.00000  Uiso   1.00
C962   C     0.25000   0.97820   0.83334   0.00000  Uiso   1.00
N963   N     0.45373   0.71330   0.90848   0.00000  Uiso   1.00
H964   H     0.46218   0.70831   0.95147   0.00000  Uiso   1.00
H965   H     0.46243   0.68206   0.88507   0.00000  Uiso   1.00
N966   N     0.04627   0.95338   0.75824   0.00000  Uiso   1.00
H967   H     0.03758   0.98461   0.78167   0.00000  Uiso   1.00
H968   H     0.03781   0.95839   0.71525   0.00000  Uiso   1.00
N969   N     0.45373   0.95338   0.75824   0.00000  Uiso   1.00
H970   H     0.46243   0.98462   0.78165   0.00000  Uiso   1.00
H971   H     0.46217   0.95838   0.71525   0.00000  Uiso   1.00
N972   N     0.04627   0.71330   0.90848   0.00000  Uiso   1.00
H973   H     0.03782   0.70832   0.95147   0.00000  Uiso   1.00
H974   H     0.03757   0.68206   0.88507   0.00000  Uiso   1.00
N975   N     0.38150   0.90280   0.76751   0.00000  Uiso   1.00
O976   O     0.35670   0.93587   0.79170   0.00000  Uiso   1.00
O977   O     0.38088   0.89784   0.71210   0.00000  Uiso   1.00
N978   N     0.11850   0.76387   0.89917   0.00000  Uiso   1.00
O979   O     0.14330   0.73080   0.87497   0.00000  Uiso   1.00
O980   O     0.11913   0.76884   0.95457   0.00000  Uiso   1.00
N981   N     0.38150   0.76387   0.89916   0.00000  Uiso   1.00
O982   O     0.38086   0.76883   0.95456   0.00000  Uiso   1.00
O983   O     0.35671   0.73079   0.87496   0.00000  Uiso   1.00
N984   N     0.11849   0.90279   0.76749   0.00000  Uiso   1.00
O985   O     0.14331   0.93586   0.79167   0.00000  Uiso   1.00
O986   O     0.11910   0.89783   0.71209   0.00000  Uiso   1.00
O987   O     0.75000   0.76280   0.88092   0.00000  Uiso   1.00
O988   O     0.75000   0.90387   0.78575   0.00000  Uiso   1.00
O989   O     0.75000   0.90387   0.88092   0.00000  Uiso   1.00
O990   O     0.75000   0.76280   0.78575   0.00000  Uiso   1.00
C991   C     0.75000   0.74002   0.83333   0.00000  Uiso   1.00
C992   C     0.75000   0.92665   0.83334   0.00000  Uiso   1.00
O993   O     0.68513   0.83333   0.88093   0.00000  Uiso   1.00
O994   O     0.81487   0.83333   0.78573   0.00000  Uiso   1.00
O995   O     0.81487   0.83333   0.88093   0.00000  Uiso   1.00
O996   O     0.68513   0.83333   0.78573   0.00000  Uiso   1.00
C997   C     0.66432   0.83333   0.83333   0.00000  Uiso   1.00
C998   C     0.83568   0.83333   0.83333   0.00000  Uiso   1.00
Cu999  Cu    0.75000   0.83333   0.88969   0.00000  Uiso   1.00
Cu1000 Cu    0.75000   0.83333   0.77697   0.00000  Uiso   1.00
N1001  N     0.75000   0.83333   0.69227   0.00000  Uiso   1.00
N1002  N     0.75000   0.83333   0.97439   0.00000  Uiso   1.00
C1003  C     0.90653   0.86911   0.80193   0.00000  Uiso   1.00
C1004  C     0.59347   0.79756   0.86475   0.00000  Uiso   1.00
C1005  C     0.90653   0.79756   0.86475   0.00000  Uiso   1.00
C1006  C     0.59347   0.86911   0.80192   0.00000  Uiso   1.00
C1007  C     0.88387   0.83333   0.83334   0.00000  Uiso   1.00
C1008  C     0.61613   0.83333   0.83333   0.00000  Uiso   1.00
C1009  C     0.95318   0.79525   0.86214   0.00000  Uiso   1.00
C1010  C     0.54682   0.87142   0.80454   0.00000  Uiso   1.00
C1011  C     0.95318   0.87143   0.80454   0.00000  Uiso   1.00
C1012  C     0.54682   0.79525   0.86214   0.00000  Uiso   1.00
C1013  C     0.97660   0.83334   0.83334   0.00000  Uiso   1.00
C1014  C     0.52340   0.83333   0.83334   0.00000  Uiso   1.00
C1015  C     0.97680   0.75531   0.88616   0.00000  Uiso   1.00
C1016  C     0.52320   0.91136   0.78053   0.00000  Uiso   1.00
C1017  C     0.97680   0.91137   0.78053   0.00000  Uiso   1.00
C1018  C     0.52320   0.75531   0.88616   0.00000  Uiso   1.00
C1019  C     0.75000   0.68847   0.83332   0.00000  Uiso   1.00
C1020  C     0.75000   0.97820   0.83334   0.00000  Uiso   1.00
N1021  N     0.95373   0.71330   0.90848   0.00000  Uiso   1.00
H1022  H     0.96218   0.70831   0.95147   0.00000  Uiso   1.00
H1023  H     0.96243   0.68206   0.88507   0.00000  Uiso   1.00
N1024  N     0.54627   0.95338   0.75824   0.00000  Uiso   1.00
H1025  H     0.53758   0.98461   0.78167   0.00000  Uiso   1.00
H1026  H     0.53781   0.95839   0.71525   0.00000  Uiso   1.00
N1027  N     0.95373   0.95338   0.75824   0.00000  Uiso   1.00
H1028  H     0.96243   0.98462   0.78165   0.00000  Uiso   1.00
H1029  H     0.96217   0.95838   0.71525   0.00000  Uiso   1.00
N1030  N     0.54627   0.71330   0.90848   0.00000  Uiso   1.00
H1031  H     0.53782   0.70832   0.95147   0.00000  Uiso   1.00
H1032  H     0.53757   0.68206   0.88507   0.00000  Uiso   1.00
N1033  N     0.88150   0.90280   0.76751   0.00000  Uiso   1.00
O1034  O     0.85670   0.93587   0.79170   0.00000  Uiso   1.00
O1035  O     0.88088   0.89784   0.71210   0.00000  Uiso   1.00
N1036  N     0.61850   0.76387   0.89917   0.00000  Uiso   1.00
O1037  O     0.64330   0.73080   0.87497   0.00000  Uiso   1.00
O1038  O     0.61913   0.76884   0.95457   0.00000  Uiso   1.00
N1039  N     0.88150   0.76387   0.89916   0.00000  Uiso   1.00
O1040  O     0.88086   0.76883   0.95456   0.00000  Uiso   1.00
O1041  O     0.85671   0.73079   0.87496   0.00000  Uiso   1.00
N1042  N     0.61849   0.90279   0.76749   0.00000  Uiso   1.00
O1043  O     0.64331   0.93586   0.79167   0.00000  Uiso   1.00
O1044  O     0.61910   0.89783   0.71209   0.00000  Uiso   1.00
loop_
_geom_bond_atom_site_label_1
_geom_bond_atom_site_label_2
_geom_bond_distance
_geom_bond_site_symmetry_2
_ccdc_geom_bond_type
O1     C5      1.273   .     A
O1     Cu13    1.931   .     S
O2     C6      1.273   .     A
O2     Cu14    1.931   .     S
O3     Cu13    1.931   .     S
O3     C6      1.273   .     A
O4     Cu14    1.931   .     S
O4     C5      1.273   .     A
C5     C33     1.403   .     S
C6     C34     1.403   .     S
O7     Cu13    1.974   .     S
O7     C11     1.278   .     A
O8     C12     1.278   .     A
O8     Cu14    1.974   .     S
O9     C12     1.278   .     A
O9     Cu13    1.974   .     S
O10    C11     1.278   .     A
O10    Cu14    1.974   .     S
C11    C22     1.458   .     S
C12    C21     1.458   .     S
Cu13   Cu14    2.633   .     S
Cu13   N16     1.978   .     S
Cu14   N15     1.978   .     S
N15    N712    1.196   1_554 S
N16    N363    1.196   .     S
C17    C25     1.414   .     A
C17    C21     1.399   .     A
C17    N47     1.436   .     S
C18    N50     1.436   .     S
C18    C22     1.399   .     A
C18    C26     1.414   .     A
C19    N53     1.436   .     S
C19    C23     1.414   .     A
C19    C21     1.399   .     A
C20    N56     1.436   .     S
C20    C22     1.399   .     A
C20    C24     1.414   .     A
C23    C27     1.425   .     A
C23    C29     1.417   .     A
C24    C28     1.425   .     A
C24    C30     1.417   .     A
C25    C31     1.417   .     A
C25    C27     1.425   .     A
C26    C32     1.417   .     A
C26    C28     1.425   .     A
C27    C86     1.416   .     S
C28    C85     1.416   1_455 S
C29    N35     1.438   .     S
C29    C90     1.404   .     S
C30    N38     1.438   .     S
C30    C89     1.404   1_455 S
C31    N41     1.438   .     S
C31    C88     1.404   .     S
C32    N44     1.438   .     S
C32    C87     1.404   1_455 S
C33    C266    1.187   1_545 S
C34    C149    1.187   .     S
N35    H36     1.045   .     S
N35    H37     1.045   .     S
N38    H40     1.045   .     S
N38    H39     1.045   .     S
N41    H42     1.045   .     S
N41    H43     1.045   .     S
N44    H45     1.045   .     S
N44    H46     1.045   .     S
N47    O49     1.301   .     A
N47    O48     1.301   .     A
N50    O52     1.301   .     A
N50    O51     1.301   .     A
N53    O55     1.301   .     A
N53    O54     1.301   .     A
N56    O58     1.301   .     A
N56    O57     1.301   .     A
O59    C63     1.273   .     A
O59    Cu71    1.931   .     S
O60    C64     1.273   .     A
O60    Cu72    1.931   .     S
O61    Cu71    1.931   .     S
O61    C64     1.273   .     A
O62    Cu72    1.931   .     S
O62    C63     1.273   .     A
C63    C91     1.403   .     S
C64    C92     1.403   .     S
O65    Cu71    1.974   .     S
O65    C69     1.278   .     A
O66    C70     1.278   .     A
O66    Cu72    1.974   .     S
O67    C70     1.278   .     A
O67    Cu71    1.974   .     S
O68    C69     1.278   .     A
O68    Cu72    1.974   .     S
C69    C80     1.458   .     S
C70    C79     1.458   .     S
Cu71   Cu72    2.633   .     S
Cu71   N74     1.978   .     S
Cu72   N73     1.978   .     S
N73    N770    1.196   1_554 S
N74    N421    1.196   .     S
C75    C83     1.414   .     A
C75    C79     1.399   .     A
C75    N105    1.436   .     S
C76    N108    1.436   .     S
C76    C80     1.399   .     A
C76    C84     1.414   .     A
C77    N111    1.436   .     S
C77    C81     1.414   .     A
C77    C79     1.399   .     A
C78    N114    1.436   .     S
C78    C80     1.399   .     A
C78    C82     1.414   .     A
C81    C85     1.425   .     A
C81    C87     1.417   .     A
C82    C86     1.425   .     A
C82    C88     1.417   .     A
C83    C89     1.417   .     A
C83    C85     1.425   .     A
C84    C90     1.417   .     A
C84    C86     1.425   .     A
C85    C28     1.416   1_655 S
C87    N93     1.438   .     S
C87    C32     1.404   1_655 S
C88    N96     1.438   .     S
C89    N99     1.438   .     S
C89    C30     1.404   1_655 S
C90    N102    1.438   .     S
C91    C324    1.187   1_545 S
C92    C207    1.187   .     S
N93    H94     1.045   .     S
N93    H95     1.045   .     S
N96    H98     1.045   .     S
N96    H97     1.045   .     S
N99    H100    1.045   .     S
N99    H101    1.045   .     S
N102   H103    1.045   .     S
N102   H104    1.045   .     S
N105   O107    1.301   .     A
N105   O106    1.301   .     A
N108   O110    1.301   .     A
N108   O109    1.301   .     A
N111   O113    1.301   .     A
N111   O112    1.301   .     A
N114   O116    1.301   .     A
N114   O115    1.301   .     A
O117   C121    1.273   .     A
O117   Cu129   1.931   .     S
O118   C122    1.273   .     A
O118   Cu130   1.931   .     S
O119   Cu129   1.931   .     S
O119   C122    1.273   .     A
O120   Cu130   1.931   .     S
O120   C121    1.273   .     A
C121   C149    1.403   .     S
C122   C150    1.403   .     S
O123   Cu129   1.974   .     S
O123   C127    1.278   .     A
O124   C128    1.278   .     A
O124   Cu130   1.974   .     S
O125   C128    1.278   .     A
O125   Cu129   1.974   .     S
O126   C127    1.278   .     A
O126   Cu130   1.974   .     S
C127   C138    1.458   .     S
C128   C137    1.458   .     S
Cu129  Cu130   2.633   .     S
Cu129  N132    1.978   .     S
Cu130  N131    1.978   .     S
N131   N828    1.196   1_554 S
N132   N479    1.196   .     S
C133   C141    1.414   .     A
C133   C137    1.399   .     A
C133   N163    1.436   .     S
C134   N166    1.436   .     S
C134   C138    1.399   .     A
C134   C142    1.414   .     A
C135   N169    1.436   .     S
C135   C139    1.414   .     A
C135   C137    1.399   .     A
C136   N172    1.436   .     S
C136   C138    1.399   .     A
C136   C140    1.414   .     A
C139   C143    1.425   .     A
C139   C145    1.417   .     A
C140   C144    1.425   .     A
C140   C146    1.417   .     A
C141   C147    1.417   .     A
C141   C143    1.425   .     A
C142   C148    1.417   .     A
C142   C144    1.425   .     A
C143   C202    1.416   .     S
C144   C201    1.416   1_455 S
C145   N151    1.438   .     S
C145   C206    1.404   .     S
C146   N154    1.438   .     S
C146   C205    1.404   1_455 S
C147   N157    1.438   .     S
C147   C204    1.404   .     S
C148   N160    1.438   .     S
C148   C203    1.404   1_455 S
C150   C265    1.187   .     S
N151   H152    1.045   .     S
N151   H153    1.045   .     S
N154   H156    1.045   .     S
N154   H155    1.045   .     S
N157   H158    1.045   .     S
N157   H159    1.045   .     S
N160   H161    1.045   .     S
N160   H162    1.045   .     S
N163   O165    1.301   .     A
N163   O164    1.301   .     A
N166   O168    1.301   .     A
N166   O167    1.301   .     A
N169   O171    1.301   .     A
N169   O170    1.301   .     A
N172   O174    1.301   .     A
N172   O173    1.301   .     A
O175   C179    1.273   .     A
O175   Cu187   1.931   .     S
O176   C180    1.273   .     A
O176   Cu188   1.931   .     S
O177   Cu187   1.931   .     S
O177   C180    1.273   .     A
O178   Cu188   1.931   .     S
O178   C179    1.273   .     A
C179   C207    1.403   .     S
C180   C208    1.403   .     S
O181   Cu187   1.974   .     S
O181   C185    1.278   .     A
O182   C186    1.278   .     A
O182   Cu188   1.974   .     S
O183   C186    1.278   .     A
O183   Cu187   1.974   .     S
O184   C185    1.278   .     A
O184   Cu188   1.974   .     S
C185   C196    1.458   .     S
C186   C195    1.458   .     S
Cu187  Cu188   2.633   .     S
Cu187  N190    1.978   .     S
Cu188  N189    1.978   .     S
N189   N886    1.196   1_554 S
N190   N537    1.196   .     S
C191   C199    1.414   .     A
C191   C195    1.399   .     A
C191   N221    1.436   .     S
C192   N224    1.436   .     S
C192   C196    1.399   .     A
C192   C200    1.414   .     A
C193   N227    1.436   .     S
C193   C197    1.414   .     A
C193   C195    1.399   .     A
C194   N230    1.436   .     S
C194   C196    1.399   .     A
C194   C198    1.414   .     A
C197   C201    1.425   .     A
C197   C203    1.417   .     A
C198   C202    1.425   .     A
C198   C204    1.417   .     A
C199   C205    1.417   .     A
C199   C201    1.425   .     A
C200   C206    1.417   .     A
C200   C202    1.425   .     A
C201   C144    1.416   1_655 S
C203   N209    1.438   .     S
C203   C148    1.404   1_655 S
C204   N212    1.438   .     S
C205   N215    1.438   .     S
C205   C146    1.404   1_655 S
C206   N218    1.438   .     S
C208   C323    1.187   .     S
N209   H210    1.045   .     S
N209   H211    1.045   .     S
N212   H214    1.045   .     S
N212   H213    1.045   .     S
N215   H216    1.045   .     S
N215   H217    1.045   .     S
N218   H219    1.045   .     S
N218   H220    1.045   .     S
N221   O223    1.301   .     A
N221   O222    1.301   .     A
N224   O226    1.301   .     A
N224   O225    1.301   .     A
N227   O229    1.301   .     A
N227   O228    1.301   .     A
N230   O232    1.301   .     A
N230   O231    1.301   .     A
O233   C237    1.273   .     A
O233   Cu245   1.931   .     S
O234   C238    1.273   .     A
O234   Cu246   1.931   .     S
O235   Cu245   1.931   .     S
O235   C238    1.273   .     A
O236   Cu246   1.931   .     S
O236   C237    1.273   .     A
C237   C265    1.403   .     S
C238   C266    1.403   .     S
O239   Cu245   1.974   .     S
O239   C243    1.278   .     A
O240   C244    1.278   .     A
O240   Cu246   1.974   .     S
O241   C244    1.278   .     A
O241   Cu245   1.974   .     S
O242   C243    1.278   .     A
O242   Cu246   1.974   .     S
C243   C254    1.458   .     S
C244   C253    1.458   .     S
Cu245  Cu246   2.633   .     S
Cu245  N248    1.978   .     S
Cu246  N247    1.978   .     S
N247   N944    1.196   1_554 S
N248   N595    1.196   .     S
C249   C257    1.414   .     A
C249   C253    1.399   .     A
C249   N279    1.436   .     S
C250   N282    1.436   .     S
C250   C254    1.399   .     A
C250   C258    1.414   .     A
C251   N285    1.436   .     S
C251   C255    1.414   .     A
C251   C253    1.399   .     A
C252   N288    1.436   .     S
C252   C254    1.399   .     A
C252   C256    1.414   .     A
C255   C259    1.425   .     A
C255   C261    1.417   .     A
C256   C260    1.425   .     A
C256   C262    1.417   .     A
C257   C263    1.417   .     A
C257   C259    1.425   .     A
C258   C264    1.417   .     A
C258   C260    1.425   .     A
C259   C318    1.416   .     S
C260   C317    1.416   1_455 S
C261   N267    1.438   .     S
C261   C322    1.404   .     S
C262   N270    1.438   .     S
C262   C321    1.404   1_455 S
C263   N273    1.438   .     S
C263   C320    1.404   .     S
C264   N276    1.438   .     S
C264   C319    1.404   1_455 S
C266   C33     1.187   1_565 S
N267   H268    1.045   .     S
N267   H269    1.045   .     S
N270   H272    1.045   .     S
N270   H271    1.045   .     S
N273   H274    1.045   .     S
N273   H275    1.045   .     S
N276   H277    1.045   .     S
N276   H278    1.045   .     S
N279   O281    1.301   .     A
N279   O280    1.301   .     A
N282   O284    1.301   .     A
N282   O283    1.301   .     A
N285   O287    1.301   .     A
N285   O286    1.301   .     A
N288   O290    1.301   .     A
N288   O289    1.301   .     A
O291   C295    1.273   .     A
O291   Cu303   1.931   .     S
O292   C296    1.273   .     A
O292   Cu304   1.931   .     S
O293   Cu303   1.931   .     S
O293   C296    1.273   .     A
O294   Cu304   1.931   .     S
O294   C295    1.273   .     A
C295   C323    1.403   .     S
C296   C324    1.403   .     S
O297   Cu303   1.974   .     S
O297   C301    1.278   .     A
O298   C302    1.278   .     A
O298   Cu304   1.974   .     S
O299   C302    1.278   .     A
O299   Cu303   1.974   .     S
O300   C301    1.278   .     A
O300   Cu304   1.974   .     S
C301   C312    1.458   .     S
C302   C311    1.458   .     S
Cu303  Cu304   2.633   .     S
Cu303  N306    1.978   .     S
Cu304  N305    1.978   .     S
N305   N1002   1.196   1_554 S
N306   N653    1.196   .     S
C307   C315    1.414   .     A
C307   C311    1.399   .     A
C307   N337    1.436   .     S
C308   N340    1.436   .     S
C308   C312    1.399   .     A
C308   C316    1.414   .     A
C309   N343    1.436   .     S
C309   C313    1.414   .     A
C309   C311    1.399   .     A
C310   N346    1.436   .     S
C310   C312    1.399   .     A
C310   C314    1.414   .     A
C313   C317    1.425   .     A
C313   C319    1.417   .     A
C314   C318    1.425   .     A
C314   C320    1.417   .     A
C315   C321    1.417   .     A
C315   C317    1.425   .     A
C316   C322    1.417   .     A
C316   C318    1.425   .     A
C317   C260    1.416   1_655 S
C319   N325    1.438   .     S
C319   C264    1.404   1_655 S
C320   N328    1.438   .     S
C321   N331    1.438   .     S
C321   C262    1.404   1_655 S
C322   N334    1.438   .     S
C324   C91     1.187   1_565 S
N325   H326    1.045   .     S
N325   H327    1.045   .     S
N328   H330    1.045   .     S
N328   H329    1.045   .     S
N331   H332    1.045   .     S
N331   H333    1.045   .     S
N334   H335    1.045   .     S
N334   H336    1.045   .     S
N337   O339    1.301   .     A
N337   O338    1.301   .     A
N340   O342    1.301   .     A
N340   O341    1.301   .     A
N343   O345    1.301   .     A
N343   O344    1.301   .     A
N346   O348    1.301   .     A
N346   O347    1.301   .     A
O349   C353    1.273   .     A
O349   Cu361   1.931   .     S
O350   C354    1.273   .     A
O350   Cu362   1.931   .     S
O351   Cu361   1.931   .     S
O351   C354    1.273   .     A
O352   Cu362   1.931   .     S
O352   C353    1.273   .     A
C353   C381    1.403   .     S
C354   C382    1.403   .     S
O355   Cu361   1.974   .     S
O355   C359    1.278   .     A
O356   C360    1.278   .     A
O356   Cu362   1.974   .     S
O357   C360    1.278   .     A
O357   Cu361   1.974   .     S
O358   C359    1.278   .     A
O358   Cu362   1.974   .     S
C359   C370    1.458   .     S
C360   C369    1.458   .     S
Cu361  Cu362   2.633   .     S
Cu361  N364    1.978   .     S
Cu362  N363    1.978   .     S
N364   N711    1.196   .     S
C365   C373    1.414   .     A
C365   C369    1.399   .     A
C365   N395    1.436   .     S
C366   N398    1.436   .     S
C366   C370    1.399   .     A
C366   C374    1.414   .     A
C367   N401    1.436   .     S
C367   C371    1.414   .     A
C367   C369    1.399   .     A
C368   N404    1.436   .     S
C368   C370    1.399   .     A
C368   C372    1.414   .     A
C371   C375    1.425   .     A
C371   C377    1.417   .     A
C372   C376    1.425   .     A
C372   C378    1.417   .     A
C373   C379    1.417   .     A
C373   C375    1.425   .     A
C374   C380    1.417   .     A
C374   C376    1.425   .     A
C375   C434    1.416   .     S
C376   C433    1.416   1_455 S
C377   N383    1.438   .     S
C377   C438    1.404   .     S
C378   N386    1.438   .     S
C378   C437    1.404   1_455 S
C379   N389    1.438   .     S
C379   C436    1.404   .     S
C380   N392    1.438   .     S
C380   C435    1.404   1_455 S
C381   C614    1.187   1_545 S
C382   C497    1.187   .     S
N383   H384    1.045   .     S
N383   H385    1.045   .     S
N386   H388    1.045   .     S
N386   H387    1.045   .     S
N389   H390    1.045   .     S
N389   H391    1.045   .     S
N392   H393    1.045   .     S
N392   H394    1.045   .     S
N395   O397    1.301   .     A
N395   O396    1.301   .     A
N398   O400    1.301   .     A
N398   O399    1.301   .     A
N401   O403    1.301   .     A
N401   O402    1.301   .     A
N404   O406    1.301   .     A
N404   O405    1.301   .     A
O407   C411    1.273   .     A
O407   Cu419   1.931   .     S
O408   C412    1.273   .     A
O408   Cu420   1.931   .     S
O409   Cu419   1.931   .     S
O409   C412    1.273   .     A
O410   Cu420   1.931   .     S
O410   C411    1.273   .     A
C411   C439    1.403   .     S
C412   C440    1.403   .     S
O413   Cu419   1.974   .     S
O413   C417    1.278   .     A
O414   C418    1.278   .     A
O414   Cu420   1.974   .     S
O415   C418    1.278   .     A
O415   Cu419   1.974   .     S
O416   C417    1.278   .     A
O416   Cu420   1.974   .     S
C417   C428    1.458   .     S
C418   C427    1.458   .     S
Cu419  Cu420   2.633   .     S
Cu419  N422    1.978   .     S
Cu420  N421    1.978   .     S
N422   N769    1.196   .     S
C423   C431    1.414   .     A
C423   C427    1.399   .     A
C423   N453    1.436   .     S
C424   N456    1.436   .     S
C424   C428    1.399   .     A
C424   C432    1.414   .     A
C425   N459    1.436   .     S
C425   C429    1.414   .     A
C425   C427    1.399   .     A
C426   N462    1.436   .     S
C426   C428    1.399   .     A
C426   C430    1.414   .     A
C429   C433    1.425   .     A
C429   C435    1.417   .     A
C430   C434    1.425   .     A
C430   C436    1.417   .     A
C431   C437    1.417   .     A
C431   C433    1.425   .     A
C432   C438    1.417   .     A
C432   C434    1.425   .     A
C433   C376    1.416   1_655 S
C435   N441    1.438   .     S
C435   C380    1.404   1_655 S
C436   N444    1.438   .     S
C437   N447    1.438   .     S
C437   C378    1.404   1_655 S
C438   N450    1.438   .     S
C439   C672    1.187   1_545 S
C440   C555    1.187   .     S
N441   H442    1.045   .     S
N441   H443    1.045   .     S
N444   H446    1.045   .     S
N444   H445    1.045   .     S
N447   H448    1.045   .     S
N447   H449    1.045   .     S
N450   H451    1.045   .     S
N450   H452    1.045   .     S
N453   O455    1.301   .     A
N453   O454    1.301   .     A
N456   O458    1.301   .     A
N456   O457    1.301   .     A
N459   O461    1.301   .     A
N459   O460    1.301   .     A
N462   O464    1.301   .     A
N462   O463    1.301   .     A
O465   C469    1.273   .     A
O465   Cu477   1.931   .     S
O466   C470    1.273   .     A
O466   Cu478   1.931   .     S
O467   Cu477   1.931   .     S
O467   C470    1.273   .     A
O468   Cu478   1.931   .     S
O468   C469    1.273   .     A
C469   C497    1.403   .     S
C470   C498    1.403   .     S
O471   Cu477   1.974   .     S
O471   C475    1.278   .     A
O472   C476    1.278   .     A
O472   Cu478   1.974   .     S
O473   C476    1.278   .     A
O473   Cu477   1.974   .     S
O474   C475    1.278   .     A
O474   Cu478   1.974   .     S
C475   C486    1.458   .     S
C476   C485    1.458   .     S
Cu477  Cu478   2.633   .     S
Cu477  N480    1.978   .     S
Cu478  N479    1.978   .     S
N480   N827    1.196   .     S
C481   C489    1.414   .     A
C481   C485    1.399   .     A
C481   N511    1.436   .     S
C482   N514    1.436   .     S
C482   C486    1.399   .     A
C482   C490    1.414   .     A
C483   N517    1.436   .     S
C483   C487    1.414   .     A
C483   C485    1.399   .     A
C484   N520    1.436   .     S
C484   C486    1.399   .     A
C484   C488    1.414   .     A
C487   C491    1.425   .     A
C487   C493    1.417   .     A
C488   C492    1.425   .     A
C488   C494    1.417   .     A
C489   C495    1.417   .     A
C489   C491    1.425   .     A
C490   C496    1.417   .     A
C490   C492    1.425   .     A
C491   C550    1.416   .     S
C492   C549    1.416   1_455 S
C493   N499    1.438   .     S
C493   C554    1.404   .     S
C494   N502    1.438   .     S
C494   C553    1.404   1_455 S
C495   N505    1.438   .     S
C495   C552    1.404   .     S
C496   N508    1.438   .     S
C496   C551    1.404   1_455 S
C498   C613    1.187   .     S
N499   H500    1.045   .     S
N499   H501    1.045   .     S
N502   H504    1.045   .     S
N502   H503    1.045   .     S
N505   H506    1.045   .     S
N505   H507    1.045   .     S
N508   H509    1.045   .     S
N508   H510    1.045   .     S
N511   O513    1.301   .     A
N511   O512    1.301   .     A
N514   O516    1.301   .     A
N514   O515    1.301   .     A
N517   O519    1.301   .     A
N517   O518    1.301   .     A
N520   O522    1.301   .     A
N520   O521    1.301   .     A
O523   C527    1.273   .     A
O523   Cu535   1.931   .     S
O524   C528    1.273   .     A
O524   Cu536   1.931   .     S
O525   Cu535   1.931   .     S
O525   C528    1.273   .     A
O526   Cu536   1.931   .     S
O526   C527    1.273   .     A
C527   C555    1.403   .     S
C528   C556    1.403   .     S
O529   Cu535   1.974   .     S
O529   C533    1.278   .     A
O530   C534    1.278   .     A
O530   Cu536   1.974   .     S
O531   C534    1.278   .     A
O531   Cu535   1.974   .     S
O532   C533    1.278   .     A
O532   Cu536   1.974   .     S
C533   C544    1.458   .     S
C534   C543    1.458   .     S
Cu535  Cu536   2.633   .     S
Cu535  N538    1.978   .     S
Cu536  N537    1.978   .     S
N538   N885    1.196   .     S
C539   C547    1.414   .     A
C539   C543    1.399   .     A
C539   N569    1.436   .     S
C540   N572    1.436   .     S
C540   C544    1.399   .     A
C540   C548    1.414   .     A
C541   N575    1.436   .     S
C541   C545    1.414   .     A
C541   C543    1.399   .     A
C542   N578    1.436   .     S
C542   C544    1.399   .     A
C542   C546    1.414   .     A
C545   C549    1.425   .     A
C545   C551    1.417   .     A
C546   C550    1.425   .     A
C546   C552    1.417   .     A
C547   C553    1.417   .     A
C547   C549    1.425   .     A
C548   C554    1.417   .     A
C548   C550    1.425   .     A
C549   C492    1.416   1_655 S
C551   N557    1.438   .     S
C551   C496    1.404   1_655 S
C552   N560    1.438   .     S
C553   N563    1.438   .     S
C553   C494    1.404   1_655 S
C554   N566    1.438   .     S
C556   C671    1.187   .     S
N557   H558    1.045   .     S
N557   H559    1.045   .     S
N560   H562    1.045   .     S
N560   H561    1.045   .     S
N563   H564    1.045   .     S
N563   H565    1.045   .     S
N566   H567    1.045   .     S
N566   H568    1.045   .     S
N569   O571    1.301   .     A
N569   O570    1.301   .     A
N572   O574    1.301   .     A
N572   O573    1.301   .     A
N575   O577    1.301   .     A
N575   O576    1.301   .     A
N578   O580    1.301   .     A
N578   O579    1.301   .     A
O581   C585    1.273   .     A
O581   Cu593   1.931   .     S
O582   C586    1.273   .     A
O582   Cu594   1.931   .     S
O583   Cu593   1.931   .     S
O583   C586    1.273   .     A
O584   Cu594   1.931   .     S
O584   C585    1.273   .     A
C585   C613    1.403   .     S
C586   C614    1.403   .     S
O587   Cu593   1.974   .     S
O587   C591    1.278   .     A
O588   C592    1.278   .     A
O588   Cu594   1.974   .     S
O589   C592    1.278   .     A
O589   Cu593   1.974   .     S
O590   C591    1.278   .     A
O590   Cu594   1.974   .     S
C591   C602    1.458   .     S
C592   C601    1.458   .     S
Cu593  Cu594   2.633   .     S
Cu593  N596    1.978   .     S
Cu594  N595    1.978   .     S
N596   N943    1.196   .     S
C597   C605    1.414   .     A
C597   C601    1.399   .     A
C597   N627    1.436   .     S
C598   N630    1.436   .     S
C598   C602    1.399   .     A
C598   C606    1.414   .     A
C599   N633    1.436   .     S
C599   C603    1.414   .     A
C599   C601    1.399   .     A
C600   N636    1.436   .     S
C600   C602    1.399   .     A
C600   C604    1.414   .     A
C603   C607    1.425   .     A
C603   C609    1.417   .     A
C604   C608    1.425   .     A
C604   C610    1.417   .     A
C605   C611    1.417   .     A
C605   C607    1.425   .     A
C606   C612    1.417   .     A
C606   C608    1.425   .     A
C607   C666    1.416   .     S
C608   C665    1.416   1_455 S
C609   N615    1.438   .     S
C609   C670    1.404   .     S
C610   N618    1.438   .     S
C610   C669    1.404   1_455 S
C611   N621    1.438   .     S
C611   C668    1.404   .     S
C612   N624    1.438   .     S
C612   C667    1.404   1_455 S
C614   C381    1.187   1_565 S
N615   H616    1.045   .     S
N615   H617    1.045   .     S
N618   H620    1.045   .     S
N618   H619    1.045   .     S
N621   H622    1.045   .     S
N621   H623    1.045   .     S
N624   H625    1.045   .     S
N624   H626    1.045   .     S
N627   O629    1.301   .     A
N627   O628    1.301   .     A
N630   O632    1.301   .     A
N630   O631    1.301   .     A
N633   O635    1.301   .     A
N633   O634    1.301   .     A
N636   O638    1.301   .     A
N636   O637    1.301   .     A
O639   C643    1.273   .     A
O639   Cu651   1.931   .     S
O640   C644    1.273   .     A
O640   Cu652   1.931   .     S
O641   Cu651   1.931   .     S
O641   C644    1.273   .     A
O642   Cu652   1.931   .     S
O642   C643    1.273   .     A
C643   C671    1.403   .     S
C644   C672    1.403   .     S
O645   Cu651   1.974   .     S
O645   C649    1.278   .     A
O646   C650    1.278   .     A
O646   Cu652   1.974   .     S
O647   C650    1.278   .     A
O647   Cu651   1.974   .     S
O648   C649    1.278   .     A
O648   Cu652   1.974   .     S
C649   C660    1.458   .     S
C650   C659    1.458   .     S
Cu651  Cu652   2.633   .     S
Cu651  N654    1.978   .     S
Cu652  N653    1.978   .     S
N654   N1001   1.196   .     S
C655   C663    1.414   .     A
C655   C659    1.399   .     A
C655   N685    1.436   .     S
C656   N688    1.436   .     S
C656   C660    1.399   .     A
C656   C664    1.414   .     A
C657   N691    1.436   .     S
C657   C661    1.414   .     A
C657   C659    1.399   .     A
C658   N694    1.436   .     S
C658   C660    1.399   .     A
C658   C662    1.414   .     A
C661   C665    1.425   .     A
C661   C667    1.417   .     A
C662   C666    1.425   .     A
C662   C668    1.417   .     A
C663   C669    1.417   .     A
C663   C665    1.425   .     A
C664   C670    1.417   .     A
C664   C666    1.425   .     A
C665   C608    1.416   1_655 S
C667   N673    1.438   .     S
C667   C612    1.404   1_655 S
C668   N676    1.438   .     S
C669   N679    1.438   .     S
C669   C610    1.404   1_655 S
C670   N682    1.438   .     S
C672   C439    1.187   1_565 S
N673   H674    1.045   .     S
N673   H675    1.045   .     S
N676   H678    1.045   .     S
N676   H677    1.045   .     S
N679   H680    1.045   .     S
N679   H681    1.045   .     S
N682   H683    1.045   .     S
N682   H684    1.045   .     S
N685   O687    1.301   .     A
N685   O686    1.301   .     A
N688   O690    1.301   .     A
N688   O689    1.301   .     A
N691   O693    1.301   .     A
N691   O692    1.301   .     A
N694   O696    1.301   .     A
N694   O695    1.301   .     A
O697   C701    1.273   .     A
O697   Cu709   1.931   .     S
O698   C702    1.273   .     A
O698   Cu710   1.931   .     S
O699   Cu709   1.931   .     S
O699   C702    1.273   .     A
O700   Cu710   1.931   .     S
O700   C701    1.273   .     A
C701   C729    1.403   .     S
C702   C730    1.403   .     S
O703   Cu709   1.974   .     S
O703   C707    1.278   .     A
O704   C708    1.278   .     A
O704   Cu710   1.974   .     S
O705   C708    1.278   .     A
O705   Cu709   1.974   .     S
O706   C707    1.278   .     A
O706   Cu710   1.974   .     S
C707   C718    1.458   .     S
C708   C717    1.458   .     S
Cu709  Cu710   2.633   .     S
Cu709  N712    1.978   .     S
Cu710  N711    1.978   .     S
N712   N15     1.196   1_556 S
C713   C721    1.414   .     A
C713   C717    1.399   .     A
C713   N743    1.436   .     S
C714   N746    1.436   .     S
C714   C718    1.399   .     A
C714   C722    1.414   .     A
C715   N749    1.436   .     S
C715   C719    1.414   .     A
C715   C717    1.399   .     A
C716   N752    1.436   .     S
C716   C718    1.399   .     A
C716   C720    1.414   .     A
C719   C723    1.425   .     A
C719   C725    1.417   .     A
C720   C724    1.425   .     A
C720   C726    1.417   .     A
C721   C727    1.417   .     A
C721   C723    1.425   .     A
C722   C728    1.417   .     A
C722   C724    1.425   .     A
C723   C782    1.416   .     S
C724   C781    1.416   1_455 S
C725   N731    1.438   .     S
C725   C786    1.404   .     S
C726   N734    1.438   .     S
C726   C785    1.404   1_455 S
C727   N737    1.438   .     S
C727   C784    1.404   .     S
C728   N740    1.438   .     S
C728   C783    1.404   1_455 S
C729   C962    1.187   1_545 S
C730   C845    1.187   .     S
N731   H732    1.045   .     S
N731   H733    1.045   .     S
N734   H736    1.045   .     S
N734   H735    1.045   .     S
N737   H738    1.045   .     S
N737   H739    1.045   .     S
N740   H741    1.045   .     S
N740   H742    1.045   .     S
N743   O745    1.301   .     A
N743   O744    1.301   .     A
N746   O748    1.301   .     A
N746   O747    1.301   .     A
N749   O751    1.301   .     A
N749   O750    1.301   .     A
N752   O754    1.301   .     A
N752   O753    1.301   .     A
O755   C759    1.273   .     A
O755   Cu767   1.931   .     S
O756   C760    1.273   .     A
O756   Cu768   1.931   .     S
O757   Cu767   1.931   .     S
O757   C760    1.273   .     A
O758   Cu768   1.931   .     S
O758   C759    1.273   .     A
C759   C787    1.403   .     S
C760   C788    1.403   .     S
O761   Cu767   1.974   .     S
O761   C765    1.278   .     A
O762   C766    1.278   .     A
O762   Cu768   1.974   .     S
O763   C766    1.278   .     A
O763   Cu767   1.974   .     S
O764   C765    1.278   .     A
O764   Cu768   1.974   .     S
C765   C776    1.458   .     S
C766   C775    1.458   .     S
Cu767  Cu768   2.633   .     S
Cu767  N770    1.978   .     S
Cu768  N769    1.978   .     S
N770   N73     1.196   1_556 S
C771   C779    1.414   .     A
C771   C775    1.399   .     A
C771   N801    1.436   .     S
C772   N804    1.436   .     S
C772   C776    1.399   .     A
C772   C780    1.414   .     A
C773   N807    1.436   .     S
C773   C777    1.414   .     A
C773   C775    1.399   .     A
C774   N810    1.436   .     S
C774   C776    1.399   .     A
C774   C778    1.414   .     A
C777   C781    1.425   .     A
C777   C783    1.417   .     A
C778   C782    1.425   .     A
C778   C784    1.417   .     A
C779   C785    1.417   .     A
C779   C781    1.425   .     A
C780   C786    1.417   .     A
C780   C782    1.425   .     A
C781   C724    1.416   1_655 S
C783   N789    1.438   .     S
C783   C728    1.404   1_655 S
C784   N792    1.438   .     S
C785   N795    1.438   .     S
C785   C726    1.404   1_655 S
C786   N798    1.438   .     S
C787   C1020   1.187   1_545 S
C788   C903    1.187   .     S
N789   H790    1.045   .     S
N789   H791    1.045   .     S
N792   H794    1.045   .     S
N792   H793    1.045   .     S
N795   H796    1.045   .     S
N795   H797    1.045   .     S
N798   H799    1.045   .     S
N798   H800    1.045   .     S
N801   O803    1.301   .     A
N801   O802    1.301   .     A
N804   O806    1.301   .     A
N804   O805    1.301   .     A
N807   O809    1.301   .     A
N807   O808    1.301   .     A
N810   O812    1.301   .     A
N810   O811    1.301   .     A
O813   C817    1.273   .     A
O813   Cu825   1.931   .     S
O814   C818    1.273   .     A
O814   Cu826   1.931   .     S
O815   Cu825   1.931   .     S
O815   C818    1.273   .     A
O816   Cu826   1.931   .     S
O816   C817    1.273   .     A
C817   C845    1.403   .     S
C818   C846    1.403   .     S
O819   Cu825   1.974   .     S
O819   C823    1.278   .     A
O820   C824    1.278   .     A
O820   Cu826   1.974   .     S
O821   C824    1.278   .     A
O821   Cu825   1.974   .     S
O822   C823    1.278   .     A
O822   Cu826   1.974   .     S
C823   C834    1.458   .     S
C824   C833    1.458   .     S
Cu825  Cu826   2.633   .     S
Cu825  N828    1.978   .     S
Cu826  N827    1.978   .     S
N828   N131    1.196   1_556 S
C829   C837    1.414   .     A
C829   C833    1.399   .     A
C829   N859    1.436   .     S
C830   N862    1.436   .     S
C830   C834    1.399   .     A
C830   C838    1.414   .     A
C831   N865    1.436   .     S
C831   C835    1.414   .     A
C831   C833    1.399   .     A
C832   N868    1.436   .     S
C832   C834    1.399   .     A
C832   C836    1.414   .     A
C835   C839    1.425   .     A
C835   C841    1.417   .     A
C836   C840    1.425   .     A
C836   C842    1.417   .     A
C837   C843    1.417   .     A
C837   C839    1.425   .     A
C838   C844    1.417   .     A
C838   C840    1.425   .     A
C839   C898    1.416   .     S
C840   C897    1.416   1_455 S
C841   N847    1.438   .     S
C841   C902    1.404   .     S
C842   N850    1.438   .     S
C842   C901    1.404   1_455 S
C843   N853    1.438   .     S
C843   C900    1.404   .     S
C844   N856    1.438   .     S
C844   C899    1.404   1_455 S
C846   C961    1.187   .     S
N847   H848    1.045   .     S
N847   H849    1.045   .     S
N850   H852    1.045   .     S
N850   H851    1.045   .     S
N853   H854    1.045   .     S
N853   H855    1.045   .     S
N856   H857    1.045   .     S
N856   H858    1.045   .     S
N859   O861    1.301   .     A
N859   O860    1.301   .     A
N862   O864    1.301   .     A
N862   O863    1.301   .     A
N865   O867    1.301   .     A
N865   O866    1.301   .     A
N868   O870    1.301   .     A
N868   O869    1.301   .     A
O871   C875    1.273   .     A
O871   Cu883   1.931   .     S
O872   C876    1.273   .     A
O872   Cu884   1.931   .     S
O873   Cu883   1.931   .     S
O873   C876    1.273   .     A
O874   Cu884   1.931   .     S
O874   C875    1.273   .     A
C875   C903    1.403   .     S
C876   C904    1.403   .     S
O877   Cu883   1.974   .     S
O877   C881    1.278   .     A
O878   C882    1.278   .     A
O878   Cu884   1.974   .     S
O879   C882    1.278   .     A
O879   Cu883   1.974   .     S
O880   C881    1.278   .     A
O880   Cu884   1.974   .     S
C881   C892    1.458   .     S
C882   C891    1.458   .     S
Cu883  Cu884   2.633   .     S
Cu883  N886    1.978   .     S
Cu884  N885    1.978   .     S
N886   N189    1.196   1_556 S
C887   C895    1.414   .     A
C887   C891    1.399   .     A
C887   N917    1.436   .     S
C888   N920    1.436   .     S
C888   C892    1.399   .     A
C888   C896    1.414   .     A
C889   N923    1.436   .     S
C889   C893    1.414   .     A
C889   C891    1.399   .     A
C890   N926    1.436   .     S
C890   C892    1.399   .     A
C890   C894    1.414   .     A
C893   C897    1.425   .     A
C893   C899    1.417   .     A
C894   C898    1.425   .     A
C894   C900    1.417   .     A
C895   C901    1.417   .     A
C895   C897    1.425   .     A
C896   C902    1.417   .     A
C896   C898    1.425   .     A
C897   C840    1.416   1_655 S
C899   N905    1.438   .     S
C899   C844    1.404   1_655 S
C900   N908    1.438   .     S
C901   N911    1.438   .     S
C901   C842    1.404   1_655 S
C902   N914    1.438   .     S
C904   C1019   1.187   .     S
N905   H906    1.045   .     S
N905   H907    1.045   .     S
N908   H910    1.045   .     S
N908   H909    1.045   .     S
N911   H912    1.045   .     S
N911   H913    1.045   .     S
N914   H915    1.045   .     S
N914   H916    1.045   .     S
N917   O919    1.301   .     A
N917   O918    1.301   .     A
N920   O922    1.301   .     A
N920   O921    1.301   .     A
N923   O925    1.301   .     A
N923   O924    1.301   .     A
N926   O928    1.301   .     A
N926   O927    1.301   .     A
O929   C933    1.273   .     A
O929   Cu941   1.931   .     S
O930   C934    1.273   .     A
O930   Cu942   1.931   .     S
O931   Cu941   1.931   .     S
O931   C934    1.273   .     A
O932   Cu942   1.931   .     S
O932   C933    1.273   .     A
C933   C961    1.403   .     S
C934   C962    1.403   .     S
O935   Cu941   1.974   .     S
O935   C939    1.278   .     A
O936   C940    1.278   .     A
O936   Cu942   1.974   .     S
O937   C940    1.278   .     A
O937   Cu941   1.974   .     S
O938   C939    1.278   .     A
O938   Cu942   1.974   .     S
C939   C950    1.458   .     S
C940   C949    1.458   .     S
Cu941  Cu942   2.633   .     S
Cu941  N944    1.978   .     S
Cu942  N943    1.978   .     S
N944   N247    1.196   1_556 S
C945   C953    1.414   .     A
C945   C949    1.399   .     A
C945   N975    1.436   .     S
C946   N978    1.436   .     S
C946   C950    1.399   .     A
C946   C954    1.414   .     A
C947   N981    1.436   .     S
C947   C951    1.414   .     A
C947   C949    1.399   .     A
C948   N984    1.436   .     S
C948   C950    1.399   .     A
C948   C952    1.414   .     A
C951   C955    1.425   .     A
C951   C957    1.417   .     A
C952   C956    1.425   .     A
C952   C958    1.417   .     A
C953   C959    1.417   .     A
C953   C955    1.425   .     A
C954   C960    1.417   .     A
C954   C956    1.425   .     A
C955   C1014   1.416   .     S
C956   C1013   1.416   1_455 S
C957   N963    1.438   .     S
C957   C1018   1.404   .     S
C958   N966    1.438   .     S
C958   C1017   1.404   1_455 S
C959   N969    1.438   .     S
C959   C1016   1.404   .     S
C960   N972    1.438   .     S
C960   C1015   1.404   1_455 S
C962   C729    1.187   1_565 S
N963   H964    1.045   .     S
N963   H965    1.045   .     S
N966   H968    1.045   .     S
N966   H967    1.045   .     S
N969   H970    1.045   .     S
N969   H971    1.045   .     S
N972   H973    1.045   .     S
N972   H974    1.045   .     S
N975   O977    1.301   .     A
N975   O976    1.301   .     A
N978   O980    1.301   .     A
N978   O979    1.301   .     A
N981   O983    1.301   .     A
N981   O982    1.301   .     A
N984   O986    1.301   .     A
N984   O985    1.301   .     A
O987   C991    1.273   .     A
O987   Cu999   1.931   .     S
O988   C992    1.273   .     A
O988   Cu1000  1.931   .     S
O989   Cu999   1.931   .     S
O989   C992    1.273   .     A
O990   Cu1000  1.931   .     S
O990   C991    1.273   .     A
C991   C1019   1.403   .     S
C992   C1020   1.403   .     S
O993   Cu999   1.974   .     S
O993   C997    1.278   .     A
O994   C998    1.278   .     A
O994   Cu1000  1.974   .     S
O995   C998    1.278   .     A
O995   Cu999   1.974   .     S
O996   C997    1.278   .     A
O996   Cu1000  1.974   .     S
C997   C1008   1.458   .     S
C998   C1007   1.458   .     S
Cu999  Cu1000  2.633   .     S
Cu999  N1002   1.978   .     S
Cu1000 N1001   1.978   .     S
N1002  N305    1.196   1_556 S
C1003  C1011   1.414   .     A
C1003  C1007   1.399   .     A
C1003  N1033   1.436   .     S
C1004  N1036   1.436   .     S
C1004  C1008   1.399   .     A
C1004  C1012   1.414   .     A
C1005  N1039   1.436   .     S
C1005  C1009   1.414   .     A
C1005  C1007   1.399   .     A
C1006  N1042   1.436   .     S
C1006  C1008   1.399   .     A
C1006  C1010   1.414   .     A
C1009  C1013   1.425   .     A
C1009  C1015   1.417   .     A
C1010  C1014   1.425   .     A
C1010  C1016   1.417   .     A
C1011  C1017   1.417   .     A
C1011  C1013   1.425   .     A
C1012  C1018   1.417   .     A
C1012  C1014   1.425   .     A
C1013  C956    1.416   1_655 S
C1015  N1021   1.438   .     S
C1015  C960    1.404   1_655 S
C1016  N1024   1.438   .     S
C1017  N1027   1.438   .     S
C1017  C958    1.404   1_655 S
C1018  N1030   1.438   .     S
C1020  C787    1.187   1_565 S
N1021  H1022   1.045   .     S
N1021  H1023   1.045   .     S
N1024  H1026   1.045   .     S
N1024  H1025   1.045   .     S
N1027  H1028   1.045   .     S
N1027  H1029   1.045   .     S
N1030  H1031   1.045   .     S
N1030  H1032   1.045   .     S
N1033  O1035   1.301   .     A
N1033  O1034   1.301   .     A
N1036  O1038   1.301   .     A
N1036  O1037   1.301   .     A
N1039  O1041   1.301   .     A
N1039  O1040   1.301   .     A
N1042  O1044   1.301   .     A
N1042  O1043   1.301   .     A
