data_str_m2_o10_o16_pcu_sym.26
_audit_creation_date              2020-01-03
_audit_creation_method            'Materials Studio'
_symmetry_space_group_name_H-M    'P1'
_symmetry_Int_Tables_number       1
_symmetry_cell_setting            triclinic
loop_
_symmetry_equiv_pos_as_xyz
  x,y,z
_cell_length_a                    22.2747
_cell_length_b                    26.1778
_cell_length_c                    26.7494
_cell_angle_alpha                 94.0487
_cell_angle_beta                  77.2535
_cell_angle_gamma                 103.1317
loop_
_atom_site_label
_atom_site_type_symbol
_atom_site_fract_x
_atom_site_fract_y
_atom_site_fract_z
_atom_site_U_iso_or_equiv
_atom_site_adp_type
_atom_site_occupancy
C1     C     0.18178   0.26669   0.25095   0.00000  Uiso   1.00
C2     C     0.11207   0.16537   0.40364   0.00000  Uiso   1.00
C3     C     0.18877   0.32250   0.25246   0.00000  Uiso   1.00
C4     C     0.13306   0.16594   0.34733   0.00000  Uiso   1.00
C5     C     0.14593   0.01086   0.23901   0.00000  Uiso   1.00
C6     C     0.15250   0.06675   0.24590   0.00000  Uiso   1.00
C7     C     0.20059   0.16974   0.15287   0.00000  Uiso   1.00
C8     C     0.28969   0.23135   0.02887   0.00000  Uiso   1.00
C9     C     0.22143   0.17756   0.09753   0.00000  Uiso   1.00
C10    C     0.04994   0.14019   0.42511   0.00000  Uiso   1.00
C11    C     0.03120   0.13232   0.47757   0.00000  Uiso   1.00
C12    C     0.13880   0.16948   0.48813   0.00000  Uiso   1.00
C13    C     0.07502   0.14617   0.00881   0.00000  Uiso   1.00
C14    C     0.15493   0.18498   0.43629   0.00000  Uiso   1.00
C15    C     0.18624   0.18070   0.01791   0.00000  Uiso   1.00
C16    C     0.24419   0.21616   0.49880   0.00000  Uiso   1.00
C17    C     0.25598   0.23659   0.45002   0.00000  Uiso   1.00
C18    C     0.21246   0.22087   0.41899   0.00000  Uiso   1.00
C19    C     0.17909   0.15669   0.06519   0.00000  Uiso   1.00
C20    C     0.27747   0.21350   0.07859   0.00000  Uiso   1.00
Cu21   Cu    0.10710   0.16105   0.24435   0.00000  Uiso   1.00
Cu22   Cu    0.22623   0.17228   0.25564   0.00000  Uiso   1.00
H23    H     0.31067   0.22930   0.10284   0.00000  Uiso   1.00
H24    H     0.32967   0.12746   0.21036   0.00000  Uiso   1.00
H25    H     0.14467   0.09224   0.10385   0.00000  Uiso   1.00
H26    H     0.01589   0.12600   0.40123   0.00000  Uiso   1.00
H27    H     0.00365   0.20586   0.28966   0.00000  Uiso   1.00
H28    H     0.29949   0.26447   0.43548   0.00000  Uiso   1.00
H29    H     0.00029   0.25887   0.01469   0.00000  Uiso   1.00
H30    H     0.05721   0.14070   0.04943   0.00000  Uiso   1.00
H31    H     0.31598   0.11438   0.49405   0.00000  Uiso   1.00
H32    H     0.22343   0.23919   0.38216   0.00000  Uiso   1.00
H33    H     0.22891   0.01266   0.26643   0.00000  Uiso   1.00
H34    H     0.07379   0.00366   0.20608   0.00000  Uiso   1.00
N35    N     0.31574   0.18074   0.26416   0.00000  Uiso   1.00
N36    N     0.01759   0.15259   0.23584   0.00000  Uiso   1.00
O37    O     0.12797   0.23807   0.24633   0.00000  Uiso   1.00
O38    O     0.13341   0.11136   0.07779   0.00000  Uiso   1.00
O39    O     0.22858   0.24755   0.25586   0.00000  Uiso   1.00
O40    O     0.09181   0.15960   0.31839   0.00000  Uiso   1.00
O41    O     0.19242   0.16908   0.32793   0.00000  Uiso   1.00
O42    O     0.10476   0.08578   0.24414   0.00000  Uiso   1.00
O43    O     0.20536   0.09526   0.25367   0.00000  Uiso   1.00
O44    O     0.14092   0.16425   0.17207   0.00000  Uiso   1.00
O45    O     0.24152   0.17373   0.18160   0.00000  Uiso   1.00
O46    O     0.09707   0.31403   0.21826   0.00000  Uiso   1.00
C47    C     0.51512   0.26669   0.25095   0.00000  Uiso   1.00
C48    C     0.44540   0.16537   0.40364   0.00000  Uiso   1.00
C49    C     0.52211   0.32250   0.25246   0.00000  Uiso   1.00
C50    C     0.46640   0.16594   0.34733   0.00000  Uiso   1.00
C51    C     0.47926   0.01086   0.23901   0.00000  Uiso   1.00
C52    C     0.48583   0.06675   0.24590   0.00000  Uiso   1.00
C53    C     0.53393   0.16974   0.15287   0.00000  Uiso   1.00
C54    C     0.62303   0.23135   0.02887   0.00000  Uiso   1.00
C55    C     0.55476   0.17756   0.09753   0.00000  Uiso   1.00
C56    C     0.38328   0.14019   0.42511   0.00000  Uiso   1.00
C57    C     0.36453   0.13232   0.47757   0.00000  Uiso   1.00
C58    C     0.47213   0.16948   0.48813   0.00000  Uiso   1.00
C59    C     0.40835   0.14617   0.00881   0.00000  Uiso   1.00
C60    C     0.48826   0.18498   0.43629   0.00000  Uiso   1.00
C61    C     0.51957   0.18070   0.01791   0.00000  Uiso   1.00
C62    C     0.57752   0.21616   0.49880   0.00000  Uiso   1.00
C63    C     0.58931   0.23659   0.45002   0.00000  Uiso   1.00
C64    C     0.54579   0.22087   0.41899   0.00000  Uiso   1.00
C65    C     0.51243   0.15669   0.06519   0.00000  Uiso   1.00
C66    C     0.61080   0.21350   0.07859   0.00000  Uiso   1.00
Cu67   Cu    0.44043   0.16105   0.24435   0.00000  Uiso   1.00
Cu68   Cu    0.55957   0.17228   0.25564   0.00000  Uiso   1.00
H69    H     0.64400   0.22930   0.10284   0.00000  Uiso   1.00
H70    H     0.66300   0.12746   0.21036   0.00000  Uiso   1.00
H71    H     0.47800   0.09224   0.10385   0.00000  Uiso   1.00
H72    H     0.34923   0.12600   0.40123   0.00000  Uiso   1.00
H73    H     0.33698   0.20586   0.28966   0.00000  Uiso   1.00
H74    H     0.63282   0.26447   0.43548   0.00000  Uiso   1.00
H75    H     0.33363   0.25887   0.01469   0.00000  Uiso   1.00
H76    H     0.39055   0.14070   0.04943   0.00000  Uiso   1.00
H77    H     0.64931   0.11438   0.49405   0.00000  Uiso   1.00
H78    H     0.55677   0.23919   0.38216   0.00000  Uiso   1.00
H79    H     0.56225   0.01266   0.26643   0.00000  Uiso   1.00
H80    H     0.40712   0.00366   0.20608   0.00000  Uiso   1.00
N81    N     0.64908   0.18074   0.26416   0.00000  Uiso   1.00
N82    N     0.35092   0.15259   0.23584   0.00000  Uiso   1.00
O83    O     0.46131   0.23807   0.24633   0.00000  Uiso   1.00
O84    O     0.46674   0.11136   0.07779   0.00000  Uiso   1.00
O85    O     0.56191   0.24755   0.25586   0.00000  Uiso   1.00
O86    O     0.42515   0.15960   0.31839   0.00000  Uiso   1.00
O87    O     0.52575   0.16908   0.32793   0.00000  Uiso   1.00
O88    O     0.43809   0.08578   0.24414   0.00000  Uiso   1.00
O89    O     0.53869   0.09526   0.25367   0.00000  Uiso   1.00
O90    O     0.47425   0.16425   0.17207   0.00000  Uiso   1.00
O91    O     0.57485   0.17373   0.18160   0.00000  Uiso   1.00
O92    O     0.43040   0.31403   0.21826   0.00000  Uiso   1.00
C93    C     0.84845   0.26669   0.25095   0.00000  Uiso   1.00
C94    C     0.77873   0.16537   0.40364   0.00000  Uiso   1.00
C95    C     0.85544   0.32250   0.25246   0.00000  Uiso   1.00
C96    C     0.79973   0.16594   0.34733   0.00000  Uiso   1.00
C97    C     0.81259   0.01086   0.23901   0.00000  Uiso   1.00
C98    C     0.81916   0.06675   0.24590   0.00000  Uiso   1.00
C99    C     0.86726   0.16974   0.15287   0.00000  Uiso   1.00
C100   C     0.95636   0.23135   0.02887   0.00000  Uiso   1.00
C101   C     0.88810   0.17756   0.09753   0.00000  Uiso   1.00
C102   C     0.71661   0.14019   0.42511   0.00000  Uiso   1.00
C103   C     0.69787   0.13232   0.47757   0.00000  Uiso   1.00
C104   C     0.80546   0.16948   0.48813   0.00000  Uiso   1.00
C105   C     0.74169   0.14617   0.00881   0.00000  Uiso   1.00
C106   C     0.82160   0.18498   0.43629   0.00000  Uiso   1.00
C107   C     0.85290   0.18070   0.01791   0.00000  Uiso   1.00
C108   C     0.91085   0.21616   0.49880   0.00000  Uiso   1.00
C109   C     0.92264   0.23659   0.45002   0.00000  Uiso   1.00
C110   C     0.87912   0.22087   0.41899   0.00000  Uiso   1.00
C111   C     0.84576   0.15669   0.06519   0.00000  Uiso   1.00
C112   C     0.94413   0.21350   0.07859   0.00000  Uiso   1.00
Cu113  Cu    0.77377   0.16105   0.24435   0.00000  Uiso   1.00
Cu114  Cu    0.89290   0.17228   0.25564   0.00000  Uiso   1.00
H115   H     0.97734   0.22930   0.10284   0.00000  Uiso   1.00
H116   H     0.99634   0.12746   0.21036   0.00000  Uiso   1.00
H117   H     0.81133   0.09224   0.10385   0.00000  Uiso   1.00
H118   H     0.68256   0.12600   0.40123   0.00000  Uiso   1.00
H119   H     0.67032   0.20586   0.28966   0.00000  Uiso   1.00
H120   H     0.96615   0.26447   0.43548   0.00000  Uiso   1.00
H121   H     0.66696   0.25887   0.01469   0.00000  Uiso   1.00
H122   H     0.72388   0.14070   0.04943   0.00000  Uiso   1.00
H123   H     0.98265   0.11438   0.49405   0.00000  Uiso   1.00
H124   H     0.89010   0.23919   0.38216   0.00000  Uiso   1.00
H125   H     0.89558   0.01266   0.26643   0.00000  Uiso   1.00
H126   H     0.74046   0.00366   0.20608   0.00000  Uiso   1.00
N127   N     0.98241   0.18074   0.26416   0.00000  Uiso   1.00
N128   N     0.68426   0.15259   0.23584   0.00000  Uiso   1.00
O129   O     0.79464   0.23807   0.24633   0.00000  Uiso   1.00
O130   O     0.80008   0.11136   0.07779   0.00000  Uiso   1.00
O131   O     0.89524   0.24755   0.25586   0.00000  Uiso   1.00
O132   O     0.75848   0.15960   0.31839   0.00000  Uiso   1.00
O133   O     0.85908   0.16908   0.32793   0.00000  Uiso   1.00
O134   O     0.77142   0.08578   0.24414   0.00000  Uiso   1.00
O135   O     0.87203   0.09526   0.25367   0.00000  Uiso   1.00
O136   O     0.80758   0.16425   0.17207   0.00000  Uiso   1.00
O137   O     0.90819   0.17373   0.18160   0.00000  Uiso   1.00
O138   O     0.76373   0.31403   0.21826   0.00000  Uiso   1.00
C139   C     0.18178   0.60003   0.25095   0.00000  Uiso   1.00
C140   C     0.11207   0.49871   0.40364   0.00000  Uiso   1.00
C141   C     0.18877   0.65583   0.25246   0.00000  Uiso   1.00
C142   C     0.13306   0.49927   0.34733   0.00000  Uiso   1.00
C143   C     0.14593   0.34420   0.23901   0.00000  Uiso   1.00
C144   C     0.15250   0.40008   0.24590   0.00000  Uiso   1.00
C145   C     0.20059   0.50307   0.15287   0.00000  Uiso   1.00
C146   C     0.28969   0.56468   0.02887   0.00000  Uiso   1.00
C147   C     0.22143   0.51089   0.09753   0.00000  Uiso   1.00
C148   C     0.04994   0.47352   0.42511   0.00000  Uiso   1.00
C149   C     0.03120   0.46566   0.47757   0.00000  Uiso   1.00
C150   C     0.13880   0.50281   0.48813   0.00000  Uiso   1.00
C151   C     0.07502   0.47951   0.00881   0.00000  Uiso   1.00
C152   C     0.15493   0.51831   0.43629   0.00000  Uiso   1.00
C153   C     0.18624   0.51403   0.01791   0.00000  Uiso   1.00
C154   C     0.24419   0.54949   0.49880   0.00000  Uiso   1.00
C155   C     0.25598   0.56993   0.45002   0.00000  Uiso   1.00
C156   C     0.21246   0.55421   0.41899   0.00000  Uiso   1.00
C157   C     0.17909   0.49003   0.06519   0.00000  Uiso   1.00
C158   C     0.27747   0.54684   0.07859   0.00000  Uiso   1.00
Cu159  Cu    0.10710   0.49439   0.24435   0.00000  Uiso   1.00
Cu160  Cu    0.22623   0.50561   0.25564   0.00000  Uiso   1.00
H161   H     0.31067   0.56264   0.10284   0.00000  Uiso   1.00
H162   H     0.32967   0.46080   0.21036   0.00000  Uiso   1.00
H163   H     0.14467   0.42557   0.10385   0.00000  Uiso   1.00
H164   H     0.01589   0.45934   0.40123   0.00000  Uiso   1.00
H165   H     0.00365   0.53920   0.28966   0.00000  Uiso   1.00
H166   H     0.29949   0.59781   0.43548   0.00000  Uiso   1.00
H167   H     0.00029   0.59220   0.01469   0.00000  Uiso   1.00
H168   H     0.05721   0.47403   0.04943   0.00000  Uiso   1.00
H169   H     0.31598   0.44771   0.49405   0.00000  Uiso   1.00
H170   H     0.22343   0.57253   0.38216   0.00000  Uiso   1.00
H171   H     0.22891   0.34600   0.26643   0.00000  Uiso   1.00
H172   H     0.07379   0.33699   0.20608   0.00000  Uiso   1.00
N173   N     0.31574   0.51407   0.26416   0.00000  Uiso   1.00
N174   N     0.01759   0.48593   0.23584   0.00000  Uiso   1.00
O175   O     0.12797   0.57141   0.24633   0.00000  Uiso   1.00
O176   O     0.13341   0.44469   0.07779   0.00000  Uiso   1.00
O177   O     0.22858   0.58089   0.25586   0.00000  Uiso   1.00
O178   O     0.09181   0.49293   0.31839   0.00000  Uiso   1.00
O179   O     0.19242   0.50241   0.32793   0.00000  Uiso   1.00
O180   O     0.10476   0.41911   0.24414   0.00000  Uiso   1.00
O181   O     0.20536   0.42859   0.25367   0.00000  Uiso   1.00
O182   O     0.14092   0.49759   0.17207   0.00000  Uiso   1.00
O183   O     0.24152   0.50707   0.18160   0.00000  Uiso   1.00
O184   O     0.09707   0.64736   0.21826   0.00000  Uiso   1.00
C185   C     0.51512   0.60003   0.25095   0.00000  Uiso   1.00
C186   C     0.44540   0.49871   0.40364   0.00000  Uiso   1.00
C187   C     0.52211   0.65583   0.25246   0.00000  Uiso   1.00
C188   C     0.46640   0.49927   0.34733   0.00000  Uiso   1.00
C189   C     0.47926   0.34420   0.23901   0.00000  Uiso   1.00
C190   C     0.48583   0.40008   0.24590   0.00000  Uiso   1.00
C191   C     0.53393   0.50307   0.15287   0.00000  Uiso   1.00
C192   C     0.62303   0.56468   0.02887   0.00000  Uiso   1.00
C193   C     0.55476   0.51089   0.09753   0.00000  Uiso   1.00
C194   C     0.38328   0.47352   0.42511   0.00000  Uiso   1.00
C195   C     0.36453   0.46566   0.47757   0.00000  Uiso   1.00
C196   C     0.47213   0.50281   0.48813   0.00000  Uiso   1.00
C197   C     0.40835   0.47951   0.00881   0.00000  Uiso   1.00
C198   C     0.48826   0.51831   0.43629   0.00000  Uiso   1.00
C199   C     0.51957   0.51403   0.01791   0.00000  Uiso   1.00
C200   C     0.57752   0.54949   0.49880   0.00000  Uiso   1.00
C201   C     0.58931   0.56993   0.45002   0.00000  Uiso   1.00
C202   C     0.54579   0.55421   0.41899   0.00000  Uiso   1.00
C203   C     0.51243   0.49003   0.06519   0.00000  Uiso   1.00
C204   C     0.61080   0.54684   0.07859   0.00000  Uiso   1.00
Cu205  Cu    0.44043   0.49439   0.24435   0.00000  Uiso   1.00
Cu206  Cu    0.55957   0.50561   0.25564   0.00000  Uiso   1.00
H207   H     0.64400   0.56264   0.10284   0.00000  Uiso   1.00
H208   H     0.66300   0.46080   0.21036   0.00000  Uiso   1.00
H209   H     0.47800   0.42557   0.10385   0.00000  Uiso   1.00
H210   H     0.34923   0.45934   0.40123   0.00000  Uiso   1.00
H211   H     0.33698   0.53920   0.28966   0.00000  Uiso   1.00
H212   H     0.63282   0.59781   0.43548   0.00000  Uiso   1.00
H213   H     0.33363   0.59220   0.01469   0.00000  Uiso   1.00
H214   H     0.39055   0.47403   0.04943   0.00000  Uiso   1.00
H215   H     0.64931   0.44771   0.49405   0.00000  Uiso   1.00
H216   H     0.55677   0.57253   0.38216   0.00000  Uiso   1.00
H217   H     0.56225   0.34600   0.26643   0.00000  Uiso   1.00
H218   H     0.40712   0.33699   0.20608   0.00000  Uiso   1.00
N219   N     0.64908   0.51407   0.26416   0.00000  Uiso   1.00
N220   N     0.35092   0.48593   0.23584   0.00000  Uiso   1.00
O221   O     0.46131   0.57141   0.24633   0.00000  Uiso   1.00
O222   O     0.46674   0.44469   0.07779   0.00000  Uiso   1.00
O223   O     0.56191   0.58089   0.25586   0.00000  Uiso   1.00
O224   O     0.42515   0.49293   0.31839   0.00000  Uiso   1.00
O225   O     0.52575   0.50241   0.32793   0.00000  Uiso   1.00
O226   O     0.43809   0.41911   0.24414   0.00000  Uiso   1.00
O227   O     0.53869   0.42859   0.25367   0.00000  Uiso   1.00
O228   O     0.47425   0.49759   0.17207   0.00000  Uiso   1.00
O229   O     0.57485   0.50707   0.18160   0.00000  Uiso   1.00
O230   O     0.43040   0.64736   0.21826   0.00000  Uiso   1.00
C231   C     0.84845   0.60003   0.25095   0.00000  Uiso   1.00
C232   C     0.77873   0.49871   0.40364   0.00000  Uiso   1.00
C233   C     0.85544   0.65583   0.25246   0.00000  Uiso   1.00
C234   C     0.79973   0.49927   0.34733   0.00000  Uiso   1.00
C235   C     0.81259   0.34420   0.23901   0.00000  Uiso   1.00
C236   C     0.81916   0.40008   0.24590   0.00000  Uiso   1.00
C237   C     0.86726   0.50307   0.15287   0.00000  Uiso   1.00
C238   C     0.95636   0.56468   0.02887   0.00000  Uiso   1.00
C239   C     0.88810   0.51089   0.09753   0.00000  Uiso   1.00
C240   C     0.71661   0.47352   0.42511   0.00000  Uiso   1.00
C241   C     0.69787   0.46566   0.47757   0.00000  Uiso   1.00
C242   C     0.80546   0.50281   0.48813   0.00000  Uiso   1.00
C243   C     0.74169   0.47951   0.00881   0.00000  Uiso   1.00
C244   C     0.82160   0.51831   0.43629   0.00000  Uiso   1.00
C245   C     0.85290   0.51403   0.01791   0.00000  Uiso   1.00
C246   C     0.91085   0.54949   0.49880   0.00000  Uiso   1.00
C247   C     0.92264   0.56993   0.45002   0.00000  Uiso   1.00
C248   C     0.87912   0.55421   0.41899   0.00000  Uiso   1.00
C249   C     0.84576   0.49003   0.06519   0.00000  Uiso   1.00
C250   C     0.94413   0.54684   0.07859   0.00000  Uiso   1.00
Cu251  Cu    0.77377   0.49439   0.24435   0.00000  Uiso   1.00
Cu252  Cu    0.89290   0.50561   0.25564   0.00000  Uiso   1.00
H253   H     0.97734   0.56264   0.10284   0.00000  Uiso   1.00
H254   H     0.99634   0.46080   0.21036   0.00000  Uiso   1.00
H255   H     0.81133   0.42557   0.10385   0.00000  Uiso   1.00
H256   H     0.68256   0.45934   0.40123   0.00000  Uiso   1.00
H257   H     0.67032   0.53920   0.28966   0.00000  Uiso   1.00
H258   H     0.96615   0.59781   0.43548   0.00000  Uiso   1.00
H259   H     0.66696   0.59220   0.01469   0.00000  Uiso   1.00
H260   H     0.72388   0.47403   0.04943   0.00000  Uiso   1.00
H261   H     0.98265   0.44771   0.49405   0.00000  Uiso   1.00
H262   H     0.89010   0.57253   0.38216   0.00000  Uiso   1.00
H263   H     0.89558   0.34600   0.26643   0.00000  Uiso   1.00
H264   H     0.74046   0.33699   0.20608   0.00000  Uiso   1.00
N265   N     0.98241   0.51407   0.26416   0.00000  Uiso   1.00
N266   N     0.68426   0.48593   0.23584   0.00000  Uiso   1.00
O267   O     0.79464   0.57141   0.24633   0.00000  Uiso   1.00
O268   O     0.80008   0.44469   0.07779   0.00000  Uiso   1.00
O269   O     0.89524   0.58089   0.25586   0.00000  Uiso   1.00
O270   O     0.75848   0.49293   0.31839   0.00000  Uiso   1.00
O271   O     0.85908   0.50241   0.32793   0.00000  Uiso   1.00
O272   O     0.77142   0.41911   0.24414   0.00000  Uiso   1.00
O273   O     0.87203   0.42859   0.25367   0.00000  Uiso   1.00
O274   O     0.80758   0.49759   0.17207   0.00000  Uiso   1.00
O275   O     0.90819   0.50707   0.18160   0.00000  Uiso   1.00
O276   O     0.76373   0.64736   0.21826   0.00000  Uiso   1.00
C277   C     0.18178   0.93336   0.25095   0.00000  Uiso   1.00
C278   C     0.11207   0.83204   0.40364   0.00000  Uiso   1.00
C279   C     0.18877   0.98916   0.25246   0.00000  Uiso   1.00
C280   C     0.13306   0.83260   0.34733   0.00000  Uiso   1.00
C281   C     0.14593   0.67753   0.23901   0.00000  Uiso   1.00
C282   C     0.15250   0.73342   0.24590   0.00000  Uiso   1.00
C283   C     0.20059   0.83641   0.15287   0.00000  Uiso   1.00
C284   C     0.28969   0.89802   0.02887   0.00000  Uiso   1.00
C285   C     0.22143   0.84422   0.09753   0.00000  Uiso   1.00
C286   C     0.04994   0.80686   0.42511   0.00000  Uiso   1.00
C287   C     0.03120   0.79899   0.47757   0.00000  Uiso   1.00
C288   C     0.13880   0.83615   0.48813   0.00000  Uiso   1.00
C289   C     0.07502   0.81284   0.00881   0.00000  Uiso   1.00
C290   C     0.15493   0.85164   0.43629   0.00000  Uiso   1.00
C291   C     0.18624   0.84736   0.01791   0.00000  Uiso   1.00
C292   C     0.24419   0.88283   0.49880   0.00000  Uiso   1.00
C293   C     0.25598   0.90326   0.45002   0.00000  Uiso   1.00
C294   C     0.21246   0.88754   0.41899   0.00000  Uiso   1.00
C295   C     0.17909   0.82336   0.06519   0.00000  Uiso   1.00
C296   C     0.27747   0.88017   0.07859   0.00000  Uiso   1.00
Cu297  Cu    0.10710   0.82772   0.24435   0.00000  Uiso   1.00
Cu298  Cu    0.22623   0.83895   0.25564   0.00000  Uiso   1.00
H299   H     0.31067   0.89597   0.10284   0.00000  Uiso   1.00
H300   H     0.32967   0.79413   0.21036   0.00000  Uiso   1.00
H301   H     0.14467   0.75890   0.10385   0.00000  Uiso   1.00
H302   H     0.01589   0.79267   0.40123   0.00000  Uiso   1.00
H303   H     0.00365   0.87253   0.28966   0.00000  Uiso   1.00
H304   H     0.29949   0.93114   0.43548   0.00000  Uiso   1.00
H305   H     0.00029   0.92554   0.01469   0.00000  Uiso   1.00
H306   H     0.05721   0.80737   0.04943   0.00000  Uiso   1.00
H307   H     0.31598   0.78104   0.49405   0.00000  Uiso   1.00
H308   H     0.22343   0.90586   0.38216   0.00000  Uiso   1.00
H309   H     0.22891   0.67933   0.26643   0.00000  Uiso   1.00
H310   H     0.07379   0.67032   0.20608   0.00000  Uiso   1.00
N311   N     0.31574   0.84741   0.26416   0.00000  Uiso   1.00
N312   N     0.01759   0.81926   0.23584   0.00000  Uiso   1.00
O313   O     0.12797   0.90474   0.24633   0.00000  Uiso   1.00
O314   O     0.13341   0.77802   0.07779   0.00000  Uiso   1.00
O315   O     0.22858   0.91422   0.25586   0.00000  Uiso   1.00
O316   O     0.09181   0.82627   0.31839   0.00000  Uiso   1.00
O317   O     0.19242   0.83575   0.32793   0.00000  Uiso   1.00
O318   O     0.10476   0.75245   0.24414   0.00000  Uiso   1.00
O319   O     0.20536   0.76193   0.25367   0.00000  Uiso   1.00
O320   O     0.14092   0.83092   0.17207   0.00000  Uiso   1.00
O321   O     0.24152   0.84040   0.18160   0.00000  Uiso   1.00
O322   O     0.09707   0.98069   0.21826   0.00000  Uiso   1.00
C323   C     0.51512   0.93336   0.25095   0.00000  Uiso   1.00
C324   C     0.44540   0.83204   0.40364   0.00000  Uiso   1.00
C325   C     0.52211   0.98916   0.25246   0.00000  Uiso   1.00
C326   C     0.46640   0.83260   0.34733   0.00000  Uiso   1.00
C327   C     0.47926   0.67753   0.23901   0.00000  Uiso   1.00
C328   C     0.48583   0.73342   0.24590   0.00000  Uiso   1.00
C329   C     0.53393   0.83641   0.15287   0.00000  Uiso   1.00
C330   C     0.62303   0.89802   0.02887   0.00000  Uiso   1.00
C331   C     0.55476   0.84422   0.09753   0.00000  Uiso   1.00
C332   C     0.38328   0.80686   0.42511   0.00000  Uiso   1.00
C333   C     0.36453   0.79899   0.47757   0.00000  Uiso   1.00
C334   C     0.47213   0.83615   0.48813   0.00000  Uiso   1.00
C335   C     0.40835   0.81284   0.00881   0.00000  Uiso   1.00
C336   C     0.48826   0.85164   0.43629   0.00000  Uiso   1.00
C337   C     0.51957   0.84736   0.01791   0.00000  Uiso   1.00
C338   C     0.57752   0.88283   0.49880   0.00000  Uiso   1.00
C339   C     0.58931   0.90326   0.45002   0.00000  Uiso   1.00
C340   C     0.54579   0.88754   0.41899   0.00000  Uiso   1.00
C341   C     0.51243   0.82336   0.06519   0.00000  Uiso   1.00
C342   C     0.61080   0.88017   0.07859   0.00000  Uiso   1.00
Cu343  Cu    0.44043   0.82772   0.24435   0.00000  Uiso   1.00
Cu344  Cu    0.55957   0.83895   0.25564   0.00000  Uiso   1.00
H345   H     0.64400   0.89597   0.10284   0.00000  Uiso   1.00
H346   H     0.66300   0.79413   0.21036   0.00000  Uiso   1.00
H347   H     0.47800   0.75890   0.10385   0.00000  Uiso   1.00
H348   H     0.34923   0.79267   0.40123   0.00000  Uiso   1.00
H349   H     0.33698   0.87253   0.28966   0.00000  Uiso   1.00
H350   H     0.63282   0.93114   0.43548   0.00000  Uiso   1.00
H351   H     0.33363   0.92554   0.01469   0.00000  Uiso   1.00
H352   H     0.39055   0.80737   0.04943   0.00000  Uiso   1.00
H353   H     0.64931   0.78104   0.49405   0.00000  Uiso   1.00
H354   H     0.55677   0.90586   0.38216   0.00000  Uiso   1.00
H355   H     0.56225   0.67933   0.26643   0.00000  Uiso   1.00
H356   H     0.40712   0.67032   0.20608   0.00000  Uiso   1.00
N357   N     0.64908   0.84741   0.26416   0.00000  Uiso   1.00
N358   N     0.35092   0.81926   0.23584   0.00000  Uiso   1.00
O359   O     0.46131   0.90474   0.24633   0.00000  Uiso   1.00
O360   O     0.46674   0.77802   0.07779   0.00000  Uiso   1.00
O361   O     0.56191   0.91422   0.25586   0.00000  Uiso   1.00
O362   O     0.42515   0.82627   0.31839   0.00000  Uiso   1.00
O363   O     0.52575   0.83575   0.32793   0.00000  Uiso   1.00
O364   O     0.43809   0.75245   0.24414   0.00000  Uiso   1.00
O365   O     0.53869   0.76193   0.25367   0.00000  Uiso   1.00
O366   O     0.47425   0.83092   0.17207   0.00000  Uiso   1.00
O367   O     0.57485   0.84040   0.18160   0.00000  Uiso   1.00
O368   O     0.43040   0.98069   0.21826   0.00000  Uiso   1.00
C369   C     0.84845   0.93336   0.25095   0.00000  Uiso   1.00
C370   C     0.77873   0.83204   0.40364   0.00000  Uiso   1.00
C371   C     0.85544   0.98916   0.25246   0.00000  Uiso   1.00
C372   C     0.79973   0.83260   0.34733   0.00000  Uiso   1.00
C373   C     0.81259   0.67753   0.23901   0.00000  Uiso   1.00
C374   C     0.81916   0.73342   0.24590   0.00000  Uiso   1.00
C375   C     0.86726   0.83641   0.15287   0.00000  Uiso   1.00
C376   C     0.95636   0.89802   0.02887   0.00000  Uiso   1.00
C377   C     0.88810   0.84422   0.09753   0.00000  Uiso   1.00
C378   C     0.71661   0.80686   0.42511   0.00000  Uiso   1.00
C379   C     0.69787   0.79899   0.47757   0.00000  Uiso   1.00
C380   C     0.80546   0.83615   0.48813   0.00000  Uiso   1.00
C381   C     0.74169   0.81284   0.00881   0.00000  Uiso   1.00
C382   C     0.82160   0.85164   0.43629   0.00000  Uiso   1.00
C383   C     0.85290   0.84736   0.01791   0.00000  Uiso   1.00
C384   C     0.91085   0.88283   0.49880   0.00000  Uiso   1.00
C385   C     0.92264   0.90326   0.45002   0.00000  Uiso   1.00
C386   C     0.87912   0.88754   0.41899   0.00000  Uiso   1.00
C387   C     0.84576   0.82336   0.06519   0.00000  Uiso   1.00
C388   C     0.94413   0.88017   0.07859   0.00000  Uiso   1.00
Cu389  Cu    0.77377   0.82772   0.24435   0.00000  Uiso   1.00
Cu390  Cu    0.89290   0.83895   0.25564   0.00000  Uiso   1.00
H391   H     0.97734   0.89597   0.10284   0.00000  Uiso   1.00
H392   H     0.99634   0.79413   0.21036   0.00000  Uiso   1.00
H393   H     0.81133   0.75890   0.10385   0.00000  Uiso   1.00
H394   H     0.68256   0.79267   0.40123   0.00000  Uiso   1.00
H395   H     0.67032   0.87253   0.28966   0.00000  Uiso   1.00
H396   H     0.96615   0.93114   0.43548   0.00000  Uiso   1.00
H397   H     0.66696   0.92554   0.01469   0.00000  Uiso   1.00
H398   H     0.72388   0.80737   0.04943   0.00000  Uiso   1.00
H399   H     0.98265   0.78104   0.49405   0.00000  Uiso   1.00
H400   H     0.89010   0.90586   0.38216   0.00000  Uiso   1.00
H401   H     0.89558   0.67933   0.26643   0.00000  Uiso   1.00
H402   H     0.74046   0.67032   0.20608   0.00000  Uiso   1.00
N403   N     0.98241   0.84741   0.26416   0.00000  Uiso   1.00
N404   N     0.68426   0.81926   0.23584   0.00000  Uiso   1.00
O405   O     0.79464   0.90474   0.24633   0.00000  Uiso   1.00
O406   O     0.80008   0.77802   0.07779   0.00000  Uiso   1.00
O407   O     0.89524   0.91422   0.25586   0.00000  Uiso   1.00
O408   O     0.75848   0.82627   0.31839   0.00000  Uiso   1.00
O409   O     0.85908   0.83575   0.32793   0.00000  Uiso   1.00
O410   O     0.77142   0.75245   0.24414   0.00000  Uiso   1.00
O411   O     0.87203   0.76193   0.25367   0.00000  Uiso   1.00
O412   O     0.80758   0.83092   0.17207   0.00000  Uiso   1.00
O413   O     0.90819   0.84040   0.18160   0.00000  Uiso   1.00
O414   O     0.76373   0.98069   0.21826   0.00000  Uiso   1.00
C415   C     0.18178   0.26669   0.75095   0.00000  Uiso   1.00
C416   C     0.11207   0.16537   0.90364   0.00000  Uiso   1.00
C417   C     0.18877   0.32250   0.75246   0.00000  Uiso   1.00
C418   C     0.13306   0.16594   0.84733   0.00000  Uiso   1.00
C419   C     0.14593   0.01086   0.73901   0.00000  Uiso   1.00
C420   C     0.15250   0.06675   0.74590   0.00000  Uiso   1.00
C421   C     0.20059   0.16974   0.65287   0.00000  Uiso   1.00
C422   C     0.28969   0.23135   0.52887   0.00000  Uiso   1.00
C423   C     0.22143   0.17756   0.59753   0.00000  Uiso   1.00
C424   C     0.04994   0.14019   0.92511   0.00000  Uiso   1.00
C425   C     0.03120   0.13232   0.97757   0.00000  Uiso   1.00
C426   C     0.13880   0.16948   0.98813   0.00000  Uiso   1.00
C427   C     0.07502   0.14617   0.50881   0.00000  Uiso   1.00
C428   C     0.15493   0.18498   0.93629   0.00000  Uiso   1.00
C429   C     0.18624   0.18070   0.51791   0.00000  Uiso   1.00
C430   C     0.24419   0.21616   0.99880   0.00000  Uiso   1.00
C431   C     0.25598   0.23659   0.95002   0.00000  Uiso   1.00
C432   C     0.21246   0.22087   0.91899   0.00000  Uiso   1.00
C433   C     0.17909   0.15669   0.56519   0.00000  Uiso   1.00
C434   C     0.27747   0.21350   0.57859   0.00000  Uiso   1.00
Cu435  Cu    0.10710   0.16105   0.74435   0.00000  Uiso   1.00
Cu436  Cu    0.22623   0.17228   0.75564   0.00000  Uiso   1.00
H437   H     0.31067   0.22930   0.60284   0.00000  Uiso   1.00
H438   H     0.32967   0.12746   0.71036   0.00000  Uiso   1.00
H439   H     0.14467   0.09224   0.60385   0.00000  Uiso   1.00
H440   H     0.01589   0.12600   0.90123   0.00000  Uiso   1.00
H441   H     0.00365   0.20586   0.78966   0.00000  Uiso   1.00
H442   H     0.29949   0.26447   0.93548   0.00000  Uiso   1.00
H443   H     0.00029   0.25887   0.51469   0.00000  Uiso   1.00
H444   H     0.05721   0.14070   0.54943   0.00000  Uiso   1.00
H445   H     0.31598   0.11438   0.99405   0.00000  Uiso   1.00
H446   H     0.22343   0.23919   0.88216   0.00000  Uiso   1.00
H447   H     0.22891   0.01266   0.76643   0.00000  Uiso   1.00
H448   H     0.07379   0.00366   0.70608   0.00000  Uiso   1.00
N449   N     0.31574   0.18074   0.76416   0.00000  Uiso   1.00
N450   N     0.01759   0.15259   0.73584   0.00000  Uiso   1.00
O451   O     0.12797   0.23807   0.74633   0.00000  Uiso   1.00
O452   O     0.13341   0.11136   0.57779   0.00000  Uiso   1.00
O453   O     0.22858   0.24755   0.75586   0.00000  Uiso   1.00
O454   O     0.09181   0.15960   0.81839   0.00000  Uiso   1.00
O455   O     0.19242   0.16908   0.82793   0.00000  Uiso   1.00
O456   O     0.10476   0.08578   0.74414   0.00000  Uiso   1.00
O457   O     0.20536   0.09526   0.75367   0.00000  Uiso   1.00
O458   O     0.14092   0.16425   0.67207   0.00000  Uiso   1.00
O459   O     0.24152   0.17373   0.68160   0.00000  Uiso   1.00
O460   O     0.09707   0.31403   0.71826   0.00000  Uiso   1.00
C461   C     0.51512   0.26669   0.75095   0.00000  Uiso   1.00
C462   C     0.44540   0.16537   0.90364   0.00000  Uiso   1.00
C463   C     0.52211   0.32250   0.75246   0.00000  Uiso   1.00
C464   C     0.46640   0.16594   0.84733   0.00000  Uiso   1.00
C465   C     0.47926   0.01086   0.73901   0.00000  Uiso   1.00
C466   C     0.48583   0.06675   0.74590   0.00000  Uiso   1.00
C467   C     0.53393   0.16974   0.65287   0.00000  Uiso   1.00
C468   C     0.62303   0.23135   0.52887   0.00000  Uiso   1.00
C469   C     0.55476   0.17756   0.59753   0.00000  Uiso   1.00
C470   C     0.38328   0.14019   0.92511   0.00000  Uiso   1.00
C471   C     0.36453   0.13232   0.97757   0.00000  Uiso   1.00
C472   C     0.47213   0.16948   0.98813   0.00000  Uiso   1.00
C473   C     0.40835   0.14617   0.50881   0.00000  Uiso   1.00
C474   C     0.48826   0.18498   0.93629   0.00000  Uiso   1.00
C475   C     0.51957   0.18070   0.51791   0.00000  Uiso   1.00
C476   C     0.57752   0.21616   0.99880   0.00000  Uiso   1.00
C477   C     0.58931   0.23659   0.95002   0.00000  Uiso   1.00
C478   C     0.54579   0.22087   0.91899   0.00000  Uiso   1.00
C479   C     0.51243   0.15669   0.56519   0.00000  Uiso   1.00
C480   C     0.61080   0.21350   0.57859   0.00000  Uiso   1.00
Cu481  Cu    0.44043   0.16105   0.74435   0.00000  Uiso   1.00
Cu482  Cu    0.55957   0.17228   0.75564   0.00000  Uiso   1.00
H483   H     0.64400   0.22930   0.60284   0.00000  Uiso   1.00
H484   H     0.66300   0.12746   0.71036   0.00000  Uiso   1.00
H485   H     0.47800   0.09224   0.60385   0.00000  Uiso   1.00
H486   H     0.34923   0.12600   0.90123   0.00000  Uiso   1.00
H487   H     0.33698   0.20586   0.78966   0.00000  Uiso   1.00
H488   H     0.63282   0.26447   0.93548   0.00000  Uiso   1.00
H489   H     0.33363   0.25887   0.51469   0.00000  Uiso   1.00
H490   H     0.39055   0.14070   0.54943   0.00000  Uiso   1.00
H491   H     0.64931   0.11438   0.99405   0.00000  Uiso   1.00
H492   H     0.55677   0.23919   0.88216   0.00000  Uiso   1.00
H493   H     0.56225   0.01266   0.76643   0.00000  Uiso   1.00
H494   H     0.40712   0.00366   0.70608   0.00000  Uiso   1.00
N495   N     0.64908   0.18074   0.76416   0.00000  Uiso   1.00
N496   N     0.35092   0.15259   0.73584   0.00000  Uiso   1.00
O497   O     0.46131   0.23807   0.74633   0.00000  Uiso   1.00
O498   O     0.46674   0.11136   0.57779   0.00000  Uiso   1.00
O499   O     0.56191   0.24755   0.75586   0.00000  Uiso   1.00
O500   O     0.42515   0.15960   0.81839   0.00000  Uiso   1.00
O501   O     0.52575   0.16908   0.82793   0.00000  Uiso   1.00
O502   O     0.43809   0.08578   0.74414   0.00000  Uiso   1.00
O503   O     0.53869   0.09526   0.75367   0.00000  Uiso   1.00
O504   O     0.47425   0.16425   0.67207   0.00000  Uiso   1.00
O505   O     0.57485   0.17373   0.68160   0.00000  Uiso   1.00
O506   O     0.43040   0.31403   0.71826   0.00000  Uiso   1.00
C507   C     0.84845   0.26669   0.75095   0.00000  Uiso   1.00
C508   C     0.77873   0.16537   0.90364   0.00000  Uiso   1.00
C509   C     0.85544   0.32250   0.75246   0.00000  Uiso   1.00
C510   C     0.79973   0.16594   0.84733   0.00000  Uiso   1.00
C511   C     0.81259   0.01086   0.73901   0.00000  Uiso   1.00
C512   C     0.81916   0.06675   0.74590   0.00000  Uiso   1.00
C513   C     0.86726   0.16974   0.65287   0.00000  Uiso   1.00
C514   C     0.95636   0.23135   0.52887   0.00000  Uiso   1.00
C515   C     0.88810   0.17756   0.59753   0.00000  Uiso   1.00
C516   C     0.71661   0.14019   0.92511   0.00000  Uiso   1.00
C517   C     0.69787   0.13232   0.97757   0.00000  Uiso   1.00
C518   C     0.80546   0.16948   0.98813   0.00000  Uiso   1.00
C519   C     0.74169   0.14617   0.50881   0.00000  Uiso   1.00
C520   C     0.82160   0.18498   0.93629   0.00000  Uiso   1.00
C521   C     0.85290   0.18070   0.51791   0.00000  Uiso   1.00
C522   C     0.91085   0.21616   0.99880   0.00000  Uiso   1.00
C523   C     0.92264   0.23659   0.95002   0.00000  Uiso   1.00
C524   C     0.87912   0.22087   0.91899   0.00000  Uiso   1.00
C525   C     0.84576   0.15669   0.56519   0.00000  Uiso   1.00
C526   C     0.94413   0.21350   0.57859   0.00000  Uiso   1.00
Cu527  Cu    0.77377   0.16105   0.74435   0.00000  Uiso   1.00
Cu528  Cu    0.89290   0.17228   0.75564   0.00000  Uiso   1.00
H529   H     0.97734   0.22930   0.60284   0.00000  Uiso   1.00
H530   H     0.99634   0.12746   0.71036   0.00000  Uiso   1.00
H531   H     0.81133   0.09224   0.60385   0.00000  Uiso   1.00
H532   H     0.68256   0.12600   0.90123   0.00000  Uiso   1.00
H533   H     0.67032   0.20586   0.78966   0.00000  Uiso   1.00
H534   H     0.96615   0.26447   0.93548   0.00000  Uiso   1.00
H535   H     0.66696   0.25887   0.51469   0.00000  Uiso   1.00
H536   H     0.72388   0.14070   0.54943   0.00000  Uiso   1.00
H537   H     0.98265   0.11438   0.99405   0.00000  Uiso   1.00
H538   H     0.89010   0.23919   0.88216   0.00000  Uiso   1.00
H539   H     0.89558   0.01266   0.76643   0.00000  Uiso   1.00
H540   H     0.74046   0.00366   0.70608   0.00000  Uiso   1.00
N541   N     0.98241   0.18074   0.76416   0.00000  Uiso   1.00
N542   N     0.68426   0.15259   0.73584   0.00000  Uiso   1.00
O543   O     0.79464   0.23807   0.74633   0.00000  Uiso   1.00
O544   O     0.80008   0.11136   0.57779   0.00000  Uiso   1.00
O545   O     0.89524   0.24755   0.75586   0.00000  Uiso   1.00
O546   O     0.75848   0.15960   0.81839   0.00000  Uiso   1.00
O547   O     0.85908   0.16908   0.82793   0.00000  Uiso   1.00
O548   O     0.77142   0.08578   0.74414   0.00000  Uiso   1.00
O549   O     0.87203   0.09526   0.75367   0.00000  Uiso   1.00
O550   O     0.80758   0.16425   0.67207   0.00000  Uiso   1.00
O551   O     0.90819   0.17373   0.68160   0.00000  Uiso   1.00
O552   O     0.76373   0.31403   0.71826   0.00000  Uiso   1.00
C553   C     0.18178   0.60003   0.75095   0.00000  Uiso   1.00
C554   C     0.11207   0.49871   0.90364   0.00000  Uiso   1.00
C555   C     0.18877   0.65583   0.75246   0.00000  Uiso   1.00
C556   C     0.13306   0.49927   0.84733   0.00000  Uiso   1.00
C557   C     0.14593   0.34420   0.73901   0.00000  Uiso   1.00
C558   C     0.15250   0.40008   0.74590   0.00000  Uiso   1.00
C559   C     0.20059   0.50307   0.65287   0.00000  Uiso   1.00
C560   C     0.28969   0.56468   0.52887   0.00000  Uiso   1.00
C561   C     0.22143   0.51089   0.59753   0.00000  Uiso   1.00
C562   C     0.04994   0.47352   0.92511   0.00000  Uiso   1.00
C563   C     0.03120   0.46566   0.97757   0.00000  Uiso   1.00
C564   C     0.13880   0.50281   0.98813   0.00000  Uiso   1.00
C565   C     0.07502   0.47951   0.50881   0.00000  Uiso   1.00
C566   C     0.15493   0.51831   0.93629   0.00000  Uiso   1.00
C567   C     0.18624   0.51403   0.51791   0.00000  Uiso   1.00
C568   C     0.24419   0.54949   0.99880   0.00000  Uiso   1.00
C569   C     0.25598   0.56993   0.95002   0.00000  Uiso   1.00
C570   C     0.21246   0.55421   0.91899   0.00000  Uiso   1.00
C571   C     0.17909   0.49003   0.56519   0.00000  Uiso   1.00
C572   C     0.27747   0.54684   0.57859   0.00000  Uiso   1.00
Cu573  Cu    0.10710   0.49439   0.74435   0.00000  Uiso   1.00
Cu574  Cu    0.22623   0.50561   0.75564   0.00000  Uiso   1.00
H575   H     0.31067   0.56264   0.60284   0.00000  Uiso   1.00
H576   H     0.32967   0.46080   0.71036   0.00000  Uiso   1.00
H577   H     0.14467   0.42557   0.60385   0.00000  Uiso   1.00
H578   H     0.01589   0.45934   0.90123   0.00000  Uiso   1.00
H579   H     0.00365   0.53920   0.78966   0.00000  Uiso   1.00
H580   H     0.29949   0.59781   0.93548   0.00000  Uiso   1.00
H581   H     0.00029   0.59220   0.51469   0.00000  Uiso   1.00
H582   H     0.05721   0.47403   0.54943   0.00000  Uiso   1.00
H583   H     0.31598   0.44771   0.99405   0.00000  Uiso   1.00
H584   H     0.22343   0.57253   0.88216   0.00000  Uiso   1.00
H585   H     0.22891   0.34600   0.76643   0.00000  Uiso   1.00
H586   H     0.07379   0.33699   0.70608   0.00000  Uiso   1.00
N587   N     0.31574   0.51407   0.76416   0.00000  Uiso   1.00
N588   N     0.01759   0.48593   0.73584   0.00000  Uiso   1.00
O589   O     0.12797   0.57141   0.74633   0.00000  Uiso   1.00
O590   O     0.13341   0.44469   0.57779   0.00000  Uiso   1.00
O591   O     0.22858   0.58089   0.75586   0.00000  Uiso   1.00
O592   O     0.09181   0.49293   0.81839   0.00000  Uiso   1.00
O593   O     0.19242   0.50241   0.82793   0.00000  Uiso   1.00
O594   O     0.10476   0.41911   0.74414   0.00000  Uiso   1.00
O595   O     0.20536   0.42859   0.75367   0.00000  Uiso   1.00
O596   O     0.14092   0.49759   0.67207   0.00000  Uiso   1.00
O597   O     0.24152   0.50707   0.68160   0.00000  Uiso   1.00
O598   O     0.09707   0.64736   0.71826   0.00000  Uiso   1.00
C599   C     0.51512   0.60003   0.75095   0.00000  Uiso   1.00
C600   C     0.44540   0.49871   0.90364   0.00000  Uiso   1.00
C601   C     0.52211   0.65583   0.75246   0.00000  Uiso   1.00
C602   C     0.46640   0.49927   0.84733   0.00000  Uiso   1.00
C603   C     0.47926   0.34420   0.73901   0.00000  Uiso   1.00
C604   C     0.48583   0.40008   0.74590   0.00000  Uiso   1.00
C605   C     0.53393   0.50307   0.65287   0.00000  Uiso   1.00
C606   C     0.62303   0.56468   0.52887   0.00000  Uiso   1.00
C607   C     0.55476   0.51089   0.59753   0.00000  Uiso   1.00
C608   C     0.38328   0.47352   0.92511   0.00000  Uiso   1.00
C609   C     0.36453   0.46566   0.97757   0.00000  Uiso   1.00
C610   C     0.47213   0.50281   0.98813   0.00000  Uiso   1.00
C611   C     0.40835   0.47951   0.50881   0.00000  Uiso   1.00
C612   C     0.48826   0.51831   0.93629   0.00000  Uiso   1.00
C613   C     0.51957   0.51403   0.51791   0.00000  Uiso   1.00
C614   C     0.57752   0.54949   0.99880   0.00000  Uiso   1.00
C615   C     0.58931   0.56993   0.95002   0.00000  Uiso   1.00
C616   C     0.54579   0.55421   0.91899   0.00000  Uiso   1.00
C617   C     0.51243   0.49003   0.56519   0.00000  Uiso   1.00
C618   C     0.61080   0.54684   0.57859   0.00000  Uiso   1.00
Cu619  Cu    0.44043   0.49439   0.74435   0.00000  Uiso   1.00
Cu620  Cu    0.55957   0.50561   0.75564   0.00000  Uiso   1.00
H621   H     0.64400   0.56264   0.60284   0.00000  Uiso   1.00
H622   H     0.66300   0.46080   0.71036   0.00000  Uiso   1.00
H623   H     0.47800   0.42557   0.60385   0.00000  Uiso   1.00
H624   H     0.34923   0.45934   0.90123   0.00000  Uiso   1.00
H625   H     0.33698   0.53920   0.78966   0.00000  Uiso   1.00
H626   H     0.63282   0.59781   0.93548   0.00000  Uiso   1.00
H627   H     0.33363   0.59220   0.51469   0.00000  Uiso   1.00
H628   H     0.39055   0.47403   0.54943   0.00000  Uiso   1.00
H629   H     0.64931   0.44771   0.99405   0.00000  Uiso   1.00
H630   H     0.55677   0.57253   0.88216   0.00000  Uiso   1.00
H631   H     0.56225   0.34600   0.76643   0.00000  Uiso   1.00
H632   H     0.40712   0.33699   0.70608   0.00000  Uiso   1.00
N633   N     0.64908   0.51407   0.76416   0.00000  Uiso   1.00
N634   N     0.35092   0.48593   0.73584   0.00000  Uiso   1.00
O635   O     0.46131   0.57141   0.74633   0.00000  Uiso   1.00
O636   O     0.46674   0.44469   0.57779   0.00000  Uiso   1.00
O637   O     0.56191   0.58089   0.75586   0.00000  Uiso   1.00
O638   O     0.42515   0.49293   0.81839   0.00000  Uiso   1.00
O639   O     0.52575   0.50241   0.82793   0.00000  Uiso   1.00
O640   O     0.43809   0.41911   0.74414   0.00000  Uiso   1.00
O641   O     0.53869   0.42859   0.75367   0.00000  Uiso   1.00
O642   O     0.47425   0.49759   0.67207   0.00000  Uiso   1.00
O643   O     0.57485   0.50707   0.68160   0.00000  Uiso   1.00
O644   O     0.43040   0.64736   0.71826   0.00000  Uiso   1.00
C645   C     0.84845   0.60003   0.75095   0.00000  Uiso   1.00
C646   C     0.77873   0.49871   0.90364   0.00000  Uiso   1.00
C647   C     0.85544   0.65583   0.75246   0.00000  Uiso   1.00
C648   C     0.79973   0.49927   0.84733   0.00000  Uiso   1.00
C649   C     0.81259   0.34420   0.73901   0.00000  Uiso   1.00
C650   C     0.81916   0.40008   0.74590   0.00000  Uiso   1.00
C651   C     0.86726   0.50307   0.65287   0.00000  Uiso   1.00
C652   C     0.95636   0.56468   0.52887   0.00000  Uiso   1.00
C653   C     0.88810   0.51089   0.59753   0.00000  Uiso   1.00
C654   C     0.71661   0.47352   0.92511   0.00000  Uiso   1.00
C655   C     0.69787   0.46566   0.97757   0.00000  Uiso   1.00
C656   C     0.80546   0.50281   0.98813   0.00000  Uiso   1.00
C657   C     0.74169   0.47951   0.50881   0.00000  Uiso   1.00
C658   C     0.82160   0.51831   0.93629   0.00000  Uiso   1.00
C659   C     0.85290   0.51403   0.51791   0.00000  Uiso   1.00
C660   C     0.91085   0.54949   0.99880   0.00000  Uiso   1.00
C661   C     0.92264   0.56993   0.95002   0.00000  Uiso   1.00
C662   C     0.87912   0.55421   0.91899   0.00000  Uiso   1.00
C663   C     0.84576   0.49003   0.56519   0.00000  Uiso   1.00
C664   C     0.94413   0.54684   0.57859   0.00000  Uiso   1.00
Cu665  Cu    0.77377   0.49439   0.74435   0.00000  Uiso   1.00
Cu666  Cu    0.89290   0.50561   0.75564   0.00000  Uiso   1.00
H667   H     0.97734   0.56264   0.60284   0.00000  Uiso   1.00
H668   H     0.99634   0.46080   0.71036   0.00000  Uiso   1.00
H669   H     0.81133   0.42557   0.60385   0.00000  Uiso   1.00
H670   H     0.68256   0.45934   0.90123   0.00000  Uiso   1.00
H671   H     0.67032   0.53920   0.78966   0.00000  Uiso   1.00
H672   H     0.96615   0.59781   0.93548   0.00000  Uiso   1.00
H673   H     0.66696   0.59220   0.51469   0.00000  Uiso   1.00
H674   H     0.72388   0.47403   0.54943   0.00000  Uiso   1.00
H675   H     0.98265   0.44771   0.99405   0.00000  Uiso   1.00
H676   H     0.89010   0.57253   0.88216   0.00000  Uiso   1.00
H677   H     0.89558   0.34600   0.76643   0.00000  Uiso   1.00
H678   H     0.74046   0.33699   0.70608   0.00000  Uiso   1.00
N679   N     0.98241   0.51407   0.76416   0.00000  Uiso   1.00
N680   N     0.68426   0.48593   0.73584   0.00000  Uiso   1.00
O681   O     0.79464   0.57141   0.74633   0.00000  Uiso   1.00
O682   O     0.80008   0.44469   0.57779   0.00000  Uiso   1.00
O683   O     0.89524   0.58089   0.75586   0.00000  Uiso   1.00
O684   O     0.75848   0.49293   0.81839   0.00000  Uiso   1.00
O685   O     0.85908   0.50241   0.82793   0.00000  Uiso   1.00
O686   O     0.77142   0.41911   0.74414   0.00000  Uiso   1.00
O687   O     0.87203   0.42859   0.75367   0.00000  Uiso   1.00
O688   O     0.80758   0.49759   0.67207   0.00000  Uiso   1.00
O689   O     0.90819   0.50707   0.68160   0.00000  Uiso   1.00
O690   O     0.76373   0.64736   0.71826   0.00000  Uiso   1.00
C691   C     0.18178   0.93336   0.75095   0.00000  Uiso   1.00
C692   C     0.11207   0.83204   0.90364   0.00000  Uiso   1.00
C693   C     0.18877   0.98916   0.75246   0.00000  Uiso   1.00
C694   C     0.13306   0.83260   0.84733   0.00000  Uiso   1.00
C695   C     0.14593   0.67753   0.73901   0.00000  Uiso   1.00
C696   C     0.15250   0.73342   0.74590   0.00000  Uiso   1.00
C697   C     0.20059   0.83641   0.65287   0.00000  Uiso   1.00
C698   C     0.28969   0.89802   0.52887   0.00000  Uiso   1.00
C699   C     0.22143   0.84422   0.59753   0.00000  Uiso   1.00
C700   C     0.04994   0.80686   0.92511   0.00000  Uiso   1.00
C701   C     0.03120   0.79899   0.97757   0.00000  Uiso   1.00
C702   C     0.13880   0.83615   0.98813   0.00000  Uiso   1.00
C703   C     0.07502   0.81284   0.50881   0.00000  Uiso   1.00
C704   C     0.15493   0.85164   0.93629   0.00000  Uiso   1.00
C705   C     0.18624   0.84736   0.51791   0.00000  Uiso   1.00
C706   C     0.24419   0.88283   0.99880   0.00000  Uiso   1.00
C707   C     0.25598   0.90326   0.95002   0.00000  Uiso   1.00
C708   C     0.21246   0.88754   0.91899   0.00000  Uiso   1.00
C709   C     0.17909   0.82336   0.56519   0.00000  Uiso   1.00
C710   C     0.27747   0.88017   0.57859   0.00000  Uiso   1.00
Cu711  Cu    0.10710   0.82772   0.74435   0.00000  Uiso   1.00
Cu712  Cu    0.22623   0.83895   0.75564   0.00000  Uiso   1.00
H713   H     0.31067   0.89597   0.60284   0.00000  Uiso   1.00
H714   H     0.32967   0.79413   0.71036   0.00000  Uiso   1.00
H715   H     0.14467   0.75890   0.60385   0.00000  Uiso   1.00
H716   H     0.01589   0.79267   0.90123   0.00000  Uiso   1.00
H717   H     0.00365   0.87253   0.78966   0.00000  Uiso   1.00
H718   H     0.29949   0.93114   0.93548   0.00000  Uiso   1.00
H719   H     0.00029   0.92554   0.51469   0.00000  Uiso   1.00
H720   H     0.05721   0.80737   0.54943   0.00000  Uiso   1.00
H721   H     0.31598   0.78104   0.99405   0.00000  Uiso   1.00
H722   H     0.22343   0.90586   0.88216   0.00000  Uiso   1.00
H723   H     0.22891   0.67933   0.76643   0.00000  Uiso   1.00
H724   H     0.07379   0.67032   0.70608   0.00000  Uiso   1.00
N725   N     0.31574   0.84741   0.76416   0.00000  Uiso   1.00
N726   N     0.01759   0.81926   0.73584   0.00000  Uiso   1.00
O727   O     0.12797   0.90474   0.74633   0.00000  Uiso   1.00
O728   O     0.13341   0.77802   0.57779   0.00000  Uiso   1.00
O729   O     0.22858   0.91422   0.75586   0.00000  Uiso   1.00
O730   O     0.09181   0.82627   0.81839   0.00000  Uiso   1.00
O731   O     0.19242   0.83575   0.82793   0.00000  Uiso   1.00
O732   O     0.10476   0.75245   0.74414   0.00000  Uiso   1.00
O733   O     0.20536   0.76193   0.75367   0.00000  Uiso   1.00
O734   O     0.14092   0.83092   0.67207   0.00000  Uiso   1.00
O735   O     0.24152   0.84040   0.68160   0.00000  Uiso   1.00
O736   O     0.09707   0.98069   0.71826   0.00000  Uiso   1.00
C737   C     0.51512   0.93336   0.75095   0.00000  Uiso   1.00
C738   C     0.44540   0.83204   0.90364   0.00000  Uiso   1.00
C739   C     0.52211   0.98916   0.75246   0.00000  Uiso   1.00
C740   C     0.46640   0.83260   0.84733   0.00000  Uiso   1.00
C741   C     0.47926   0.67753   0.73901   0.00000  Uiso   1.00
C742   C     0.48583   0.73342   0.74590   0.00000  Uiso   1.00
C743   C     0.53393   0.83641   0.65287   0.00000  Uiso   1.00
C744   C     0.62303   0.89802   0.52887   0.00000  Uiso   1.00
C745   C     0.55476   0.84422   0.59753   0.00000  Uiso   1.00
C746   C     0.38328   0.80686   0.92511   0.00000  Uiso   1.00
C747   C     0.36453   0.79899   0.97757   0.00000  Uiso   1.00
C748   C     0.47213   0.83615   0.98813   0.00000  Uiso   1.00
C749   C     0.40835   0.81284   0.50881   0.00000  Uiso   1.00
C750   C     0.48826   0.85164   0.93629   0.00000  Uiso   1.00
C751   C     0.51957   0.84736   0.51791   0.00000  Uiso   1.00
C752   C     0.57752   0.88283   0.99880   0.00000  Uiso   1.00
C753   C     0.58931   0.90326   0.95002   0.00000  Uiso   1.00
C754   C     0.54579   0.88754   0.91899   0.00000  Uiso   1.00
C755   C     0.51243   0.82336   0.56519   0.00000  Uiso   1.00
C756   C     0.61080   0.88017   0.57859   0.00000  Uiso   1.00
Cu757  Cu    0.44043   0.82772   0.74435   0.00000  Uiso   1.00
Cu758  Cu    0.55957   0.83895   0.75564   0.00000  Uiso   1.00
H759   H     0.64400   0.89597   0.60284   0.00000  Uiso   1.00
H760   H     0.66300   0.79413   0.71036   0.00000  Uiso   1.00
H761   H     0.47800   0.75890   0.60385   0.00000  Uiso   1.00
H762   H     0.34923   0.79267   0.90123   0.00000  Uiso   1.00
H763   H     0.33698   0.87253   0.78966   0.00000  Uiso   1.00
H764   H     0.63282   0.93114   0.93548   0.00000  Uiso   1.00
H765   H     0.33363   0.92554   0.51469   0.00000  Uiso   1.00
H766   H     0.39055   0.80737   0.54943   0.00000  Uiso   1.00
H767   H     0.64931   0.78104   0.99405   0.00000  Uiso   1.00
H768   H     0.55677   0.90586   0.88216   0.00000  Uiso   1.00
H769   H     0.56225   0.67933   0.76643   0.00000  Uiso   1.00
H770   H     0.40712   0.67032   0.70608   0.00000  Uiso   1.00
N771   N     0.64908   0.84741   0.76416   0.00000  Uiso   1.00
N772   N     0.35092   0.81926   0.73584   0.00000  Uiso   1.00
O773   O     0.46131   0.90474   0.74633   0.00000  Uiso   1.00
O774   O     0.46674   0.77802   0.57779   0.00000  Uiso   1.00
O775   O     0.56191   0.91422   0.75586   0.00000  Uiso   1.00
O776   O     0.42515   0.82627   0.81839   0.00000  Uiso   1.00
O777   O     0.52575   0.83575   0.82793   0.00000  Uiso   1.00
O778   O     0.43809   0.75245   0.74414   0.00000  Uiso   1.00
O779   O     0.53869   0.76193   0.75367   0.00000  Uiso   1.00
O780   O     0.47425   0.83092   0.67207   0.00000  Uiso   1.00
O781   O     0.57485   0.84040   0.68160   0.00000  Uiso   1.00
O782   O     0.43040   0.98069   0.71826   0.00000  Uiso   1.00
C783   C     0.84845   0.93336   0.75095   0.00000  Uiso   1.00
C784   C     0.77873   0.83204   0.90364   0.00000  Uiso   1.00
C785   C     0.85544   0.98916   0.75246   0.00000  Uiso   1.00
C786   C     0.79973   0.83260   0.84733   0.00000  Uiso   1.00
C787   C     0.81259   0.67753   0.73901   0.00000  Uiso   1.00
C788   C     0.81916   0.73342   0.74590   0.00000  Uiso   1.00
C789   C     0.86726   0.83641   0.65287   0.00000  Uiso   1.00
C790   C     0.95636   0.89802   0.52887   0.00000  Uiso   1.00
C791   C     0.88810   0.84422   0.59753   0.00000  Uiso   1.00
C792   C     0.71661   0.80686   0.92511   0.00000  Uiso   1.00
C793   C     0.69787   0.79899   0.97757   0.00000  Uiso   1.00
C794   C     0.80546   0.83615   0.98813   0.00000  Uiso   1.00
C795   C     0.74169   0.81284   0.50881   0.00000  Uiso   1.00
C796   C     0.82160   0.85164   0.93629   0.00000  Uiso   1.00
C797   C     0.85290   0.84736   0.51791   0.00000  Uiso   1.00
C798   C     0.91085   0.88283   0.99880   0.00000  Uiso   1.00
C799   C     0.92264   0.90326   0.95002   0.00000  Uiso   1.00
C800   C     0.87912   0.88754   0.91899   0.00000  Uiso   1.00
C801   C     0.84576   0.82336   0.56519   0.00000  Uiso   1.00
C802   C     0.94413   0.88017   0.57859   0.00000  Uiso   1.00
Cu803  Cu    0.77377   0.82772   0.74435   0.00000  Uiso   1.00
Cu804  Cu    0.89290   0.83895   0.75564   0.00000  Uiso   1.00
H805   H     0.97734   0.89597   0.60284   0.00000  Uiso   1.00
H806   H     0.99634   0.79413   0.71036   0.00000  Uiso   1.00
H807   H     0.81133   0.75890   0.60385   0.00000  Uiso   1.00
H808   H     0.68256   0.79267   0.90123   0.00000  Uiso   1.00
H809   H     0.67032   0.87253   0.78966   0.00000  Uiso   1.00
H810   H     0.96615   0.93114   0.93548   0.00000  Uiso   1.00
H811   H     0.66696   0.92554   0.51469   0.00000  Uiso   1.00
H812   H     0.72388   0.80737   0.54943   0.00000  Uiso   1.00
H813   H     0.98265   0.78104   0.99405   0.00000  Uiso   1.00
H814   H     0.89010   0.90586   0.88216   0.00000  Uiso   1.00
H815   H     0.89558   0.67933   0.76643   0.00000  Uiso   1.00
H816   H     0.74046   0.67032   0.70608   0.00000  Uiso   1.00
N817   N     0.98241   0.84741   0.76416   0.00000  Uiso   1.00
N818   N     0.68426   0.81926   0.73584   0.00000  Uiso   1.00
O819   O     0.79464   0.90474   0.74633   0.00000  Uiso   1.00
O820   O     0.80008   0.77802   0.57779   0.00000  Uiso   1.00
O821   O     0.89524   0.91422   0.75586   0.00000  Uiso   1.00
O822   O     0.75848   0.82627   0.81839   0.00000  Uiso   1.00
O823   O     0.85908   0.83575   0.82793   0.00000  Uiso   1.00
O824   O     0.77142   0.75245   0.74414   0.00000  Uiso   1.00
O825   O     0.87203   0.76193   0.75367   0.00000  Uiso   1.00
O826   O     0.80758   0.83092   0.67207   0.00000  Uiso   1.00
O827   O     0.90819   0.84040   0.68160   0.00000  Uiso   1.00
O828   O     0.76373   0.98069   0.71826   0.00000  Uiso   1.00
loop_
_geom_bond_atom_site_label_1
_geom_bond_atom_site_label_2
_geom_bond_distance
_geom_bond_site_symmetry_2
_ccdc_geom_bond_type
C1     O37     1.287   .     A
C1     O39     1.289   .     A
C1     C3      1.432   .     S
C2     C4      1.476   .     S
C2     C14     1.421   .     A
C2     C10     1.403   .     A
C3     C143    1.338   .     S
C3     H171    1.088   .     S
C4     O41     1.295   .     A
C4     O40     1.303   .     A
C5     C6      1.440   .     S
C5     C279    1.338   1_545 S
C5     O322    1.389   1_545 S
C6     O43     1.294   .     A
C6     O42     1.283   .     A
C7     O45     1.299   .     A
C7     C9      1.464   .     S
C7     O44     1.294   .     A
C8     C20     1.390   .     A
C8     C430    1.401   1_554 S
C8     H75     1.084   .     S
C9     C20     1.398   .     A
C9     C19     1.413   .     A
C10    H26     1.083   .     S
C10    C11     1.389   .     A
C11    C427    1.392   .     S
C11    H123    1.083   1_455 S
C12    C14     1.418   .     A
C12    C427    1.415   .     S
C12    C429    1.426   .     S
C13    H30     1.079   .     S
C13    C426    1.415   1_554 S
C13    C425    1.392   1_554 S
C14    C18     1.411   .     A
C15    C19     1.414   .     A
C15    C426    1.426   1_554 S
C15    C430    1.421   1_554 S
C16    C17     1.393   .     A
C16    C429    1.421   .     S
C16    C422    1.401   .     S
C17    C18     1.387   .     A
C17    H28     1.084   .     S
C18    H32     1.081   .     S
C19    O38     1.383   .     S
C20    H23     1.083   .     S
Cu21   O44     1.914   .     S
Cu21   N36     2.017   .     S
Cu21   Cu22    2.684   .     S
Cu21   O40     1.936   .     S
Cu21   O42     1.959   .     S
Cu21   O37     1.963   .     S
Cu22   N35     2.017   .     S
Cu22   O41     1.914   .     S
Cu22   O45     1.936   .     S
Cu22   O39     1.959   .     S
Cu22   O43     1.963   .     S
H24    N82     1.029   .     S
H25    O38     0.991   .     S
H27    N127    1.029   1_455 S
H29    C100    1.084   1_455 S
H31    C57     1.083   .     S
H33    C279    1.088   1_545 S
H34    O322    0.990   1_545 S
N35    H73     1.029   .     S
N35    N82     1.285   .     S
N36    N127    1.285   1_455 S
N36    H116    1.029   1_455 S
O46    C143    1.389   .     S
O46    H172    0.990   .     S
C47    O83     1.287   .     A
C47    O85     1.289   .     A
C47    C49     1.432   .     S
C48    C50     1.476   .     S
C48    C60     1.421   .     A
C48    C56     1.403   .     A
C49    C189    1.338   .     S
C49    H217    1.088   .     S
C50    O87     1.295   .     A
C50    O86     1.303   .     A
C51    C52     1.440   .     S
C51    C325    1.338   1_545 S
C51    O368    1.389   1_545 S
C52    O89     1.294   .     A
C52    O88     1.283   .     A
C53    O91     1.299   .     A
C53    C55     1.464   .     S
C53    O90     1.294   .     A
C54    C66     1.390   .     A
C54    C476    1.401   1_554 S
C54    H121    1.084   .     S
C55    C66     1.398   .     A
C55    C65     1.413   .     A
C56    H72     1.083   .     S
C56    C57     1.389   .     A
C57    C473    1.392   .     S
C58    C60     1.418   .     A
C58    C473    1.415   .     S
C58    C475    1.426   .     S
C59    H76     1.079   .     S
C59    C472    1.415   1_554 S
C59    C471    1.392   1_554 S
C60    C64     1.411   .     A
C61    C65     1.414   .     A
C61    C472    1.426   1_554 S
C61    C476    1.421   1_554 S
C62    C63     1.393   .     A
C62    C475    1.421   .     S
C62    C468    1.401   .     S
C63    C64     1.387   .     A
C63    H74     1.084   .     S
C64    H78     1.081   .     S
C65    O84     1.383   .     S
C66    H69     1.083   .     S
Cu67   O90     1.914   .     S
Cu67   N82     2.017   .     S
Cu67   Cu68    2.684   .     S
Cu67   O86     1.936   .     S
Cu67   O88     1.959   .     S
Cu67   O83     1.963   .     S
Cu68   N81     2.017   .     S
Cu68   O87     1.914   .     S
Cu68   O91     1.936   .     S
Cu68   O85     1.959   .     S
Cu68   O89     1.963   .     S
H70    N128    1.029   .     S
H71    O84     0.991   .     S
H77    C103    1.083   .     S
H79    C325    1.088   1_545 S
H80    O368    0.990   1_545 S
N81    H119    1.029   .     S
N81    N128    1.285   .     S
O92    C189    1.389   .     S
O92    H218    0.990   .     S
C93    O129    1.287   .     A
C93    O131    1.289   .     A
C93    C95     1.432   .     S
C94    C96     1.476   .     S
C94    C106    1.421   .     A
C94    C102    1.403   .     A
C95    C235    1.338   .     S
C95    H263    1.088   .     S
C96    O133    1.295   .     A
C96    O132    1.303   .     A
C97    C98     1.440   .     S
C97    C371    1.338   1_545 S
C97    O414    1.389   1_545 S
C98    O135    1.294   .     A
C98    O134    1.283   .     A
C99    O137    1.299   .     A
C99    C101    1.464   .     S
C99    O136    1.294   .     A
C100   C112    1.390   .     A
C100   C522    1.401   1_554 S
C100   H29     1.084   1_655 S
C101   C112    1.398   .     A
C101   C111    1.413   .     A
C102   H118    1.083   .     S
C102   C103    1.389   .     A
C103   C519    1.392   .     S
C104   C106    1.418   .     A
C104   C519    1.415   .     S
C104   C521    1.426   .     S
C105   H122    1.079   .     S
C105   C518    1.415   1_554 S
C105   C517    1.392   1_554 S
C106   C110    1.411   .     A
C107   C111    1.414   .     A
C107   C518    1.426   1_554 S
C107   C522    1.421   1_554 S
C108   C109    1.393   .     A
C108   C521    1.421   .     S
C108   C514    1.401   .     S
C109   C110    1.387   .     A
C109   H120    1.084   .     S
C110   H124    1.081   .     S
C111   O130    1.383   .     S
C112   H115    1.083   .     S
Cu113  O136    1.914   .     S
Cu113  N128    2.017   .     S
Cu113  Cu114   2.684   .     S
Cu113  O132    1.936   .     S
Cu113  O134    1.959   .     S
Cu113  O129    1.963   .     S
Cu114  N127    2.017   .     S
Cu114  O133    1.914   .     S
Cu114  O137    1.936   .     S
Cu114  O131    1.959   .     S
Cu114  O135    1.963   .     S
H116   N36     1.029   1_655 S
H117   O130    0.991   .     S
H123   C11     1.083   1_655 S
H125   C371    1.088   1_545 S
H126   O414    0.990   1_545 S
N127   H27     1.029   1_655 S
N127   N36     1.285   1_655 S
O138   C235    1.389   .     S
O138   H264    0.990   .     S
C139   O175    1.287   .     A
C139   O177    1.289   .     A
C139   C141    1.432   .     S
C140   C142    1.476   .     S
C140   C152    1.421   .     A
C140   C148    1.403   .     A
C141   C281    1.338   .     S
C141   H309    1.088   .     S
C142   O179    1.295   .     A
C142   O178    1.303   .     A
C143   C144    1.440   .     S
C144   O181    1.294   .     A
C144   O180    1.283   .     A
C145   O183    1.299   .     A
C145   C147    1.464   .     S
C145   O182    1.294   .     A
C146   C158    1.390   .     A
C146   C568    1.401   1_554 S
C146   H213    1.084   .     S
C147   C158    1.398   .     A
C147   C157    1.413   .     A
C148   H164    1.083   .     S
C148   C149    1.389   .     A
C149   C565    1.392   .     S
C149   H261    1.083   1_455 S
C150   C152    1.418   .     A
C150   C565    1.415   .     S
C150   C567    1.426   .     S
C151   H168    1.079   .     S
C151   C564    1.415   1_554 S
C151   C563    1.392   1_554 S
C152   C156    1.411   .     A
C153   C157    1.414   .     A
C153   C564    1.426   1_554 S
C153   C568    1.421   1_554 S
C154   C155    1.393   .     A
C154   C567    1.421   .     S
C154   C560    1.401   .     S
C155   C156    1.387   .     A
C155   H166    1.084   .     S
C156   H170    1.081   .     S
C157   O176    1.383   .     S
C158   H161    1.083   .     S
Cu159  O182    1.914   .     S
Cu159  N174    2.017   .     S
Cu159  Cu160   2.684   .     S
Cu159  O178    1.936   .     S
Cu159  O180    1.959   .     S
Cu159  O175    1.963   .     S
Cu160  N173    2.017   .     S
Cu160  O179    1.914   .     S
Cu160  O183    1.936   .     S
Cu160  O177    1.959   .     S
Cu160  O181    1.963   .     S
H162   N220    1.029   .     S
H163   O176    0.991   .     S
H165   N265    1.029   1_455 S
H167   C238    1.084   1_455 S
H169   C195    1.083   .     S
N173   H211    1.029   .     S
N173   N220    1.285   .     S
N174   N265    1.285   1_455 S
N174   H254    1.029   1_455 S
O184   C281    1.389   .     S
O184   H310    0.990   .     S
C185   O221    1.287   .     A
C185   O223    1.289   .     A
C185   C187    1.432   .     S
C186   C188    1.476   .     S
C186   C198    1.421   .     A
C186   C194    1.403   .     A
C187   C327    1.338   .     S
C187   H355    1.088   .     S
C188   O225    1.295   .     A
C188   O224    1.303   .     A
C189   C190    1.440   .     S
C190   O227    1.294   .     A
C190   O226    1.283   .     A
C191   O229    1.299   .     A
C191   C193    1.464   .     S
C191   O228    1.294   .     A
C192   C204    1.390   .     A
C192   C614    1.401   1_554 S
C192   H259    1.084   .     S
C193   C204    1.398   .     A
C193   C203    1.413   .     A
C194   H210    1.083   .     S
C194   C195    1.389   .     A
C195   C611    1.392   .     S
C196   C198    1.418   .     A
C196   C611    1.415   .     S
C196   C613    1.426   .     S
C197   H214    1.079   .     S
C197   C610    1.415   1_554 S
C197   C609    1.392   1_554 S
C198   C202    1.411   .     A
C199   C203    1.414   .     A
C199   C610    1.426   1_554 S
C199   C614    1.421   1_554 S
C200   C201    1.393   .     A
C200   C613    1.421   .     S
C200   C606    1.401   .     S
C201   C202    1.387   .     A
C201   H212    1.084   .     S
C202   H216    1.081   .     S
C203   O222    1.383   .     S
C204   H207    1.083   .     S
Cu205  O228    1.914   .     S
Cu205  N220    2.017   .     S
Cu205  Cu206   2.684   .     S
Cu205  O224    1.936   .     S
Cu205  O226    1.959   .     S
Cu205  O221    1.963   .     S
Cu206  N219    2.017   .     S
Cu206  O225    1.914   .     S
Cu206  O229    1.936   .     S
Cu206  O223    1.959   .     S
Cu206  O227    1.963   .     S
H208   N266    1.029   .     S
H209   O222    0.991   .     S
H215   C241    1.083   .     S
N219   H257    1.029   .     S
N219   N266    1.285   .     S
O230   C327    1.389   .     S
O230   H356    0.990   .     S
C231   O267    1.287   .     A
C231   O269    1.289   .     A
C231   C233    1.432   .     S
C232   C234    1.476   .     S
C232   C244    1.421   .     A
C232   C240    1.403   .     A
C233   C373    1.338   .     S
C233   H401    1.088   .     S
C234   O271    1.295   .     A
C234   O270    1.303   .     A
C235   C236    1.440   .     S
C236   O273    1.294   .     A
C236   O272    1.283   .     A
C237   O275    1.299   .     A
C237   C239    1.464   .     S
C237   O274    1.294   .     A
C238   C250    1.390   .     A
C238   C660    1.401   1_554 S
C238   H167    1.084   1_655 S
C239   C250    1.398   .     A
C239   C249    1.413   .     A
C240   H256    1.083   .     S
C240   C241    1.389   .     A
C241   C657    1.392   .     S
C242   C244    1.418   .     A
C242   C657    1.415   .     S
C242   C659    1.426   .     S
C243   H260    1.079   .     S
C243   C656    1.415   1_554 S
C243   C655    1.392   1_554 S
C244   C248    1.411   .     A
C245   C249    1.414   .     A
C245   C656    1.426   1_554 S
C245   C660    1.421   1_554 S
C246   C247    1.393   .     A
C246   C659    1.421   .     S
C246   C652    1.401   .     S
C247   C248    1.387   .     A
C247   H258    1.084   .     S
C248   H262    1.081   .     S
C249   O268    1.383   .     S
C250   H253    1.083   .     S
Cu251  O274    1.914   .     S
Cu251  N266    2.017   .     S
Cu251  Cu252   2.684   .     S
Cu251  O270    1.936   .     S
Cu251  O272    1.959   .     S
Cu251  O267    1.963   .     S
Cu252  N265    2.017   .     S
Cu252  O271    1.914   .     S
Cu252  O275    1.936   .     S
Cu252  O269    1.959   .     S
Cu252  O273    1.963   .     S
H254   N174    1.029   1_655 S
H255   O268    0.991   .     S
H261   C149    1.083   1_655 S
N265   H165    1.029   1_655 S
N265   N174    1.285   1_655 S
O276   C373    1.389   .     S
O276   H402    0.990   .     S
C277   O313    1.287   .     A
C277   O315    1.289   .     A
C277   C279    1.432   .     S
C278   C280    1.476   .     S
C278   C290    1.421   .     A
C278   C286    1.403   .     A
C279   C5      1.338   1_565 S
C279   H33     1.088   1_565 S
C280   O317    1.295   .     A
C280   O316    1.303   .     A
C281   C282    1.440   .     S
C282   O319    1.294   .     A
C282   O318    1.283   .     A
C283   O321    1.299   .     A
C283   C285    1.464   .     S
C283   O320    1.294   .     A
C284   C296    1.390   .     A
C284   C706    1.401   1_554 S
C284   H351    1.084   .     S
C285   C296    1.398   .     A
C285   C295    1.413   .     A
C286   H302    1.083   .     S
C286   C287    1.389   .     A
C287   C703    1.392   .     S
C287   H399    1.083   1_455 S
C288   C290    1.418   .     A
C288   C703    1.415   .     S
C288   C705    1.426   .     S
C289   H306    1.079   .     S
C289   C702    1.415   1_554 S
C289   C701    1.392   1_554 S
C290   C294    1.411   .     A
C291   C295    1.414   .     A
C291   C702    1.426   1_554 S
C291   C706    1.421   1_554 S
C292   C293    1.393   .     A
C292   C705    1.421   .     S
C292   C698    1.401   .     S
C293   C294    1.387   .     A
C293   H304    1.084   .     S
C294   H308    1.081   .     S
C295   O314    1.383   .     S
C296   H299    1.083   .     S
Cu297  O320    1.914   .     S
Cu297  N312    2.017   .     S
Cu297  Cu298   2.684   .     S
Cu297  O316    1.936   .     S
Cu297  O318    1.959   .     S
Cu297  O313    1.963   .     S
Cu298  N311    2.017   .     S
Cu298  O317    1.914   .     S
Cu298  O321    1.936   .     S
Cu298  O315    1.959   .     S
Cu298  O319    1.963   .     S
H300   N358    1.029   .     S
H301   O314    0.991   .     S
H303   N403    1.029   1_455 S
H305   C376    1.084   1_455 S
H307   C333    1.083   .     S
N311   H349    1.029   .     S
N311   N358    1.285   .     S
N312   N403    1.285   1_455 S
N312   H392    1.029   1_455 S
O322   C5      1.389   1_565 S
O322   H34     0.990   1_565 S
C323   O359    1.287   .     A
C323   O361    1.289   .     A
C323   C325    1.432   .     S
C324   C326    1.476   .     S
C324   C336    1.421   .     A
C324   C332    1.403   .     A
C325   C51     1.338   1_565 S
C325   H79     1.088   1_565 S
C326   O363    1.295   .     A
C326   O362    1.303   .     A
C327   C328    1.440   .     S
C328   O365    1.294   .     A
C328   O364    1.283   .     A
C329   O367    1.299   .     A
C329   C331    1.464   .     S
C329   O366    1.294   .     A
C330   C342    1.390   .     A
C330   C752    1.401   1_554 S
C330   H397    1.084   .     S
C331   C342    1.398   .     A
C331   C341    1.413   .     A
C332   H348    1.083   .     S
C332   C333    1.389   .     A
C333   C749    1.392   .     S
C334   C336    1.418   .     A
C334   C749    1.415   .     S
C334   C751    1.426   .     S
C335   H352    1.079   .     S
C335   C748    1.415   1_554 S
C335   C747    1.392   1_554 S
C336   C340    1.411   .     A
C337   C341    1.414   .     A
C337   C748    1.426   1_554 S
C337   C752    1.421   1_554 S
C338   C339    1.393   .     A
C338   C751    1.421   .     S
C338   C744    1.401   .     S
C339   C340    1.387   .     A
C339   H350    1.084   .     S
C340   H354    1.081   .     S
C341   O360    1.383   .     S
C342   H345    1.083   .     S
Cu343  O366    1.914   .     S
Cu343  N358    2.017   .     S
Cu343  Cu344   2.684   .     S
Cu343  O362    1.936   .     S
Cu343  O364    1.959   .     S
Cu343  O359    1.963   .     S
Cu344  N357    2.017   .     S
Cu344  O363    1.914   .     S
Cu344  O367    1.936   .     S
Cu344  O361    1.959   .     S
Cu344  O365    1.963   .     S
H346   N404    1.029   .     S
H347   O360    0.991   .     S
H353   C379    1.083   .     S
N357   H395    1.029   .     S
N357   N404    1.285   .     S
O368   C51     1.389   1_565 S
O368   H80     0.990   1_565 S
C369   O405    1.287   .     A
C369   O407    1.289   .     A
C369   C371    1.432   .     S
C370   C372    1.476   .     S
C370   C382    1.421   .     A
C370   C378    1.403   .     A
C371   C97     1.338   1_565 S
C371   H125    1.088   1_565 S
C372   O409    1.295   .     A
C372   O408    1.303   .     A
C373   C374    1.440   .     S
C374   O411    1.294   .     A
C374   O410    1.283   .     A
C375   O413    1.299   .     A
C375   C377    1.464   .     S
C375   O412    1.294   .     A
C376   C388    1.390   .     A
C376   C798    1.401   1_554 S
C376   H305    1.084   1_655 S
C377   C388    1.398   .     A
C377   C387    1.413   .     A
C378   H394    1.083   .     S
C378   C379    1.389   .     A
C379   C795    1.392   .     S
C380   C382    1.418   .     A
C380   C795    1.415   .     S
C380   C797    1.426   .     S
C381   H398    1.079   .     S
C381   C794    1.415   1_554 S
C381   C793    1.392   1_554 S
C382   C386    1.411   .     A
C383   C387    1.414   .     A
C383   C794    1.426   1_554 S
C383   C798    1.421   1_554 S
C384   C385    1.393   .     A
C384   C797    1.421   .     S
C384   C790    1.401   .     S
C385   C386    1.387   .     A
C385   H396    1.084   .     S
C386   H400    1.081   .     S
C387   O406    1.383   .     S
C388   H391    1.083   .     S
Cu389  O412    1.914   .     S
Cu389  N404    2.017   .     S
Cu389  Cu390   2.684   .     S
Cu389  O408    1.936   .     S
Cu389  O410    1.959   .     S
Cu389  O405    1.963   .     S
Cu390  N403    2.017   .     S
Cu390  O409    1.914   .     S
Cu390  O413    1.936   .     S
Cu390  O407    1.959   .     S
Cu390  O411    1.963   .     S
H392   N312    1.029   1_655 S
H393   O406    0.991   .     S
H399   C287    1.083   1_655 S
N403   H303    1.029   1_655 S
N403   N312    1.285   1_655 S
O414   C97     1.389   1_565 S
O414   H126    0.990   1_565 S
C415   O451    1.287   .     A
C415   O453    1.289   .     A
C415   C417    1.432   .     S
C416   C418    1.476   .     S
C416   C428    1.421   .     A
C416   C424    1.403   .     A
C417   C557    1.338   .     S
C417   H585    1.088   .     S
C418   O455    1.295   .     A
C418   O454    1.303   .     A
C419   C420    1.440   .     S
C419   C693    1.338   1_545 S
C419   O736    1.389   1_545 S
C420   O457    1.294   .     A
C420   O456    1.283   .     A
C421   O459    1.299   .     A
C421   C423    1.464   .     S
C421   O458    1.294   .     A
C422   C434    1.390   .     A
C422   H489    1.084   .     S
C423   C434    1.398   .     A
C423   C433    1.413   .     A
C424   H440    1.083   .     S
C424   C425    1.389   .     A
C425   C13     1.392   1_556 S
C425   H537    1.083   1_455 S
C426   C428    1.418   .     A
C426   C13     1.415   1_556 S
C426   C15     1.426   1_556 S
C427   H444    1.079   .     S
C428   C432    1.411   .     A
C429   C433    1.414   .     A
C430   C431    1.393   .     A
C430   C15     1.421   1_556 S
C430   C8      1.401   1_556 S
C431   C432    1.387   .     A
C431   H442    1.084   .     S
C432   H446    1.081   .     S
C433   O452    1.383   .     S
C434   H437    1.083   .     S
Cu435  O458    1.914   .     S
Cu435  N450    2.017   .     S
Cu435  Cu436   2.684   .     S
Cu435  O454    1.936   .     S
Cu435  O456    1.959   .     S
Cu435  O451    1.963   .     S
Cu436  N449    2.017   .     S
Cu436  O455    1.914   .     S
Cu436  O459    1.936   .     S
Cu436  O453    1.959   .     S
Cu436  O457    1.963   .     S
H438   N496    1.029   .     S
H439   O452    0.991   .     S
H441   N541    1.029   1_455 S
H443   C514    1.084   1_455 S
H445   C471    1.083   .     S
H447   C693    1.088   1_545 S
H448   O736    0.990   1_545 S
N449   H487    1.029   .     S
N449   N496    1.285   .     S
N450   N541    1.285   1_455 S
N450   H530    1.029   1_455 S
O460   C557    1.389   .     S
O460   H586    0.990   .     S
C461   O497    1.287   .     A
C461   O499    1.289   .     A
C461   C463    1.432   .     S
C462   C464    1.476   .     S
C462   C474    1.421   .     A
C462   C470    1.403   .     A
C463   C603    1.338   .     S
C463   H631    1.088   .     S
C464   O501    1.295   .     A
C464   O500    1.303   .     A
C465   C466    1.440   .     S
C465   C739    1.338   1_545 S
C465   O782    1.389   1_545 S
C466   O503    1.294   .     A
C466   O502    1.283   .     A
C467   O505    1.299   .     A
C467   C469    1.464   .     S
C467   O504    1.294   .     A
C468   C480    1.390   .     A
C468   H535    1.084   .     S
C469   C480    1.398   .     A
C469   C479    1.413   .     A
C470   H486    1.083   .     S
C470   C471    1.389   .     A
C471   C59     1.392   1_556 S
C472   C474    1.418   .     A
C472   C59     1.415   1_556 S
C472   C61     1.426   1_556 S
C473   H490    1.079   .     S
C474   C478    1.411   .     A
C475   C479    1.414   .     A
C476   C477    1.393   .     A
C476   C61     1.421   1_556 S
C476   C54     1.401   1_556 S
C477   C478    1.387   .     A
C477   H488    1.084   .     S
C478   H492    1.081   .     S
C479   O498    1.383   .     S
C480   H483    1.083   .     S
Cu481  O504    1.914   .     S
Cu481  N496    2.017   .     S
Cu481  Cu482   2.684   .     S
Cu481  O500    1.936   .     S
Cu481  O502    1.959   .     S
Cu481  O497    1.963   .     S
Cu482  N495    2.017   .     S
Cu482  O501    1.914   .     S
Cu482  O505    1.936   .     S
Cu482  O499    1.959   .     S
Cu482  O503    1.963   .     S
H484   N542    1.029   .     S
H485   O498    0.991   .     S
H491   C517    1.083   .     S
H493   C739    1.088   1_545 S
H494   O782    0.990   1_545 S
N495   H533    1.029   .     S
N495   N542    1.285   .     S
O506   C603    1.389   .     S
O506   H632    0.990   .     S
C507   O543    1.287   .     A
C507   O545    1.289   .     A
C507   C509    1.432   .     S
C508   C510    1.476   .     S
C508   C520    1.421   .     A
C508   C516    1.403   .     A
C509   C649    1.338   .     S
C509   H677    1.088   .     S
C510   O547    1.295   .     A
C510   O546    1.303   .     A
C511   C512    1.440   .     S
C511   C785    1.338   1_545 S
C511   O828    1.389   1_545 S
C512   O549    1.294   .     A
C512   O548    1.283   .     A
C513   O551    1.299   .     A
C513   C515    1.464   .     S
C513   O550    1.294   .     A
C514   C526    1.390   .     A
C514   H443    1.084   1_655 S
C515   C526    1.398   .     A
C515   C525    1.413   .     A
C516   H532    1.083   .     S
C516   C517    1.389   .     A
C517   C105    1.392   1_556 S
C518   C520    1.418   .     A
C518   C105    1.415   1_556 S
C518   C107    1.426   1_556 S
C519   H536    1.079   .     S
C520   C524    1.411   .     A
C521   C525    1.414   .     A
C522   C523    1.393   .     A
C522   C107    1.421   1_556 S
C522   C100    1.401   1_556 S
C523   C524    1.387   .     A
C523   H534    1.084   .     S
C524   H538    1.081   .     S
C525   O544    1.383   .     S
C526   H529    1.083   .     S
Cu527  O550    1.914   .     S
Cu527  N542    2.017   .     S
Cu527  Cu528   2.684   .     S
Cu527  O546    1.936   .     S
Cu527  O548    1.959   .     S
Cu527  O543    1.963   .     S
Cu528  N541    2.017   .     S
Cu528  O547    1.914   .     S
Cu528  O551    1.936   .     S
Cu528  O545    1.959   .     S
Cu528  O549    1.963   .     S
H530   N450    1.029   1_655 S
H531   O544    0.991   .     S
H537   C425    1.083   1_655 S
H539   C785    1.088   1_545 S
H540   O828    0.990   1_545 S
N541   H441    1.029   1_655 S
N541   N450    1.285   1_655 S
O552   C649    1.389   .     S
O552   H678    0.990   .     S
C553   O589    1.287   .     A
C553   O591    1.289   .     A
C553   C555    1.432   .     S
C554   C556    1.476   .     S
C554   C566    1.421   .     A
C554   C562    1.403   .     A
C555   C695    1.338   .     S
C555   H723    1.088   .     S
C556   O593    1.295   .     A
C556   O592    1.303   .     A
C557   C558    1.440   .     S
C558   O595    1.294   .     A
C558   O594    1.283   .     A
C559   O597    1.299   .     A
C559   C561    1.464   .     S
C559   O596    1.294   .     A
C560   C572    1.390   .     A
C560   H627    1.084   .     S
C561   C572    1.398   .     A
C561   C571    1.413   .     A
C562   H578    1.083   .     S
C562   C563    1.389   .     A
C563   C151    1.392   1_556 S
C563   H675    1.083   1_455 S
C564   C566    1.418   .     A
C564   C151    1.415   1_556 S
C564   C153    1.426   1_556 S
C565   H582    1.079   .     S
C566   C570    1.411   .     A
C567   C571    1.414   .     A
C568   C569    1.393   .     A
C568   C153    1.421   1_556 S
C568   C146    1.401   1_556 S
C569   C570    1.387   .     A
C569   H580    1.084   .     S
C570   H584    1.081   .     S
C571   O590    1.383   .     S
C572   H575    1.083   .     S
Cu573  O596    1.914   .     S
Cu573  N588    2.017   .     S
Cu573  Cu574   2.684   .     S
Cu573  O592    1.936   .     S
Cu573  O594    1.959   .     S
Cu573  O589    1.963   .     S
Cu574  N587    2.017   .     S
Cu574  O593    1.914   .     S
Cu574  O597    1.936   .     S
Cu574  O591    1.959   .     S
Cu574  O595    1.963   .     S
H576   N634    1.029   .     S
H577   O590    0.991   .     S
H579   N679    1.029   1_455 S
H581   C652    1.084   1_455 S
H583   C609    1.083   .     S
N587   H625    1.029   .     S
N587   N634    1.285   .     S
N588   N679    1.285   1_455 S
N588   H668    1.029   1_455 S
O598   C695    1.389   .     S
O598   H724    0.990   .     S
C599   O635    1.287   .     A
C599   O637    1.289   .     A
C599   C601    1.432   .     S
C600   C602    1.476   .     S
C600   C612    1.421   .     A
C600   C608    1.403   .     A
C601   C741    1.338   .     S
C601   H769    1.088   .     S
C602   O639    1.295   .     A
C602   O638    1.303   .     A
C603   C604    1.440   .     S
C604   O641    1.294   .     A
C604   O640    1.283   .     A
C605   O643    1.299   .     A
C605   C607    1.464   .     S
C605   O642    1.294   .     A
C606   C618    1.390   .     A
C606   H673    1.084   .     S
C607   C618    1.398   .     A
C607   C617    1.413   .     A
C608   H624    1.083   .     S
C608   C609    1.389   .     A
C609   C197    1.392   1_556 S
C610   C612    1.418   .     A
C610   C197    1.415   1_556 S
C610   C199    1.426   1_556 S
C611   H628    1.079   .     S
C612   C616    1.411   .     A
C613   C617    1.414   .     A
C614   C615    1.393   .     A
C614   C199    1.421   1_556 S
C614   C192    1.401   1_556 S
C615   C616    1.387   .     A
C615   H626    1.084   .     S
C616   H630    1.081   .     S
C617   O636    1.383   .     S
C618   H621    1.083   .     S
Cu619  O642    1.914   .     S
Cu619  N634    2.017   .     S
Cu619  Cu620   2.684   .     S
Cu619  O638    1.936   .     S
Cu619  O640    1.959   .     S
Cu619  O635    1.963   .     S
Cu620  N633    2.017   .     S
Cu620  O639    1.914   .     S
Cu620  O643    1.936   .     S
Cu620  O637    1.959   .     S
Cu620  O641    1.963   .     S
H622   N680    1.029   .     S
H623   O636    0.991   .     S
H629   C655    1.083   .     S
N633   H671    1.029   .     S
N633   N680    1.285   .     S
O644   C741    1.389   .     S
O644   H770    0.990   .     S
C645   O681    1.287   .     A
C645   O683    1.289   .     A
C645   C647    1.432   .     S
C646   C648    1.476   .     S
C646   C658    1.421   .     A
C646   C654    1.403   .     A
C647   C787    1.338   .     S
C647   H815    1.088   .     S
C648   O685    1.295   .     A
C648   O684    1.303   .     A
C649   C650    1.440   .     S
C650   O687    1.294   .     A
C650   O686    1.283   .     A
C651   O689    1.299   .     A
C651   C653    1.464   .     S
C651   O688    1.294   .     A
C652   C664    1.390   .     A
C652   H581    1.084   1_655 S
C653   C664    1.398   .     A
C653   C663    1.413   .     A
C654   H670    1.083   .     S
C654   C655    1.389   .     A
C655   C243    1.392   1_556 S
C656   C658    1.418   .     A
C656   C243    1.415   1_556 S
C656   C245    1.426   1_556 S
C657   H674    1.079   .     S
C658   C662    1.411   .     A
C659   C663    1.414   .     A
C660   C661    1.393   .     A
C660   C245    1.421   1_556 S
C660   C238    1.401   1_556 S
C661   C662    1.387   .     A
C661   H672    1.084   .     S
C662   H676    1.081   .     S
C663   O682    1.383   .     S
C664   H667    1.083   .     S
Cu665  O688    1.914   .     S
Cu665  N680    2.017   .     S
Cu665  Cu666   2.684   .     S
Cu665  O684    1.936   .     S
Cu665  O686    1.959   .     S
Cu665  O681    1.963   .     S
Cu666  N679    2.017   .     S
Cu666  O685    1.914   .     S
Cu666  O689    1.936   .     S
Cu666  O683    1.959   .     S
Cu666  O687    1.963   .     S
H668   N588    1.029   1_655 S
H669   O682    0.991   .     S
H675   C563    1.083   1_655 S
N679   H579    1.029   1_655 S
N679   N588    1.285   1_655 S
O690   C787    1.389   .     S
O690   H816    0.990   .     S
C691   O727    1.287   .     A
C691   O729    1.289   .     A
C691   C693    1.432   .     S
C692   C694    1.476   .     S
C692   C704    1.421   .     A
C692   C700    1.403   .     A
C693   C419    1.338   1_565 S
C693   H447    1.088   1_565 S
C694   O731    1.295   .     A
C694   O730    1.303   .     A
C695   C696    1.440   .     S
C696   O733    1.294   .     A
C696   O732    1.283   .     A
C697   O735    1.299   .     A
C697   C699    1.464   .     S
C697   O734    1.294   .     A
C698   C710    1.390   .     A
C698   H765    1.084   .     S
C699   C710    1.398   .     A
C699   C709    1.413   .     A
C700   H716    1.083   .     S
C700   C701    1.389   .     A
C701   C289    1.392   1_556 S
C701   H813    1.083   1_455 S
C702   C704    1.418   .     A
C702   C289    1.415   1_556 S
C702   C291    1.426   1_556 S
C703   H720    1.079   .     S
C704   C708    1.411   .     A
C705   C709    1.414   .     A
C706   C707    1.393   .     A
C706   C291    1.421   1_556 S
C706   C284    1.401   1_556 S
C707   C708    1.387   .     A
C707   H718    1.084   .     S
C708   H722    1.081   .     S
C709   O728    1.383   .     S
C710   H713    1.083   .     S
Cu711  O734    1.914   .     S
Cu711  N726    2.017   .     S
Cu711  Cu712   2.684   .     S
Cu711  O730    1.936   .     S
Cu711  O732    1.959   .     S
Cu711  O727    1.963   .     S
Cu712  N725    2.017   .     S
Cu712  O731    1.914   .     S
Cu712  O735    1.936   .     S
Cu712  O729    1.959   .     S
Cu712  O733    1.963   .     S
H714   N772    1.029   .     S
H715   O728    0.991   .     S
H717   N817    1.029   1_455 S
H719   C790    1.084   1_455 S
H721   C747    1.083   .     S
N725   H763    1.029   .     S
N725   N772    1.285   .     S
N726   N817    1.285   1_455 S
N726   H806    1.029   1_455 S
O736   C419    1.389   1_565 S
O736   H448    0.990   1_565 S
C737   O773    1.287   .     A
C737   O775    1.289   .     A
C737   C739    1.432   .     S
C738   C740    1.476   .     S
C738   C750    1.421   .     A
C738   C746    1.403   .     A
C739   C465    1.338   1_565 S
C739   H493    1.088   1_565 S
C740   O777    1.295   .     A
C740   O776    1.303   .     A
C741   C742    1.440   .     S
C742   O779    1.294   .     A
C742   O778    1.283   .     A
C743   O781    1.299   .     A
C743   C745    1.464   .     S
C743   O780    1.294   .     A
C744   C756    1.390   .     A
C744   H811    1.084   .     S
C745   C756    1.398   .     A
C745   C755    1.413   .     A
C746   H762    1.083   .     S
C746   C747    1.389   .     A
C747   C335    1.392   1_556 S
C748   C750    1.418   .     A
C748   C335    1.415   1_556 S
C748   C337    1.426   1_556 S
C749   H766    1.079   .     S
C750   C754    1.411   .     A
C751   C755    1.414   .     A
C752   C753    1.393   .     A
C752   C337    1.421   1_556 S
C752   C330    1.401   1_556 S
C753   C754    1.387   .     A
C753   H764    1.084   .     S
C754   H768    1.081   .     S
C755   O774    1.383   .     S
C756   H759    1.083   .     S
Cu757  O780    1.914   .     S
Cu757  N772    2.017   .     S
Cu757  Cu758   2.684   .     S
Cu757  O776    1.936   .     S
Cu757  O778    1.959   .     S
Cu757  O773    1.963   .     S
Cu758  N771    2.017   .     S
Cu758  O777    1.914   .     S
Cu758  O781    1.936   .     S
Cu758  O775    1.959   .     S
Cu758  O779    1.963   .     S
H760   N818    1.029   .     S
H761   O774    0.991   .     S
H767   C793    1.083   .     S
N771   H809    1.029   .     S
N771   N818    1.285   .     S
O782   C465    1.389   1_565 S
O782   H494    0.990   1_565 S
C783   O819    1.287   .     A
C783   O821    1.289   .     A
C783   C785    1.432   .     S
C784   C786    1.476   .     S
C784   C796    1.421   .     A
C784   C792    1.403   .     A
C785   C511    1.338   1_565 S
C785   H539    1.088   1_565 S
C786   O823    1.295   .     A
C786   O822    1.303   .     A
C787   C788    1.440   .     S
C788   O825    1.294   .     A
C788   O824    1.283   .     A
C789   O827    1.299   .     A
C789   C791    1.464   .     S
C789   O826    1.294   .     A
C790   C802    1.390   .     A
C790   H719    1.084   1_655 S
C791   C802    1.398   .     A
C791   C801    1.413   .     A
C792   H808    1.083   .     S
C792   C793    1.389   .     A
C793   C381    1.392   1_556 S
C794   C796    1.418   .     A
C794   C381    1.415   1_556 S
C794   C383    1.426   1_556 S
C795   H812    1.079   .     S
C796   C800    1.411   .     A
C797   C801    1.414   .     A
C798   C799    1.393   .     A
C798   C383    1.421   1_556 S
C798   C376    1.401   1_556 S
C799   C800    1.387   .     A
C799   H810    1.084   .     S
C800   H814    1.081   .     S
C801   O820    1.383   .     S
C802   H805    1.083   .     S
Cu803  O826    1.914   .     S
Cu803  N818    2.017   .     S
Cu803  Cu804   2.684   .     S
Cu803  O822    1.936   .     S
Cu803  O824    1.959   .     S
Cu803  O819    1.963   .     S
Cu804  N817    2.017   .     S
Cu804  O823    1.914   .     S
Cu804  O827    1.936   .     S
Cu804  O821    1.959   .     S
Cu804  O825    1.963   .     S
H806   N726    1.029   1_655 S
H807   O820    0.991   .     S
H813   C701    1.083   1_655 S
N817   H717    1.029   1_655 S
N817   N726    1.285   1_655 S
O828   C511    1.389   1_565 S
O828   H540    0.990   1_565 S
