data_str_m2_o2_o10_pcu_sym.229
_audit_creation_date              2020-01-03
_audit_creation_method            'Materials Studio'
_symmetry_space_group_name_H-M    'P1'
_symmetry_Int_Tables_number       1
_symmetry_cell_setting            triclinic
loop_
_symmetry_equiv_pos_as_xyz
  x,y,z
_cell_length_a                    26.4271
_cell_length_b                    30.1439
_cell_length_c                    28.0363
_cell_angle_alpha                 90.1048
_cell_angle_beta                  97.8995
_cell_angle_gamma                 92.5994
loop_
_atom_site_label
_atom_site_type_symbol
_atom_site_fract_x
_atom_site_fract_y
_atom_site_fract_z
_atom_site_U_iso_or_equiv
_atom_site_adp_type
_atom_site_occupancy
O1     O     0.16667   0.18572   0.29072   0.00000  Uiso   1.00
O2     O     0.16666   0.31427   0.20929   0.00000  Uiso   1.00
O3     O     0.16667   0.18573   0.20928   0.00000  Uiso   1.00
O4     O     0.16666   0.31427   0.29072   0.00000  Uiso   1.00
C5     C     0.16727   0.16499   0.24999   0.00000  Uiso   1.00
C6     C     0.16728   0.33488   0.25006   0.00000  Uiso   1.00
O7     O     0.09161   0.24999   0.28132   0.00000  Uiso   1.00
O8     O     0.24172   0.25000   0.21868   0.00000  Uiso   1.00
O9     O     0.09161   0.25000   0.19989   0.00000  Uiso   1.00
O10    O     0.24172   0.25000   0.30012   0.00000  Uiso   1.00
C11    C     0.06818   0.24999   0.23773   0.00000  Uiso   1.00
C12    C     0.26513   0.24980   0.26226   0.00000  Uiso   1.00
Cu13   Cu    0.16667   0.24999   0.29822   0.00000  Uiso   1.00
Cu14   Cu    0.16667   0.25000   0.20179   0.00000  Uiso   1.00
C15    C     0.01308   0.24580   0.23124   0.00000  Uiso   1.00
C16    C     0.32022   0.25355   0.26875   0.00000  Uiso   1.00
C17    C     0.15594   0.04567   0.28679   0.00000  Uiso   1.00
C18    C     0.13899   0.45207   0.21684   0.00000  Uiso   1.00
H19    H     0.14249   0.02662   0.31569   0.00000  Uiso   1.00
H20    H     0.11247   0.46952   0.19140   0.00000  Uiso   1.00
C21    C     0.15364   0.09158   0.28732   0.00000  Uiso   1.00
C22    C     0.13656   0.40596   0.21676   0.00000  Uiso   1.00
H23    H     0.13852   0.10738   0.31668   0.00000  Uiso   1.00
H24    H     0.10833   0.38810   0.19122   0.00000  Uiso   1.00
C25    C     0.16992   0.11663   0.24985   0.00000  Uiso   1.00
C26    C     0.16975   0.38311   0.25011   0.00000  Uiso   1.00
C27    C     0.18956   0.09536   0.21227   0.00000  Uiso   1.00
C28    C     0.20657   0.40636   0.28250   0.00000  Uiso   1.00
H29    H     0.20346   0.11500   0.18405   0.00000  Uiso   1.00
H30    H     0.23362   0.38806   0.30644   0.00000  Uiso   1.00
C31    C     0.19257   0.04910   0.21148   0.00000  Uiso   1.00
C32    C     0.20990   0.45287   0.28274   0.00000  Uiso   1.00
C33    C     0.17516   0.02425   0.24917   0.00000  Uiso   1.00
C34    C     0.17525   0.47568   0.24966   0.00000  Uiso   1.00
C35    C     0.18909   0.28554   0.05678   0.00000  Uiso   1.00
C36    C     0.13620   0.21998   0.44253   0.00000  Uiso   1.00
H37    H     0.20631   0.31418   0.04122   0.00000  Uiso   1.00
H38    H     0.10990   0.19724   0.45733   0.00000  Uiso   1.00
C39    C     0.19084   0.28439   0.10734   0.00000  Uiso   1.00
C40    C     0.13676   0.21919   0.39220   0.00000  Uiso   1.00
N41    N     0.16667   0.25001   0.12935   0.00000  Uiso   1.00
N42    N     0.16667   0.24999   0.37066   0.00000  Uiso   1.00
C43    C     0.14391   0.21525   0.10099   0.00000  Uiso   1.00
C44    C     0.19597   0.28109   0.39950   0.00000  Uiso   1.00
C45    C     0.14569   0.21431   0.05099   0.00000  Uiso   1.00
C46    C     0.19777   0.28064   0.44998   0.00000  Uiso   1.00
H47    H     0.12957   0.18498   0.03145   0.00000  Uiso   1.00
H48    H     0.22320   0.30496   0.47035   0.00000  Uiso   1.00
C49    C     0.16726   0.25007   0.02730   0.00000  Uiso   1.00
C50    C     0.16741   0.25014   0.47287   0.00000  Uiso   1.00
N51    N     0.32174   0.22834   0.18567   0.00000  Uiso   1.00
O52    O     0.32583   0.25013   0.14626   0.00000  Uiso   1.00
O53    O     0.30087   0.18831   0.18301   0.00000  Uiso   1.00
N54    N     0.01163   0.27045   0.31449   0.00000  Uiso   1.00
O55    O     0.00871   0.24757   0.35340   0.00000  Uiso   1.00
O56    O     0.03180   0.31073   0.31788   0.00000  Uiso   1.00
C57    C     0.21471   0.02737   0.17195   0.00000  Uiso   1.00
H58    H     0.22044   0.49196   0.17254   0.00000  Uiso   1.00
O59    O     0.22702   0.04884   0.13811   0.00000  Uiso   1.00
C60    C     0.25008   0.47700   0.31662   0.00000  Uiso   1.00
H61    H     0.25518   0.01286   0.31520   0.00000  Uiso   1.00
O62    O     0.27824   0.45706   0.34661   0.00000  Uiso   1.00
C63    C     0.22191   0.32017   0.13526   0.00000  Uiso   1.00
H64    H     0.24256   0.31404   0.17033   0.00000  Uiso   1.00
O65    O     0.22587   0.35740   0.11862   0.00000  Uiso   1.00
C66    C     0.10319   0.18456   0.36432   0.00000  Uiso   1.00
H67    H     0.09146   0.18688   0.32632   0.00000  Uiso   1.00
O68    O     0.08714   0.15191   0.38432   0.00000  Uiso   1.00
N69    N     0.11831   0.17852   0.12117   0.00000  Uiso   1.00
O70    O     0.07486   0.18410   0.13658   0.00000  Uiso   1.00
O71    O     0.13051   0.13836   0.11202   0.00000  Uiso   1.00
N72    N     0.22292   0.31672   0.37916   0.00000  Uiso   1.00
O73    O     0.26960   0.31154   0.37136   0.00000  Uiso   1.00
O74    O     0.20822   0.35682   0.38445   0.00000  Uiso   1.00
O75    O     0.50000   0.18572   0.29072   0.00000  Uiso   1.00
O76    O     0.50000   0.31427   0.20929   0.00000  Uiso   1.00
O77    O     0.50000   0.18573   0.20928   0.00000  Uiso   1.00
O78    O     0.50000   0.31427   0.29072   0.00000  Uiso   1.00
C79    C     0.50060   0.16499   0.24999   0.00000  Uiso   1.00
C80    C     0.50062   0.33488   0.25006   0.00000  Uiso   1.00
O81    O     0.42495   0.24999   0.28132   0.00000  Uiso   1.00
O82    O     0.57505   0.25000   0.21868   0.00000  Uiso   1.00
O83    O     0.42495   0.25000   0.19989   0.00000  Uiso   1.00
O84    O     0.57505   0.25000   0.30012   0.00000  Uiso   1.00
C85    C     0.40152   0.24999   0.23773   0.00000  Uiso   1.00
C86    C     0.59846   0.24980   0.26226   0.00000  Uiso   1.00
Cu87   Cu    0.50000   0.24999   0.29822   0.00000  Uiso   1.00
Cu88   Cu    0.50000   0.25000   0.20179   0.00000  Uiso   1.00
C89    C     0.34641   0.24580   0.23124   0.00000  Uiso   1.00
C90    C     0.65355   0.25355   0.26875   0.00000  Uiso   1.00
C91    C     0.48927   0.04567   0.28679   0.00000  Uiso   1.00
C92    C     0.47233   0.45207   0.21684   0.00000  Uiso   1.00
H93    H     0.47582   0.02662   0.31569   0.00000  Uiso   1.00
H94    H     0.44580   0.46952   0.19140   0.00000  Uiso   1.00
C95    C     0.48697   0.09158   0.28732   0.00000  Uiso   1.00
C96    C     0.46989   0.40596   0.21676   0.00000  Uiso   1.00
H97    H     0.47185   0.10738   0.31668   0.00000  Uiso   1.00
H98    H     0.44167   0.38810   0.19122   0.00000  Uiso   1.00
C99    C     0.50325   0.11663   0.24985   0.00000  Uiso   1.00
C100   C     0.50308   0.38311   0.25011   0.00000  Uiso   1.00
C101   C     0.52289   0.09536   0.21227   0.00000  Uiso   1.00
C102   C     0.53991   0.40636   0.28250   0.00000  Uiso   1.00
H103   H     0.53679   0.11500   0.18405   0.00000  Uiso   1.00
H104   H     0.56696   0.38806   0.30644   0.00000  Uiso   1.00
C105   C     0.52591   0.04910   0.21148   0.00000  Uiso   1.00
C106   C     0.54324   0.45287   0.28274   0.00000  Uiso   1.00
C107   C     0.50849   0.02425   0.24917   0.00000  Uiso   1.00
C108   C     0.50858   0.47568   0.24966   0.00000  Uiso   1.00
C109   C     0.52242   0.28554   0.05678   0.00000  Uiso   1.00
C110   C     0.46953   0.21998   0.44253   0.00000  Uiso   1.00
H111   H     0.53965   0.31418   0.04122   0.00000  Uiso   1.00
H112   H     0.44323   0.19724   0.45733   0.00000  Uiso   1.00
C113   C     0.52418   0.28439   0.10734   0.00000  Uiso   1.00
C114   C     0.47009   0.21919   0.39220   0.00000  Uiso   1.00
N115   N     0.50000   0.25001   0.12935   0.00000  Uiso   1.00
N116   N     0.50000   0.24999   0.37066   0.00000  Uiso   1.00
C117   C     0.47724   0.21525   0.10099   0.00000  Uiso   1.00
C118   C     0.52930   0.28109   0.39950   0.00000  Uiso   1.00
C119   C     0.47902   0.21431   0.05099   0.00000  Uiso   1.00
C120   C     0.53110   0.28064   0.44998   0.00000  Uiso   1.00
H121   H     0.46290   0.18498   0.03145   0.00000  Uiso   1.00
H122   H     0.55653   0.30496   0.47035   0.00000  Uiso   1.00
C123   C     0.50059   0.25007   0.02730   0.00000  Uiso   1.00
C124   C     0.50074   0.25014   0.47287   0.00000  Uiso   1.00
N125   N     0.65508   0.22834   0.18567   0.00000  Uiso   1.00
O126   O     0.65917   0.25013   0.14626   0.00000  Uiso   1.00
O127   O     0.63420   0.18831   0.18301   0.00000  Uiso   1.00
N128   N     0.34497   0.27045   0.31449   0.00000  Uiso   1.00
O129   O     0.34204   0.24757   0.35340   0.00000  Uiso   1.00
O130   O     0.36514   0.31073   0.31788   0.00000  Uiso   1.00
C131   C     0.54804   0.02737   0.17195   0.00000  Uiso   1.00
H132   H     0.55377   0.49196   0.17254   0.00000  Uiso   1.00
O133   O     0.56036   0.04884   0.13811   0.00000  Uiso   1.00
C134   C     0.58341   0.47700   0.31662   0.00000  Uiso   1.00
H135   H     0.58852   0.01286   0.31520   0.00000  Uiso   1.00
O136   O     0.61157   0.45706   0.34661   0.00000  Uiso   1.00
C137   C     0.55524   0.32017   0.13526   0.00000  Uiso   1.00
H138   H     0.57589   0.31404   0.17033   0.00000  Uiso   1.00
O139   O     0.55920   0.35740   0.11862   0.00000  Uiso   1.00
C140   C     0.43652   0.18456   0.36432   0.00000  Uiso   1.00
H141   H     0.42479   0.18688   0.32632   0.00000  Uiso   1.00
O142   O     0.42047   0.15191   0.38432   0.00000  Uiso   1.00
N143   N     0.45164   0.17852   0.12117   0.00000  Uiso   1.00
O144   O     0.40820   0.18410   0.13658   0.00000  Uiso   1.00
O145   O     0.46385   0.13836   0.11202   0.00000  Uiso   1.00
N146   N     0.55625   0.31672   0.37916   0.00000  Uiso   1.00
O147   O     0.60294   0.31154   0.37136   0.00000  Uiso   1.00
O148   O     0.54156   0.35682   0.38445   0.00000  Uiso   1.00
O149   O     0.83334   0.18572   0.29072   0.00000  Uiso   1.00
O150   O     0.83333   0.31427   0.20929   0.00000  Uiso   1.00
O151   O     0.83334   0.18573   0.20928   0.00000  Uiso   1.00
O152   O     0.83333   0.31427   0.29072   0.00000  Uiso   1.00
C153   C     0.83393   0.16499   0.24999   0.00000  Uiso   1.00
C154   C     0.83395   0.33488   0.25006   0.00000  Uiso   1.00
O155   O     0.75828   0.24999   0.28132   0.00000  Uiso   1.00
O156   O     0.90839   0.25000   0.21868   0.00000  Uiso   1.00
O157   O     0.75828   0.25000   0.19989   0.00000  Uiso   1.00
O158   O     0.90839   0.25000   0.30012   0.00000  Uiso   1.00
C159   C     0.73485   0.24999   0.23773   0.00000  Uiso   1.00
C160   C     0.93179   0.24980   0.26226   0.00000  Uiso   1.00
Cu161  Cu    0.83333   0.24999   0.29822   0.00000  Uiso   1.00
Cu162  Cu    0.83333   0.25000   0.20179   0.00000  Uiso   1.00
C163   C     0.67975   0.24580   0.23124   0.00000  Uiso   1.00
C164   C     0.98689   0.25355   0.26875   0.00000  Uiso   1.00
C165   C     0.82260   0.04567   0.28679   0.00000  Uiso   1.00
C166   C     0.80566   0.45207   0.21684   0.00000  Uiso   1.00
H167   H     0.80916   0.02662   0.31569   0.00000  Uiso   1.00
H168   H     0.77913   0.46952   0.19140   0.00000  Uiso   1.00
C169   C     0.82030   0.09158   0.28732   0.00000  Uiso   1.00
C170   C     0.80322   0.40596   0.21676   0.00000  Uiso   1.00
H171   H     0.80518   0.10738   0.31668   0.00000  Uiso   1.00
H172   H     0.77500   0.38810   0.19122   0.00000  Uiso   1.00
C173   C     0.83658   0.11663   0.24985   0.00000  Uiso   1.00
C174   C     0.83641   0.38311   0.25011   0.00000  Uiso   1.00
C175   C     0.85623   0.09536   0.21227   0.00000  Uiso   1.00
C176   C     0.87324   0.40636   0.28250   0.00000  Uiso   1.00
H177   H     0.87013   0.11500   0.18405   0.00000  Uiso   1.00
H178   H     0.90029   0.38806   0.30644   0.00000  Uiso   1.00
C179   C     0.85924   0.04910   0.21148   0.00000  Uiso   1.00
C180   C     0.87657   0.45287   0.28274   0.00000  Uiso   1.00
C181   C     0.84183   0.02425   0.24917   0.00000  Uiso   1.00
C182   C     0.84191   0.47568   0.24966   0.00000  Uiso   1.00
C183   C     0.85576   0.28554   0.05678   0.00000  Uiso   1.00
C184   C     0.80287   0.21998   0.44253   0.00000  Uiso   1.00
H185   H     0.87298   0.31418   0.04122   0.00000  Uiso   1.00
H186   H     0.77657   0.19724   0.45733   0.00000  Uiso   1.00
C187   C     0.85751   0.28439   0.10734   0.00000  Uiso   1.00
C188   C     0.80343   0.21919   0.39220   0.00000  Uiso   1.00
N189   N     0.83333   0.25001   0.12935   0.00000  Uiso   1.00
N190   N     0.83333   0.24999   0.37066   0.00000  Uiso   1.00
C191   C     0.81058   0.21525   0.10099   0.00000  Uiso   1.00
C192   C     0.86263   0.28109   0.39950   0.00000  Uiso   1.00
C193   C     0.81236   0.21431   0.05099   0.00000  Uiso   1.00
C194   C     0.86443   0.28064   0.44998   0.00000  Uiso   1.00
H195   H     0.79623   0.18498   0.03145   0.00000  Uiso   1.00
H196   H     0.88986   0.30496   0.47035   0.00000  Uiso   1.00
C197   C     0.83393   0.25007   0.02730   0.00000  Uiso   1.00
C198   C     0.83408   0.25014   0.47287   0.00000  Uiso   1.00
N199   N     0.98841   0.22834   0.18567   0.00000  Uiso   1.00
O200   O     0.99250   0.25013   0.14626   0.00000  Uiso   1.00
O201   O     0.96753   0.18831   0.18301   0.00000  Uiso   1.00
N202   N     0.67830   0.27045   0.31449   0.00000  Uiso   1.00
O203   O     0.67538   0.24757   0.35340   0.00000  Uiso   1.00
O204   O     0.69847   0.31073   0.31788   0.00000  Uiso   1.00
C205   C     0.88138   0.02737   0.17195   0.00000  Uiso   1.00
H206   H     0.88711   0.49196   0.17254   0.00000  Uiso   1.00
O207   O     0.89369   0.04884   0.13811   0.00000  Uiso   1.00
C208   C     0.91675   0.47700   0.31662   0.00000  Uiso   1.00
H209   H     0.92185   0.01286   0.31520   0.00000  Uiso   1.00
O210   O     0.94490   0.45706   0.34661   0.00000  Uiso   1.00
C211   C     0.88858   0.32017   0.13526   0.00000  Uiso   1.00
H212   H     0.90922   0.31404   0.17033   0.00000  Uiso   1.00
O213   O     0.89254   0.35740   0.11862   0.00000  Uiso   1.00
C214   C     0.76985   0.18456   0.36432   0.00000  Uiso   1.00
H215   H     0.75813   0.18688   0.32632   0.00000  Uiso   1.00
O216   O     0.75380   0.15191   0.38432   0.00000  Uiso   1.00
N217   N     0.78498   0.17852   0.12117   0.00000  Uiso   1.00
O218   O     0.74153   0.18410   0.13658   0.00000  Uiso   1.00
O219   O     0.79718   0.13836   0.11202   0.00000  Uiso   1.00
N220   N     0.88959   0.31672   0.37916   0.00000  Uiso   1.00
O221   O     0.93627   0.31154   0.37136   0.00000  Uiso   1.00
O222   O     0.87489   0.35682   0.38445   0.00000  Uiso   1.00
O223   O     0.16667   0.68572   0.29072   0.00000  Uiso   1.00
O224   O     0.16666   0.81427   0.20929   0.00000  Uiso   1.00
O225   O     0.16667   0.68573   0.20928   0.00000  Uiso   1.00
O226   O     0.16666   0.81427   0.29072   0.00000  Uiso   1.00
C227   C     0.16727   0.66499   0.24999   0.00000  Uiso   1.00
C228   C     0.16728   0.83488   0.25006   0.00000  Uiso   1.00
O229   O     0.09161   0.74999   0.28132   0.00000  Uiso   1.00
O230   O     0.24172   0.75000   0.21868   0.00000  Uiso   1.00
O231   O     0.09161   0.75000   0.19989   0.00000  Uiso   1.00
O232   O     0.24172   0.75000   0.30012   0.00000  Uiso   1.00
C233   C     0.06818   0.74999   0.23773   0.00000  Uiso   1.00
C234   C     0.26513   0.74980   0.26226   0.00000  Uiso   1.00
Cu235  Cu    0.16667   0.74999   0.29822   0.00000  Uiso   1.00
Cu236  Cu    0.16667   0.75000   0.20179   0.00000  Uiso   1.00
C237   C     0.01308   0.74580   0.23124   0.00000  Uiso   1.00
C238   C     0.32022   0.75355   0.26875   0.00000  Uiso   1.00
C239   C     0.15594   0.54567   0.28679   0.00000  Uiso   1.00
C240   C     0.13899   0.95207   0.21684   0.00000  Uiso   1.00
H241   H     0.14249   0.52662   0.31569   0.00000  Uiso   1.00
H242   H     0.11247   0.96952   0.19140   0.00000  Uiso   1.00
C243   C     0.15364   0.59158   0.28732   0.00000  Uiso   1.00
C244   C     0.13656   0.90596   0.21676   0.00000  Uiso   1.00
H245   H     0.13852   0.60738   0.31668   0.00000  Uiso   1.00
H246   H     0.10833   0.88810   0.19122   0.00000  Uiso   1.00
C247   C     0.16992   0.61663   0.24985   0.00000  Uiso   1.00
C248   C     0.16975   0.88311   0.25011   0.00000  Uiso   1.00
C249   C     0.18956   0.59536   0.21227   0.00000  Uiso   1.00
C250   C     0.20657   0.90636   0.28250   0.00000  Uiso   1.00
H251   H     0.20346   0.61500   0.18405   0.00000  Uiso   1.00
H252   H     0.23362   0.88806   0.30644   0.00000  Uiso   1.00
C253   C     0.19257   0.54910   0.21148   0.00000  Uiso   1.00
C254   C     0.20990   0.95287   0.28274   0.00000  Uiso   1.00
C255   C     0.17516   0.52425   0.24917   0.00000  Uiso   1.00
C256   C     0.17525   0.97568   0.24966   0.00000  Uiso   1.00
C257   C     0.18909   0.78554   0.05678   0.00000  Uiso   1.00
C258   C     0.13620   0.71998   0.44253   0.00000  Uiso   1.00
H259   H     0.20631   0.81418   0.04122   0.00000  Uiso   1.00
H260   H     0.10990   0.69724   0.45733   0.00000  Uiso   1.00
C261   C     0.19084   0.78439   0.10734   0.00000  Uiso   1.00
C262   C     0.13676   0.71919   0.39220   0.00000  Uiso   1.00
N263   N     0.16667   0.75001   0.12935   0.00000  Uiso   1.00
N264   N     0.16667   0.74999   0.37066   0.00000  Uiso   1.00
C265   C     0.14391   0.71525   0.10099   0.00000  Uiso   1.00
C266   C     0.19597   0.78109   0.39950   0.00000  Uiso   1.00
C267   C     0.14569   0.71431   0.05099   0.00000  Uiso   1.00
C268   C     0.19777   0.78064   0.44998   0.00000  Uiso   1.00
H269   H     0.12957   0.68498   0.03145   0.00000  Uiso   1.00
H270   H     0.22320   0.80496   0.47035   0.00000  Uiso   1.00
C271   C     0.16726   0.75007   0.02730   0.00000  Uiso   1.00
C272   C     0.16741   0.75014   0.47287   0.00000  Uiso   1.00
N273   N     0.32174   0.72834   0.18567   0.00000  Uiso   1.00
O274   O     0.32583   0.75013   0.14626   0.00000  Uiso   1.00
O275   O     0.30087   0.68831   0.18301   0.00000  Uiso   1.00
N276   N     0.01163   0.77045   0.31449   0.00000  Uiso   1.00
O277   O     0.00871   0.74757   0.35340   0.00000  Uiso   1.00
O278   O     0.03180   0.81073   0.31788   0.00000  Uiso   1.00
C279   C     0.21471   0.52737   0.17195   0.00000  Uiso   1.00
H280   H     0.22044   0.99196   0.17254   0.00000  Uiso   1.00
O281   O     0.22702   0.54884   0.13811   0.00000  Uiso   1.00
C282   C     0.25008   0.97700   0.31662   0.00000  Uiso   1.00
H283   H     0.25518   0.51286   0.31520   0.00000  Uiso   1.00
O284   O     0.27824   0.95706   0.34661   0.00000  Uiso   1.00
C285   C     0.22191   0.82017   0.13526   0.00000  Uiso   1.00
H286   H     0.24256   0.81404   0.17033   0.00000  Uiso   1.00
O287   O     0.22587   0.85740   0.11862   0.00000  Uiso   1.00
C288   C     0.10319   0.68456   0.36432   0.00000  Uiso   1.00
H289   H     0.09146   0.68688   0.32632   0.00000  Uiso   1.00
O290   O     0.08714   0.65191   0.38432   0.00000  Uiso   1.00
N291   N     0.11831   0.67852   0.12117   0.00000  Uiso   1.00
O292   O     0.07486   0.68410   0.13658   0.00000  Uiso   1.00
O293   O     0.13051   0.63836   0.11202   0.00000  Uiso   1.00
N294   N     0.22292   0.81672   0.37916   0.00000  Uiso   1.00
O295   O     0.26960   0.81154   0.37136   0.00000  Uiso   1.00
O296   O     0.20822   0.85682   0.38445   0.00000  Uiso   1.00
O297   O     0.50000   0.68572   0.29072   0.00000  Uiso   1.00
O298   O     0.50000   0.81427   0.20929   0.00000  Uiso   1.00
O299   O     0.50000   0.68573   0.20928   0.00000  Uiso   1.00
O300   O     0.50000   0.81427   0.29072   0.00000  Uiso   1.00
C301   C     0.50060   0.66499   0.24999   0.00000  Uiso   1.00
C302   C     0.50062   0.83488   0.25006   0.00000  Uiso   1.00
O303   O     0.42495   0.74999   0.28132   0.00000  Uiso   1.00
O304   O     0.57505   0.75000   0.21868   0.00000  Uiso   1.00
O305   O     0.42495   0.75000   0.19989   0.00000  Uiso   1.00
O306   O     0.57505   0.75000   0.30012   0.00000  Uiso   1.00
C307   C     0.40152   0.74999   0.23773   0.00000  Uiso   1.00
C308   C     0.59846   0.74980   0.26226   0.00000  Uiso   1.00
Cu309  Cu    0.50000   0.74999   0.29822   0.00000  Uiso   1.00
Cu310  Cu    0.50000   0.75000   0.20179   0.00000  Uiso   1.00
C311   C     0.34641   0.74580   0.23124   0.00000  Uiso   1.00
C312   C     0.65355   0.75355   0.26875   0.00000  Uiso   1.00
C313   C     0.48927   0.54567   0.28679   0.00000  Uiso   1.00
C314   C     0.47233   0.95207   0.21684   0.00000  Uiso   1.00
H315   H     0.47582   0.52662   0.31569   0.00000  Uiso   1.00
H316   H     0.44580   0.96952   0.19140   0.00000  Uiso   1.00
C317   C     0.48697   0.59158   0.28732   0.00000  Uiso   1.00
C318   C     0.46989   0.90596   0.21676   0.00000  Uiso   1.00
H319   H     0.47185   0.60738   0.31668   0.00000  Uiso   1.00
H320   H     0.44167   0.88810   0.19122   0.00000  Uiso   1.00
C321   C     0.50325   0.61663   0.24985   0.00000  Uiso   1.00
C322   C     0.50308   0.88311   0.25011   0.00000  Uiso   1.00
C323   C     0.52289   0.59536   0.21227   0.00000  Uiso   1.00
C324   C     0.53991   0.90636   0.28250   0.00000  Uiso   1.00
H325   H     0.53679   0.61500   0.18405   0.00000  Uiso   1.00
H326   H     0.56696   0.88806   0.30644   0.00000  Uiso   1.00
C327   C     0.52591   0.54910   0.21148   0.00000  Uiso   1.00
C328   C     0.54324   0.95287   0.28274   0.00000  Uiso   1.00
C329   C     0.50849   0.52425   0.24917   0.00000  Uiso   1.00
C330   C     0.50858   0.97568   0.24966   0.00000  Uiso   1.00
C331   C     0.52242   0.78554   0.05678   0.00000  Uiso   1.00
C332   C     0.46953   0.71998   0.44253   0.00000  Uiso   1.00
H333   H     0.53965   0.81418   0.04122   0.00000  Uiso   1.00
H334   H     0.44323   0.69724   0.45733   0.00000  Uiso   1.00
C335   C     0.52418   0.78439   0.10734   0.00000  Uiso   1.00
C336   C     0.47009   0.71919   0.39220   0.00000  Uiso   1.00
N337   N     0.50000   0.75001   0.12935   0.00000  Uiso   1.00
N338   N     0.50000   0.74999   0.37066   0.00000  Uiso   1.00
C339   C     0.47724   0.71525   0.10099   0.00000  Uiso   1.00
C340   C     0.52930   0.78109   0.39950   0.00000  Uiso   1.00
C341   C     0.47902   0.71431   0.05099   0.00000  Uiso   1.00
C342   C     0.53110   0.78064   0.44998   0.00000  Uiso   1.00
H343   H     0.46290   0.68498   0.03145   0.00000  Uiso   1.00
H344   H     0.55653   0.80496   0.47035   0.00000  Uiso   1.00
C345   C     0.50059   0.75007   0.02730   0.00000  Uiso   1.00
C346   C     0.50074   0.75014   0.47287   0.00000  Uiso   1.00
N347   N     0.65508   0.72834   0.18567   0.00000  Uiso   1.00
O348   O     0.65917   0.75013   0.14626   0.00000  Uiso   1.00
O349   O     0.63420   0.68831   0.18301   0.00000  Uiso   1.00
N350   N     0.34497   0.77045   0.31449   0.00000  Uiso   1.00
O351   O     0.34204   0.74757   0.35340   0.00000  Uiso   1.00
O352   O     0.36514   0.81073   0.31788   0.00000  Uiso   1.00
C353   C     0.54804   0.52737   0.17195   0.00000  Uiso   1.00
H354   H     0.55377   0.99196   0.17254   0.00000  Uiso   1.00
O355   O     0.56036   0.54884   0.13811   0.00000  Uiso   1.00
C356   C     0.58341   0.97700   0.31662   0.00000  Uiso   1.00
H357   H     0.58852   0.51286   0.31520   0.00000  Uiso   1.00
O358   O     0.61157   0.95706   0.34661   0.00000  Uiso   1.00
C359   C     0.55524   0.82017   0.13526   0.00000  Uiso   1.00
H360   H     0.57589   0.81404   0.17033   0.00000  Uiso   1.00
O361   O     0.55920   0.85740   0.11862   0.00000  Uiso   1.00
C362   C     0.43652   0.68456   0.36432   0.00000  Uiso   1.00
H363   H     0.42479   0.68688   0.32632   0.00000  Uiso   1.00
O364   O     0.42047   0.65191   0.38432   0.00000  Uiso   1.00
N365   N     0.45164   0.67852   0.12117   0.00000  Uiso   1.00
O366   O     0.40820   0.68410   0.13658   0.00000  Uiso   1.00
O367   O     0.46385   0.63836   0.11202   0.00000  Uiso   1.00
N368   N     0.55625   0.81672   0.37916   0.00000  Uiso   1.00
O369   O     0.60294   0.81154   0.37136   0.00000  Uiso   1.00
O370   O     0.54156   0.85682   0.38445   0.00000  Uiso   1.00
O371   O     0.83334   0.68572   0.29072   0.00000  Uiso   1.00
O372   O     0.83333   0.81427   0.20929   0.00000  Uiso   1.00
O373   O     0.83334   0.68573   0.20928   0.00000  Uiso   1.00
O374   O     0.83333   0.81427   0.29072   0.00000  Uiso   1.00
C375   C     0.83393   0.66499   0.24999   0.00000  Uiso   1.00
C376   C     0.83395   0.83488   0.25006   0.00000  Uiso   1.00
O377   O     0.75828   0.74999   0.28132   0.00000  Uiso   1.00
O378   O     0.90839   0.75000   0.21868   0.00000  Uiso   1.00
O379   O     0.75828   0.75000   0.19989   0.00000  Uiso   1.00
O380   O     0.90839   0.75000   0.30012   0.00000  Uiso   1.00
C381   C     0.73485   0.74999   0.23773   0.00000  Uiso   1.00
C382   C     0.93179   0.74980   0.26226   0.00000  Uiso   1.00
Cu383  Cu    0.83333   0.74999   0.29822   0.00000  Uiso   1.00
Cu384  Cu    0.83333   0.75000   0.20179   0.00000  Uiso   1.00
C385   C     0.67975   0.74580   0.23124   0.00000  Uiso   1.00
C386   C     0.98689   0.75355   0.26875   0.00000  Uiso   1.00
C387   C     0.82260   0.54567   0.28679   0.00000  Uiso   1.00
C388   C     0.80566   0.95207   0.21684   0.00000  Uiso   1.00
H389   H     0.80916   0.52662   0.31569   0.00000  Uiso   1.00
H390   H     0.77913   0.96952   0.19140   0.00000  Uiso   1.00
C391   C     0.82030   0.59158   0.28732   0.00000  Uiso   1.00
C392   C     0.80322   0.90596   0.21676   0.00000  Uiso   1.00
H393   H     0.80518   0.60738   0.31668   0.00000  Uiso   1.00
H394   H     0.77500   0.88810   0.19122   0.00000  Uiso   1.00
C395   C     0.83658   0.61663   0.24985   0.00000  Uiso   1.00
C396   C     0.83641   0.88311   0.25011   0.00000  Uiso   1.00
C397   C     0.85623   0.59536   0.21227   0.00000  Uiso   1.00
C398   C     0.87324   0.90636   0.28250   0.00000  Uiso   1.00
H399   H     0.87013   0.61500   0.18405   0.00000  Uiso   1.00
H400   H     0.90029   0.88806   0.30644   0.00000  Uiso   1.00
C401   C     0.85924   0.54910   0.21148   0.00000  Uiso   1.00
C402   C     0.87657   0.95287   0.28274   0.00000  Uiso   1.00
C403   C     0.84183   0.52425   0.24917   0.00000  Uiso   1.00
C404   C     0.84191   0.97568   0.24966   0.00000  Uiso   1.00
C405   C     0.85576   0.78554   0.05678   0.00000  Uiso   1.00
C406   C     0.80287   0.71998   0.44253   0.00000  Uiso   1.00
H407   H     0.87298   0.81418   0.04122   0.00000  Uiso   1.00
H408   H     0.77657   0.69724   0.45733   0.00000  Uiso   1.00
C409   C     0.85751   0.78439   0.10734   0.00000  Uiso   1.00
C410   C     0.80343   0.71919   0.39220   0.00000  Uiso   1.00
N411   N     0.83333   0.75001   0.12935   0.00000  Uiso   1.00
N412   N     0.83333   0.74999   0.37066   0.00000  Uiso   1.00
C413   C     0.81058   0.71525   0.10099   0.00000  Uiso   1.00
C414   C     0.86263   0.78109   0.39950   0.00000  Uiso   1.00
C415   C     0.81236   0.71431   0.05099   0.00000  Uiso   1.00
C416   C     0.86443   0.78064   0.44998   0.00000  Uiso   1.00
H417   H     0.79623   0.68498   0.03145   0.00000  Uiso   1.00
H418   H     0.88986   0.80496   0.47035   0.00000  Uiso   1.00
C419   C     0.83393   0.75007   0.02730   0.00000  Uiso   1.00
C420   C     0.83408   0.75014   0.47287   0.00000  Uiso   1.00
N421   N     0.98841   0.72834   0.18567   0.00000  Uiso   1.00
O422   O     0.99250   0.75013   0.14626   0.00000  Uiso   1.00
O423   O     0.96753   0.68831   0.18301   0.00000  Uiso   1.00
N424   N     0.67830   0.77045   0.31449   0.00000  Uiso   1.00
O425   O     0.67538   0.74757   0.35340   0.00000  Uiso   1.00
O426   O     0.69847   0.81073   0.31788   0.00000  Uiso   1.00
C427   C     0.88138   0.52737   0.17195   0.00000  Uiso   1.00
H428   H     0.88711   0.99196   0.17254   0.00000  Uiso   1.00
O429   O     0.89369   0.54884   0.13811   0.00000  Uiso   1.00
C430   C     0.91675   0.97700   0.31662   0.00000  Uiso   1.00
H431   H     0.92185   0.51286   0.31520   0.00000  Uiso   1.00
O432   O     0.94490   0.95706   0.34661   0.00000  Uiso   1.00
C433   C     0.88858   0.82017   0.13526   0.00000  Uiso   1.00
H434   H     0.90922   0.81404   0.17033   0.00000  Uiso   1.00
O435   O     0.89254   0.85740   0.11862   0.00000  Uiso   1.00
C436   C     0.76985   0.68456   0.36432   0.00000  Uiso   1.00
H437   H     0.75813   0.68688   0.32632   0.00000  Uiso   1.00
O438   O     0.75380   0.65191   0.38432   0.00000  Uiso   1.00
N439   N     0.78498   0.67852   0.12117   0.00000  Uiso   1.00
O440   O     0.74153   0.68410   0.13658   0.00000  Uiso   1.00
O441   O     0.79718   0.63836   0.11202   0.00000  Uiso   1.00
N442   N     0.88959   0.81672   0.37916   0.00000  Uiso   1.00
O443   O     0.93627   0.81154   0.37136   0.00000  Uiso   1.00
O444   O     0.87489   0.85682   0.38445   0.00000  Uiso   1.00
O445   O     0.16667   0.18572   0.79072   0.00000  Uiso   1.00
O446   O     0.16666   0.31427   0.70929   0.00000  Uiso   1.00
O447   O     0.16667   0.18573   0.70928   0.00000  Uiso   1.00
O448   O     0.16666   0.31427   0.79072   0.00000  Uiso   1.00
C449   C     0.16727   0.16499   0.74999   0.00000  Uiso   1.00
C450   C     0.16728   0.33488   0.75006   0.00000  Uiso   1.00
O451   O     0.09161   0.24999   0.78132   0.00000  Uiso   1.00
O452   O     0.24172   0.25000   0.71868   0.00000  Uiso   1.00
O453   O     0.09161   0.25000   0.69989   0.00000  Uiso   1.00
O454   O     0.24172   0.25000   0.80012   0.00000  Uiso   1.00
C455   C     0.06818   0.24999   0.73773   0.00000  Uiso   1.00
C456   C     0.26513   0.24980   0.76226   0.00000  Uiso   1.00
Cu457  Cu    0.16667   0.24999   0.79822   0.00000  Uiso   1.00
Cu458  Cu    0.16667   0.25000   0.70179   0.00000  Uiso   1.00
C459   C     0.01308   0.24580   0.73124   0.00000  Uiso   1.00
C460   C     0.32022   0.25355   0.76875   0.00000  Uiso   1.00
C461   C     0.15594   0.04567   0.78679   0.00000  Uiso   1.00
C462   C     0.13899   0.45207   0.71684   0.00000  Uiso   1.00
H463   H     0.14249   0.02662   0.81569   0.00000  Uiso   1.00
H464   H     0.11247   0.46952   0.69140   0.00000  Uiso   1.00
C465   C     0.15364   0.09158   0.78732   0.00000  Uiso   1.00
C466   C     0.13656   0.40596   0.71676   0.00000  Uiso   1.00
H467   H     0.13852   0.10738   0.81668   0.00000  Uiso   1.00
H468   H     0.10833   0.38810   0.69122   0.00000  Uiso   1.00
C469   C     0.16992   0.11663   0.74985   0.00000  Uiso   1.00
C470   C     0.16975   0.38311   0.75011   0.00000  Uiso   1.00
C471   C     0.18956   0.09536   0.71227   0.00000  Uiso   1.00
C472   C     0.20657   0.40636   0.78250   0.00000  Uiso   1.00
H473   H     0.20346   0.11500   0.68405   0.00000  Uiso   1.00
H474   H     0.23362   0.38806   0.80644   0.00000  Uiso   1.00
C475   C     0.19257   0.04910   0.71148   0.00000  Uiso   1.00
C476   C     0.20990   0.45287   0.78274   0.00000  Uiso   1.00
C477   C     0.17516   0.02425   0.74917   0.00000  Uiso   1.00
C478   C     0.17525   0.47568   0.74966   0.00000  Uiso   1.00
C479   C     0.18909   0.28554   0.55678   0.00000  Uiso   1.00
C480   C     0.13620   0.21998   0.94253   0.00000  Uiso   1.00
H481   H     0.20631   0.31418   0.54122   0.00000  Uiso   1.00
H482   H     0.10990   0.19724   0.95733   0.00000  Uiso   1.00
C483   C     0.19084   0.28439   0.60734   0.00000  Uiso   1.00
C484   C     0.13676   0.21919   0.89220   0.00000  Uiso   1.00
N485   N     0.16667   0.25001   0.62935   0.00000  Uiso   1.00
N486   N     0.16667   0.24999   0.87066   0.00000  Uiso   1.00
C487   C     0.14391   0.21525   0.60099   0.00000  Uiso   1.00
C488   C     0.19597   0.28109   0.89950   0.00000  Uiso   1.00
C489   C     0.14569   0.21431   0.55099   0.00000  Uiso   1.00
C490   C     0.19777   0.28064   0.94998   0.00000  Uiso   1.00
H491   H     0.12957   0.18498   0.53145   0.00000  Uiso   1.00
H492   H     0.22320   0.30496   0.97035   0.00000  Uiso   1.00
C493   C     0.16726   0.25007   0.52730   0.00000  Uiso   1.00
C494   C     0.16741   0.25014   0.97287   0.00000  Uiso   1.00
N495   N     0.32174   0.22834   0.68567   0.00000  Uiso   1.00
O496   O     0.32583   0.25013   0.64626   0.00000  Uiso   1.00
O497   O     0.30087   0.18831   0.68301   0.00000  Uiso   1.00
N498   N     0.01163   0.27045   0.81449   0.00000  Uiso   1.00
O499   O     0.00871   0.24757   0.85340   0.00000  Uiso   1.00
O500   O     0.03180   0.31073   0.81788   0.00000  Uiso   1.00
C501   C     0.21471   0.02737   0.67195   0.00000  Uiso   1.00
H502   H     0.22044   0.49196   0.67254   0.00000  Uiso   1.00
O503   O     0.22702   0.04884   0.63811   0.00000  Uiso   1.00
C504   C     0.25008   0.47700   0.81662   0.00000  Uiso   1.00
H505   H     0.25518   0.01286   0.81520   0.00000  Uiso   1.00
O506   O     0.27824   0.45706   0.84661   0.00000  Uiso   1.00
C507   C     0.22191   0.32017   0.63526   0.00000  Uiso   1.00
H508   H     0.24256   0.31404   0.67033   0.00000  Uiso   1.00
O509   O     0.22587   0.35740   0.61862   0.00000  Uiso   1.00
C510   C     0.10319   0.18456   0.86432   0.00000  Uiso   1.00
H511   H     0.09146   0.18688   0.82632   0.00000  Uiso   1.00
O512   O     0.08714   0.15191   0.88432   0.00000  Uiso   1.00
N513   N     0.11831   0.17852   0.62117   0.00000  Uiso   1.00
O514   O     0.07486   0.18410   0.63658   0.00000  Uiso   1.00
O515   O     0.13051   0.13836   0.61202   0.00000  Uiso   1.00
N516   N     0.22292   0.31672   0.87916   0.00000  Uiso   1.00
O517   O     0.26960   0.31154   0.87136   0.00000  Uiso   1.00
O518   O     0.20822   0.35682   0.88445   0.00000  Uiso   1.00
O519   O     0.50000   0.18572   0.79072   0.00000  Uiso   1.00
O520   O     0.50000   0.31427   0.70929   0.00000  Uiso   1.00
O521   O     0.50000   0.18573   0.70928   0.00000  Uiso   1.00
O522   O     0.50000   0.31427   0.79072   0.00000  Uiso   1.00
C523   C     0.50060   0.16499   0.74999   0.00000  Uiso   1.00
C524   C     0.50062   0.33488   0.75006   0.00000  Uiso   1.00
O525   O     0.42495   0.24999   0.78132   0.00000  Uiso   1.00
O526   O     0.57505   0.25000   0.71868   0.00000  Uiso   1.00
O527   O     0.42495   0.25000   0.69989   0.00000  Uiso   1.00
O528   O     0.57505   0.25000   0.80012   0.00000  Uiso   1.00
C529   C     0.40152   0.24999   0.73773   0.00000  Uiso   1.00
C530   C     0.59846   0.24980   0.76226   0.00000  Uiso   1.00
Cu531  Cu    0.50000   0.24999   0.79822   0.00000  Uiso   1.00
Cu532  Cu    0.50000   0.25000   0.70179   0.00000  Uiso   1.00
C533   C     0.34641   0.24580   0.73124   0.00000  Uiso   1.00
C534   C     0.65355   0.25355   0.76875   0.00000  Uiso   1.00
C535   C     0.48927   0.04567   0.78679   0.00000  Uiso   1.00
C536   C     0.47233   0.45207   0.71684   0.00000  Uiso   1.00
H537   H     0.47582   0.02662   0.81569   0.00000  Uiso   1.00
H538   H     0.44580   0.46952   0.69140   0.00000  Uiso   1.00
C539   C     0.48697   0.09158   0.78732   0.00000  Uiso   1.00
C540   C     0.46989   0.40596   0.71676   0.00000  Uiso   1.00
H541   H     0.47185   0.10738   0.81668   0.00000  Uiso   1.00
H542   H     0.44167   0.38810   0.69122   0.00000  Uiso   1.00
C543   C     0.50325   0.11663   0.74985   0.00000  Uiso   1.00
C544   C     0.50308   0.38311   0.75011   0.00000  Uiso   1.00
C545   C     0.52289   0.09536   0.71227   0.00000  Uiso   1.00
C546   C     0.53991   0.40636   0.78250   0.00000  Uiso   1.00
H547   H     0.53679   0.11500   0.68405   0.00000  Uiso   1.00
H548   H     0.56696   0.38806   0.80644   0.00000  Uiso   1.00
C549   C     0.52591   0.04910   0.71148   0.00000  Uiso   1.00
C550   C     0.54324   0.45287   0.78274   0.00000  Uiso   1.00
C551   C     0.50849   0.02425   0.74917   0.00000  Uiso   1.00
C552   C     0.50858   0.47568   0.74966   0.00000  Uiso   1.00
C553   C     0.52242   0.28554   0.55678   0.00000  Uiso   1.00
C554   C     0.46953   0.21998   0.94253   0.00000  Uiso   1.00
H555   H     0.53965   0.31418   0.54122   0.00000  Uiso   1.00
H556   H     0.44323   0.19724   0.95733   0.00000  Uiso   1.00
C557   C     0.52418   0.28439   0.60734   0.00000  Uiso   1.00
C558   C     0.47009   0.21919   0.89220   0.00000  Uiso   1.00
N559   N     0.50000   0.25001   0.62935   0.00000  Uiso   1.00
N560   N     0.50000   0.24999   0.87066   0.00000  Uiso   1.00
C561   C     0.47724   0.21525   0.60099   0.00000  Uiso   1.00
C562   C     0.52930   0.28109   0.89950   0.00000  Uiso   1.00
C563   C     0.47902   0.21431   0.55099   0.00000  Uiso   1.00
C564   C     0.53110   0.28064   0.94998   0.00000  Uiso   1.00
H565   H     0.46290   0.18498   0.53145   0.00000  Uiso   1.00
H566   H     0.55653   0.30496   0.97035   0.00000  Uiso   1.00
C567   C     0.50059   0.25007   0.52730   0.00000  Uiso   1.00
C568   C     0.50074   0.25014   0.97287   0.00000  Uiso   1.00
N569   N     0.65508   0.22834   0.68567   0.00000  Uiso   1.00
O570   O     0.65917   0.25013   0.64626   0.00000  Uiso   1.00
O571   O     0.63420   0.18831   0.68301   0.00000  Uiso   1.00
N572   N     0.34497   0.27045   0.81449   0.00000  Uiso   1.00
O573   O     0.34204   0.24757   0.85340   0.00000  Uiso   1.00
O574   O     0.36514   0.31073   0.81788   0.00000  Uiso   1.00
C575   C     0.54804   0.02737   0.67195   0.00000  Uiso   1.00
H576   H     0.55377   0.49196   0.67254   0.00000  Uiso   1.00
O577   O     0.56036   0.04884   0.63811   0.00000  Uiso   1.00
C578   C     0.58341   0.47700   0.81662   0.00000  Uiso   1.00
H579   H     0.58852   0.01286   0.81520   0.00000  Uiso   1.00
O580   O     0.61157   0.45706   0.84661   0.00000  Uiso   1.00
C581   C     0.55524   0.32017   0.63526   0.00000  Uiso   1.00
H582   H     0.57589   0.31404   0.67033   0.00000  Uiso   1.00
O583   O     0.55920   0.35740   0.61862   0.00000  Uiso   1.00
C584   C     0.43652   0.18456   0.86432   0.00000  Uiso   1.00
H585   H     0.42479   0.18688   0.82632   0.00000  Uiso   1.00
O586   O     0.42047   0.15191   0.88432   0.00000  Uiso   1.00
N587   N     0.45164   0.17852   0.62117   0.00000  Uiso   1.00
O588   O     0.40820   0.18410   0.63658   0.00000  Uiso   1.00
O589   O     0.46385   0.13836   0.61202   0.00000  Uiso   1.00
N590   N     0.55625   0.31672   0.87916   0.00000  Uiso   1.00
O591   O     0.60294   0.31154   0.87136   0.00000  Uiso   1.00
O592   O     0.54156   0.35682   0.88445   0.00000  Uiso   1.00
O593   O     0.83334   0.18572   0.79072   0.00000  Uiso   1.00
O594   O     0.83333   0.31427   0.70929   0.00000  Uiso   1.00
O595   O     0.83334   0.18573   0.70928   0.00000  Uiso   1.00
O596   O     0.83333   0.31427   0.79072   0.00000  Uiso   1.00
C597   C     0.83393   0.16499   0.74999   0.00000  Uiso   1.00
C598   C     0.83395   0.33488   0.75006   0.00000  Uiso   1.00
O599   O     0.75828   0.24999   0.78132   0.00000  Uiso   1.00
O600   O     0.90839   0.25000   0.71868   0.00000  Uiso   1.00
O601   O     0.75828   0.25000   0.69989   0.00000  Uiso   1.00
O602   O     0.90839   0.25000   0.80012   0.00000  Uiso   1.00
C603   C     0.73485   0.24999   0.73773   0.00000  Uiso   1.00
C604   C     0.93179   0.24980   0.76226   0.00000  Uiso   1.00
Cu605  Cu    0.83333   0.24999   0.79822   0.00000  Uiso   1.00
Cu606  Cu    0.83333   0.25000   0.70179   0.00000  Uiso   1.00
C607   C     0.67975   0.24580   0.73124   0.00000  Uiso   1.00
C608   C     0.98689   0.25355   0.76875   0.00000  Uiso   1.00
C609   C     0.82260   0.04567   0.78679   0.00000  Uiso   1.00
C610   C     0.80566   0.45207   0.71684   0.00000  Uiso   1.00
H611   H     0.80916   0.02662   0.81569   0.00000  Uiso   1.00
H612   H     0.77913   0.46952   0.69140   0.00000  Uiso   1.00
C613   C     0.82030   0.09158   0.78732   0.00000  Uiso   1.00
C614   C     0.80322   0.40596   0.71676   0.00000  Uiso   1.00
H615   H     0.80518   0.10738   0.81668   0.00000  Uiso   1.00
H616   H     0.77500   0.38810   0.69122   0.00000  Uiso   1.00
C617   C     0.83658   0.11663   0.74985   0.00000  Uiso   1.00
C618   C     0.83641   0.38311   0.75011   0.00000  Uiso   1.00
C619   C     0.85623   0.09536   0.71227   0.00000  Uiso   1.00
C620   C     0.87324   0.40636   0.78250   0.00000  Uiso   1.00
H621   H     0.87013   0.11500   0.68405   0.00000  Uiso   1.00
H622   H     0.90029   0.38806   0.80644   0.00000  Uiso   1.00
C623   C     0.85924   0.04910   0.71148   0.00000  Uiso   1.00
C624   C     0.87657   0.45287   0.78274   0.00000  Uiso   1.00
C625   C     0.84183   0.02425   0.74917   0.00000  Uiso   1.00
C626   C     0.84191   0.47568   0.74966   0.00000  Uiso   1.00
C627   C     0.85576   0.28554   0.55678   0.00000  Uiso   1.00
C628   C     0.80287   0.21998   0.94253   0.00000  Uiso   1.00
H629   H     0.87298   0.31418   0.54122   0.00000  Uiso   1.00
H630   H     0.77657   0.19724   0.95733   0.00000  Uiso   1.00
C631   C     0.85751   0.28439   0.60734   0.00000  Uiso   1.00
C632   C     0.80343   0.21919   0.89220   0.00000  Uiso   1.00
N633   N     0.83333   0.25001   0.62935   0.00000  Uiso   1.00
N634   N     0.83333   0.24999   0.87066   0.00000  Uiso   1.00
C635   C     0.81058   0.21525   0.60099   0.00000  Uiso   1.00
C636   C     0.86263   0.28109   0.89950   0.00000  Uiso   1.00
C637   C     0.81236   0.21431   0.55099   0.00000  Uiso   1.00
C638   C     0.86443   0.28064   0.94998   0.00000  Uiso   1.00
H639   H     0.79623   0.18498   0.53145   0.00000  Uiso   1.00
H640   H     0.88986   0.30496   0.97035   0.00000  Uiso   1.00
C641   C     0.83393   0.25007   0.52730   0.00000  Uiso   1.00
C642   C     0.83408   0.25014   0.97287   0.00000  Uiso   1.00
N643   N     0.98841   0.22834   0.68567   0.00000  Uiso   1.00
O644   O     0.99250   0.25013   0.64626   0.00000  Uiso   1.00
O645   O     0.96753   0.18831   0.68301   0.00000  Uiso   1.00
N646   N     0.67830   0.27045   0.81449   0.00000  Uiso   1.00
O647   O     0.67538   0.24757   0.85340   0.00000  Uiso   1.00
O648   O     0.69847   0.31073   0.81788   0.00000  Uiso   1.00
C649   C     0.88138   0.02737   0.67195   0.00000  Uiso   1.00
H650   H     0.88711   0.49196   0.67254   0.00000  Uiso   1.00
O651   O     0.89369   0.04884   0.63811   0.00000  Uiso   1.00
C652   C     0.91675   0.47700   0.81662   0.00000  Uiso   1.00
H653   H     0.92185   0.01286   0.81520   0.00000  Uiso   1.00
O654   O     0.94490   0.45706   0.84661   0.00000  Uiso   1.00
C655   C     0.88858   0.32017   0.63526   0.00000  Uiso   1.00
H656   H     0.90922   0.31404   0.67033   0.00000  Uiso   1.00
O657   O     0.89254   0.35740   0.61862   0.00000  Uiso   1.00
C658   C     0.76985   0.18456   0.86432   0.00000  Uiso   1.00
H659   H     0.75813   0.18688   0.82632   0.00000  Uiso   1.00
O660   O     0.75380   0.15191   0.88432   0.00000  Uiso   1.00
N661   N     0.78498   0.17852   0.62117   0.00000  Uiso   1.00
O662   O     0.74153   0.18410   0.63658   0.00000  Uiso   1.00
O663   O     0.79718   0.13836   0.61202   0.00000  Uiso   1.00
N664   N     0.88959   0.31672   0.87916   0.00000  Uiso   1.00
O665   O     0.93627   0.31154   0.87136   0.00000  Uiso   1.00
O666   O     0.87489   0.35682   0.88445   0.00000  Uiso   1.00
O667   O     0.16667   0.68572   0.79072   0.00000  Uiso   1.00
O668   O     0.16666   0.81427   0.70929   0.00000  Uiso   1.00
O669   O     0.16667   0.68573   0.70928   0.00000  Uiso   1.00
O670   O     0.16666   0.81427   0.79072   0.00000  Uiso   1.00
C671   C     0.16727   0.66499   0.74999   0.00000  Uiso   1.00
C672   C     0.16728   0.83488   0.75006   0.00000  Uiso   1.00
O673   O     0.09161   0.74999   0.78132   0.00000  Uiso   1.00
O674   O     0.24172   0.75000   0.71868   0.00000  Uiso   1.00
O675   O     0.09161   0.75000   0.69989   0.00000  Uiso   1.00
O676   O     0.24172   0.75000   0.80012   0.00000  Uiso   1.00
C677   C     0.06818   0.74999   0.73773   0.00000  Uiso   1.00
C678   C     0.26513   0.74980   0.76226   0.00000  Uiso   1.00
Cu679  Cu    0.16667   0.74999   0.79822   0.00000  Uiso   1.00
Cu680  Cu    0.16667   0.75000   0.70179   0.00000  Uiso   1.00
C681   C     0.01308   0.74580   0.73124   0.00000  Uiso   1.00
C682   C     0.32022   0.75355   0.76875   0.00000  Uiso   1.00
C683   C     0.15594   0.54567   0.78679   0.00000  Uiso   1.00
C684   C     0.13899   0.95207   0.71684   0.00000  Uiso   1.00
H685   H     0.14249   0.52662   0.81569   0.00000  Uiso   1.00
H686   H     0.11247   0.96952   0.69140   0.00000  Uiso   1.00
C687   C     0.15364   0.59158   0.78732   0.00000  Uiso   1.00
C688   C     0.13656   0.90596   0.71676   0.00000  Uiso   1.00
H689   H     0.13852   0.60738   0.81668   0.00000  Uiso   1.00
H690   H     0.10833   0.88810   0.69122   0.00000  Uiso   1.00
C691   C     0.16992   0.61663   0.74985   0.00000  Uiso   1.00
C692   C     0.16975   0.88311   0.75011   0.00000  Uiso   1.00
C693   C     0.18956   0.59536   0.71227   0.00000  Uiso   1.00
C694   C     0.20657   0.90636   0.78250   0.00000  Uiso   1.00
H695   H     0.20346   0.61500   0.68405   0.00000  Uiso   1.00
H696   H     0.23362   0.88806   0.80644   0.00000  Uiso   1.00
C697   C     0.19257   0.54910   0.71148   0.00000  Uiso   1.00
C698   C     0.20990   0.95287   0.78274   0.00000  Uiso   1.00
C699   C     0.17516   0.52425   0.74917   0.00000  Uiso   1.00
C700   C     0.17525   0.97568   0.74966   0.00000  Uiso   1.00
C701   C     0.18909   0.78554   0.55678   0.00000  Uiso   1.00
C702   C     0.13620   0.71998   0.94253   0.00000  Uiso   1.00
H703   H     0.20631   0.81418   0.54122   0.00000  Uiso   1.00
H704   H     0.10990   0.69724   0.95733   0.00000  Uiso   1.00
C705   C     0.19084   0.78439   0.60734   0.00000  Uiso   1.00
C706   C     0.13676   0.71919   0.89220   0.00000  Uiso   1.00
N707   N     0.16667   0.75001   0.62935   0.00000  Uiso   1.00
N708   N     0.16667   0.74999   0.87066   0.00000  Uiso   1.00
C709   C     0.14391   0.71525   0.60099   0.00000  Uiso   1.00
C710   C     0.19597   0.78109   0.89950   0.00000  Uiso   1.00
C711   C     0.14569   0.71431   0.55099   0.00000  Uiso   1.00
C712   C     0.19777   0.78064   0.94998   0.00000  Uiso   1.00
H713   H     0.12957   0.68498   0.53145   0.00000  Uiso   1.00
H714   H     0.22320   0.80496   0.97035   0.00000  Uiso   1.00
C715   C     0.16726   0.75007   0.52730   0.00000  Uiso   1.00
C716   C     0.16741   0.75014   0.97287   0.00000  Uiso   1.00
N717   N     0.32174   0.72834   0.68567   0.00000  Uiso   1.00
O718   O     0.32583   0.75013   0.64626   0.00000  Uiso   1.00
O719   O     0.30087   0.68831   0.68301   0.00000  Uiso   1.00
N720   N     0.01163   0.77045   0.81449   0.00000  Uiso   1.00
O721   O     0.00871   0.74757   0.85340   0.00000  Uiso   1.00
O722   O     0.03180   0.81073   0.81788   0.00000  Uiso   1.00
C723   C     0.21471   0.52737   0.67195   0.00000  Uiso   1.00
H724   H     0.22044   0.99196   0.67254   0.00000  Uiso   1.00
O725   O     0.22702   0.54884   0.63811   0.00000  Uiso   1.00
C726   C     0.25008   0.97700   0.81662   0.00000  Uiso   1.00
H727   H     0.25518   0.51286   0.81520   0.00000  Uiso   1.00
O728   O     0.27824   0.95706   0.84661   0.00000  Uiso   1.00
C729   C     0.22191   0.82017   0.63526   0.00000  Uiso   1.00
H730   H     0.24256   0.81404   0.67033   0.00000  Uiso   1.00
O731   O     0.22587   0.85740   0.61862   0.00000  Uiso   1.00
C732   C     0.10319   0.68456   0.86432   0.00000  Uiso   1.00
H733   H     0.09146   0.68688   0.82632   0.00000  Uiso   1.00
O734   O     0.08714   0.65191   0.88432   0.00000  Uiso   1.00
N735   N     0.11831   0.67852   0.62117   0.00000  Uiso   1.00
O736   O     0.07486   0.68410   0.63658   0.00000  Uiso   1.00
O737   O     0.13051   0.63836   0.61202   0.00000  Uiso   1.00
N738   N     0.22292   0.81672   0.87916   0.00000  Uiso   1.00
O739   O     0.26960   0.81154   0.87136   0.00000  Uiso   1.00
O740   O     0.20822   0.85682   0.88445   0.00000  Uiso   1.00
O741   O     0.50000   0.68572   0.79072   0.00000  Uiso   1.00
O742   O     0.50000   0.81427   0.70929   0.00000  Uiso   1.00
O743   O     0.50000   0.68573   0.70928   0.00000  Uiso   1.00
O744   O     0.50000   0.81427   0.79072   0.00000  Uiso   1.00
C745   C     0.50060   0.66499   0.74999   0.00000  Uiso   1.00
C746   C     0.50062   0.83488   0.75006   0.00000  Uiso   1.00
O747   O     0.42495   0.74999   0.78132   0.00000  Uiso   1.00
O748   O     0.57505   0.75000   0.71868   0.00000  Uiso   1.00
O749   O     0.42495   0.75000   0.69989   0.00000  Uiso   1.00
O750   O     0.57505   0.75000   0.80012   0.00000  Uiso   1.00
C751   C     0.40152   0.74999   0.73773   0.00000  Uiso   1.00
C752   C     0.59846   0.74980   0.76226   0.00000  Uiso   1.00
Cu753  Cu    0.50000   0.74999   0.79822   0.00000  Uiso   1.00
Cu754  Cu    0.50000   0.75000   0.70179   0.00000  Uiso   1.00
C755   C     0.34641   0.74580   0.73124   0.00000  Uiso   1.00
C756   C     0.65355   0.75355   0.76875   0.00000  Uiso   1.00
C757   C     0.48927   0.54567   0.78679   0.00000  Uiso   1.00
C758   C     0.47233   0.95207   0.71684   0.00000  Uiso   1.00
H759   H     0.47582   0.52662   0.81569   0.00000  Uiso   1.00
H760   H     0.44580   0.96952   0.69140   0.00000  Uiso   1.00
C761   C     0.48697   0.59158   0.78732   0.00000  Uiso   1.00
C762   C     0.46989   0.90596   0.71676   0.00000  Uiso   1.00
H763   H     0.47185   0.60738   0.81668   0.00000  Uiso   1.00
H764   H     0.44167   0.88810   0.69122   0.00000  Uiso   1.00
C765   C     0.50325   0.61663   0.74985   0.00000  Uiso   1.00
C766   C     0.50308   0.88311   0.75011   0.00000  Uiso   1.00
C767   C     0.52289   0.59536   0.71227   0.00000  Uiso   1.00
C768   C     0.53991   0.90636   0.78250   0.00000  Uiso   1.00
H769   H     0.53679   0.61500   0.68405   0.00000  Uiso   1.00
H770   H     0.56696   0.88806   0.80644   0.00000  Uiso   1.00
C771   C     0.52591   0.54910   0.71148   0.00000  Uiso   1.00
C772   C     0.54324   0.95287   0.78274   0.00000  Uiso   1.00
C773   C     0.50849   0.52425   0.74917   0.00000  Uiso   1.00
C774   C     0.50858   0.97568   0.74966   0.00000  Uiso   1.00
C775   C     0.52242   0.78554   0.55678   0.00000  Uiso   1.00
C776   C     0.46953   0.71998   0.94253   0.00000  Uiso   1.00
H777   H     0.53965   0.81418   0.54122   0.00000  Uiso   1.00
H778   H     0.44323   0.69724   0.95733   0.00000  Uiso   1.00
C779   C     0.52418   0.78439   0.60734   0.00000  Uiso   1.00
C780   C     0.47009   0.71919   0.89220   0.00000  Uiso   1.00
N781   N     0.50000   0.75001   0.62935   0.00000  Uiso   1.00
N782   N     0.50000   0.74999   0.87066   0.00000  Uiso   1.00
C783   C     0.47724   0.71525   0.60099   0.00000  Uiso   1.00
C784   C     0.52930   0.78109   0.89950   0.00000  Uiso   1.00
C785   C     0.47902   0.71431   0.55099   0.00000  Uiso   1.00
C786   C     0.53110   0.78064   0.94998   0.00000  Uiso   1.00
H787   H     0.46290   0.68498   0.53145   0.00000  Uiso   1.00
H788   H     0.55653   0.80496   0.97035   0.00000  Uiso   1.00
C789   C     0.50059   0.75007   0.52730   0.00000  Uiso   1.00
C790   C     0.50074   0.75014   0.97287   0.00000  Uiso   1.00
N791   N     0.65508   0.72834   0.68567   0.00000  Uiso   1.00
O792   O     0.65917   0.75013   0.64626   0.00000  Uiso   1.00
O793   O     0.63420   0.68831   0.68301   0.00000  Uiso   1.00
N794   N     0.34497   0.77045   0.81449   0.00000  Uiso   1.00
O795   O     0.34204   0.74757   0.85340   0.00000  Uiso   1.00
O796   O     0.36514   0.81073   0.81788   0.00000  Uiso   1.00
C797   C     0.54804   0.52737   0.67195   0.00000  Uiso   1.00
H798   H     0.55377   0.99196   0.67254   0.00000  Uiso   1.00
O799   O     0.56036   0.54884   0.63811   0.00000  Uiso   1.00
C800   C     0.58341   0.97700   0.81662   0.00000  Uiso   1.00
H801   H     0.58852   0.51286   0.81520   0.00000  Uiso   1.00
O802   O     0.61157   0.95706   0.84661   0.00000  Uiso   1.00
C803   C     0.55524   0.82017   0.63526   0.00000  Uiso   1.00
H804   H     0.57589   0.81404   0.67033   0.00000  Uiso   1.00
O805   O     0.55920   0.85740   0.61862   0.00000  Uiso   1.00
C806   C     0.43652   0.68456   0.86432   0.00000  Uiso   1.00
H807   H     0.42479   0.68688   0.82632   0.00000  Uiso   1.00
O808   O     0.42047   0.65191   0.88432   0.00000  Uiso   1.00
N809   N     0.45164   0.67852   0.62117   0.00000  Uiso   1.00
O810   O     0.40820   0.68410   0.63658   0.00000  Uiso   1.00
O811   O     0.46385   0.63836   0.61202   0.00000  Uiso   1.00
N812   N     0.55625   0.81672   0.87916   0.00000  Uiso   1.00
O813   O     0.60294   0.81154   0.87136   0.00000  Uiso   1.00
O814   O     0.54156   0.85682   0.88445   0.00000  Uiso   1.00
O815   O     0.83334   0.68572   0.79072   0.00000  Uiso   1.00
O816   O     0.83333   0.81427   0.70929   0.00000  Uiso   1.00
O817   O     0.83334   0.68573   0.70928   0.00000  Uiso   1.00
O818   O     0.83333   0.81427   0.79072   0.00000  Uiso   1.00
C819   C     0.83393   0.66499   0.74999   0.00000  Uiso   1.00
C820   C     0.83395   0.83488   0.75006   0.00000  Uiso   1.00
O821   O     0.75828   0.74999   0.78132   0.00000  Uiso   1.00
O822   O     0.90839   0.75000   0.71868   0.00000  Uiso   1.00
O823   O     0.75828   0.75000   0.69989   0.00000  Uiso   1.00
O824   O     0.90839   0.75000   0.80012   0.00000  Uiso   1.00
C825   C     0.73485   0.74999   0.73773   0.00000  Uiso   1.00
C826   C     0.93179   0.74980   0.76226   0.00000  Uiso   1.00
Cu827  Cu    0.83333   0.74999   0.79822   0.00000  Uiso   1.00
Cu828  Cu    0.83333   0.75000   0.70179   0.00000  Uiso   1.00
C829   C     0.67975   0.74580   0.73124   0.00000  Uiso   1.00
C830   C     0.98689   0.75355   0.76875   0.00000  Uiso   1.00
C831   C     0.82260   0.54567   0.78679   0.00000  Uiso   1.00
C832   C     0.80566   0.95207   0.71684   0.00000  Uiso   1.00
H833   H     0.80916   0.52662   0.81569   0.00000  Uiso   1.00
H834   H     0.77913   0.96952   0.69140   0.00000  Uiso   1.00
C835   C     0.82030   0.59158   0.78732   0.00000  Uiso   1.00
C836   C     0.80322   0.90596   0.71676   0.00000  Uiso   1.00
H837   H     0.80518   0.60738   0.81668   0.00000  Uiso   1.00
H838   H     0.77500   0.88810   0.69122   0.00000  Uiso   1.00
C839   C     0.83658   0.61663   0.74985   0.00000  Uiso   1.00
C840   C     0.83641   0.88311   0.75011   0.00000  Uiso   1.00
C841   C     0.85623   0.59536   0.71227   0.00000  Uiso   1.00
C842   C     0.87324   0.90636   0.78250   0.00000  Uiso   1.00
H843   H     0.87013   0.61500   0.68405   0.00000  Uiso   1.00
H844   H     0.90029   0.88806   0.80644   0.00000  Uiso   1.00
C845   C     0.85924   0.54910   0.71148   0.00000  Uiso   1.00
C846   C     0.87657   0.95287   0.78274   0.00000  Uiso   1.00
C847   C     0.84183   0.52425   0.74917   0.00000  Uiso   1.00
C848   C     0.84191   0.97568   0.74966   0.00000  Uiso   1.00
C849   C     0.85576   0.78554   0.55678   0.00000  Uiso   1.00
C850   C     0.80287   0.71998   0.94253   0.00000  Uiso   1.00
H851   H     0.87298   0.81418   0.54122   0.00000  Uiso   1.00
H852   H     0.77657   0.69724   0.95733   0.00000  Uiso   1.00
C853   C     0.85751   0.78439   0.60734   0.00000  Uiso   1.00
C854   C     0.80343   0.71919   0.89220   0.00000  Uiso   1.00
N855   N     0.83333   0.75001   0.62935   0.00000  Uiso   1.00
N856   N     0.83333   0.74999   0.87066   0.00000  Uiso   1.00
C857   C     0.81058   0.71525   0.60099   0.00000  Uiso   1.00
C858   C     0.86263   0.78109   0.89950   0.00000  Uiso   1.00
C859   C     0.81236   0.71431   0.55099   0.00000  Uiso   1.00
C860   C     0.86443   0.78064   0.94998   0.00000  Uiso   1.00
H861   H     0.79623   0.68498   0.53145   0.00000  Uiso   1.00
H862   H     0.88986   0.80496   0.97035   0.00000  Uiso   1.00
C863   C     0.83393   0.75007   0.52730   0.00000  Uiso   1.00
C864   C     0.83408   0.75014   0.97287   0.00000  Uiso   1.00
N865   N     0.98841   0.72834   0.68567   0.00000  Uiso   1.00
O866   O     0.99250   0.75013   0.64626   0.00000  Uiso   1.00
O867   O     0.96753   0.68831   0.68301   0.00000  Uiso   1.00
N868   N     0.67830   0.77045   0.81449   0.00000  Uiso   1.00
O869   O     0.67538   0.74757   0.85340   0.00000  Uiso   1.00
O870   O     0.69847   0.81073   0.81788   0.00000  Uiso   1.00
C871   C     0.88138   0.52737   0.67195   0.00000  Uiso   1.00
H872   H     0.88711   0.99196   0.67254   0.00000  Uiso   1.00
O873   O     0.89369   0.54884   0.63811   0.00000  Uiso   1.00
C874   C     0.91675   0.97700   0.81662   0.00000  Uiso   1.00
H875   H     0.92185   0.51286   0.81520   0.00000  Uiso   1.00
O876   O     0.94490   0.95706   0.84661   0.00000  Uiso   1.00
C877   C     0.88858   0.82017   0.63526   0.00000  Uiso   1.00
H878   H     0.90922   0.81404   0.67033   0.00000  Uiso   1.00
O879   O     0.89254   0.85740   0.61862   0.00000  Uiso   1.00
C880   C     0.76985   0.68456   0.86432   0.00000  Uiso   1.00
H881   H     0.75813   0.68688   0.82632   0.00000  Uiso   1.00
O882   O     0.75380   0.65191   0.88432   0.00000  Uiso   1.00
N883   N     0.78498   0.67852   0.62117   0.00000  Uiso   1.00
O884   O     0.74153   0.68410   0.63658   0.00000  Uiso   1.00
O885   O     0.79718   0.63836   0.61202   0.00000  Uiso   1.00
N886   N     0.88959   0.81672   0.87916   0.00000  Uiso   1.00
O887   O     0.93627   0.81154   0.87136   0.00000  Uiso   1.00
O888   O     0.87489   0.85682   0.88445   0.00000  Uiso   1.00
loop_
_geom_bond_atom_site_label_1
_geom_bond_atom_site_label_2
_geom_bond_distance
_geom_bond_site_symmetry_2
_ccdc_geom_bond_type
O1     C5      1.303   .     A
O1     Cu13    1.948   .     S
O2     Cu14    1.948   .     S
O2     C6      1.298   .     A
O3     Cu14    1.949   .     S
O3     C5      1.301   .     A
O4     C6      1.301   .     A
O4     Cu13    1.949   .     S
C5     C25     1.463   .     S
C6     C26     1.452   .     S
O7     Cu13    1.975   .     S
O7     C11     1.292   .     A
O8     C12     1.291   .     A
O8     Cu14    1.975   .     S
O9     Cu14    1.977   .     S
O9     C11     1.300   .     A
O10    C12     1.300   .     A
O10    Cu13    1.977   .     S
C11    C15     1.442   .     S
C12    C16     1.441   .     S
Cu13   Cu14    2.704   .     S
Cu13   N42     2.031   .     S
Cu14   N41     2.031   .     S
C15    C164    1.361   1_455 S
C15    N199    1.440   1_455 S
C16    C89     1.361   .     S
C16    N128    1.438   .     S
C17    C33     1.400   .     A
C17    H19     1.084   .     S
C17    C21     1.388   .     A
C18    C22     1.389   .     A
C18    C34     1.402   .     A
C18    H20     1.084   .     S
C21    H23     1.082   .     S
C21    C25     1.399   .     A
C22    H24     1.084   .     S
C22    C26     1.396   .     A
C25    C27     1.403   .     A
C26    C28     1.399   .     A
C27    C31     1.401   .     A
C27    H29     1.083   .     S
C28    H30     1.082   .     S
C28    C32     1.401   .     A
C31    C33     1.412   .     A
C31    C57     1.486   .     S
C32    C60     1.486   .     S
C32    C34     1.413   .     A
C33    C256    1.464   1_545 S
C34    C255    1.464   .     S
C35    C49     1.403   .     A
C35    C39     1.413   .     A
C35    H37     1.078   .     S
C36    H38     1.078   .     S
C36    C50     1.402   .     A
C36    C40     1.413   .     A
C39    C63     1.480   .     S
C39    N41     1.383   .     A
C40    C66     1.487   .     S
C40    N42     1.385   .     A
N41    C43     1.378   .     A
N42    C44     1.375   .     A
C43    C45     1.409   .     A
C43    N69     1.429   .     S
C44    C46     1.409   .     A
C44    N72     1.425   .     S
C45    C49     1.407   .     A
C45    H47     1.078   .     S
C46    C50     1.406   .     A
C46    H48     1.079   .     S
C49    C494    1.527   1_554 S
C50    C493    1.527   .     S
N51    O52     1.301   .     A
N51    O53     1.302   .     A
N51    C89     1.440   .     S
N54    O56     1.302   .     A
N54    O55     1.301   .     A
N54    C164    1.438   1_455 S
C57    O59     1.222   .     D
C57    H280    1.085   1_545 S
H58    C279    1.085   .     S
C60    O62     1.222   .     D
C60    H283    1.085   .     S
H61    C282    1.085   1_545 S
C63    O65     1.222   .     D
C63    H64     1.078   .     S
C66    H67     1.071   .     S
C66    O68     1.222   .     D
N69    O70     1.299   .     A
N69    O71     1.301   .     A
N72    O73     1.298   .     A
N72    O74     1.301   .     A
O75    C79     1.303   .     A
O75    Cu87    1.948   .     S
O76    Cu88    1.948   .     S
O76    C80     1.298   .     A
O77    Cu88    1.949   .     S
O77    C79     1.301   .     A
O78    C80     1.301   .     A
O78    Cu87    1.949   .     S
C79    C99     1.463   .     S
C80    C100    1.452   .     S
O81    Cu87    1.975   .     S
O81    C85     1.292   .     A
O82    C86     1.291   .     A
O82    Cu88    1.975   .     S
O83    Cu88    1.977   .     S
O83    C85     1.300   .     A
O84    C86     1.300   .     A
O84    Cu87    1.977   .     S
C85    C89     1.442   .     S
C86    C90     1.441   .     S
Cu87   Cu88    2.704   .     S
Cu87   N116    2.031   .     S
Cu88   N115    2.031   .     S
C90    C163    1.361   .     S
C90    N202    1.438   .     S
C91    C107    1.400   .     A
C91    H93     1.084   .     S
C91    C95     1.388   .     A
C92    C96     1.389   .     A
C92    C108    1.402   .     A
C92    H94     1.084   .     S
C95    H97     1.082   .     S
C95    C99     1.399   .     A
C96    H98     1.084   .     S
C96    C100    1.396   .     A
C99    C101    1.403   .     A
C100   C102    1.399   .     A
C101   C105    1.401   .     A
C101   H103    1.083   .     S
C102   H104    1.082   .     S
C102   C106    1.401   .     A
C105   C107    1.412   .     A
C105   C131    1.486   .     S
C106   C134    1.486   .     S
C106   C108    1.413   .     A
C107   C330    1.464   1_545 S
C108   C329    1.464   .     S
C109   C123    1.403   .     A
C109   C113    1.413   .     A
C109   H111    1.078   .     S
C110   H112    1.078   .     S
C110   C124    1.402   .     A
C110   C114    1.413   .     A
C113   C137    1.480   .     S
C113   N115    1.383   .     A
C114   C140    1.487   .     S
C114   N116    1.385   .     A
N115   C117    1.378   .     A
N116   C118    1.375   .     A
C117   C119    1.409   .     A
C117   N143    1.429   .     S
C118   C120    1.409   .     A
C118   N146    1.425   .     S
C119   C123    1.407   .     A
C119   H121    1.078   .     S
C120   C124    1.406   .     A
C120   H122    1.079   .     S
C123   C568    1.527   1_554 S
C124   C567    1.527   .     S
N125   O126    1.301   .     A
N125   O127    1.302   .     A
N125   C163    1.440   .     S
N128   O130    1.302   .     A
N128   O129    1.301   .     A
C131   O133    1.222   .     D
C131   H354    1.085   1_545 S
H132   C353    1.085   .     S
C134   O136    1.222   .     D
C134   H357    1.085   .     S
H135   C356    1.085   1_545 S
C137   O139    1.222   .     D
C137   H138    1.078   .     S
C140   H141    1.071   .     S
C140   O142    1.222   .     D
N143   O144    1.299   .     A
N143   O145    1.301   .     A
N146   O147    1.298   .     A
N146   O148    1.301   .     A
O149   C153    1.303   .     A
O149   Cu161   1.948   .     S
O150   Cu162   1.948   .     S
O150   C154    1.298   .     A
O151   Cu162   1.949   .     S
O151   C153    1.301   .     A
O152   C154    1.301   .     A
O152   Cu161   1.949   .     S
C153   C173    1.463   .     S
C154   C174    1.452   .     S
O155   Cu161   1.975   .     S
O155   C159    1.292   .     A
O156   C160    1.291   .     A
O156   Cu162   1.975   .     S
O157   Cu162   1.977   .     S
O157   C159    1.300   .     A
O158   C160    1.300   .     A
O158   Cu161   1.977   .     S
C159   C163    1.442   .     S
C160   C164    1.441   .     S
Cu161  Cu162   2.704   .     S
Cu161  N190    2.031   .     S
Cu162  N189    2.031   .     S
C164   C15     1.361   1_655 S
C164   N54     1.438   1_655 S
C165   C181    1.400   .     A
C165   H167    1.084   .     S
C165   C169    1.388   .     A
C166   C170    1.389   .     A
C166   C182    1.402   .     A
C166   H168    1.084   .     S
C169   H171    1.082   .     S
C169   C173    1.399   .     A
C170   H172    1.084   .     S
C170   C174    1.396   .     A
C173   C175    1.403   .     A
C174   C176    1.399   .     A
C175   C179    1.401   .     A
C175   H177    1.083   .     S
C176   H178    1.082   .     S
C176   C180    1.401   .     A
C179   C181    1.412   .     A
C179   C205    1.486   .     S
C180   C208    1.486   .     S
C180   C182    1.413   .     A
C181   C404    1.464   1_545 S
C182   C403    1.464   .     S
C183   C197    1.403   .     A
C183   C187    1.413   .     A
C183   H185    1.078   .     S
C184   H186    1.078   .     S
C184   C198    1.402   .     A
C184   C188    1.413   .     A
C187   C211    1.480   .     S
C187   N189    1.383   .     A
C188   C214    1.487   .     S
C188   N190    1.385   .     A
N189   C191    1.378   .     A
N190   C192    1.375   .     A
C191   C193    1.409   .     A
C191   N217    1.429   .     S
C192   C194    1.409   .     A
C192   N220    1.425   .     S
C193   C197    1.407   .     A
C193   H195    1.078   .     S
C194   C198    1.406   .     A
C194   H196    1.079   .     S
C197   C642    1.527   1_554 S
C198   C641    1.527   .     S
N199   O200    1.301   .     A
N199   O201    1.302   .     A
N199   C15     1.440   1_655 S
N202   O204    1.302   .     A
N202   O203    1.301   .     A
C205   O207    1.222   .     D
C205   H428    1.085   1_545 S
H206   C427    1.085   .     S
C208   O210    1.222   .     D
C208   H431    1.085   .     S
H209   C430    1.085   1_545 S
C211   O213    1.222   .     D
C211   H212    1.078   .     S
C214   H215    1.071   .     S
C214   O216    1.222   .     D
N217   O218    1.299   .     A
N217   O219    1.301   .     A
N220   O221    1.298   .     A
N220   O222    1.301   .     A
O223   C227    1.303   .     A
O223   Cu235   1.948   .     S
O224   Cu236   1.948   .     S
O224   C228    1.298   .     A
O225   Cu236   1.949   .     S
O225   C227    1.301   .     A
O226   C228    1.301   .     A
O226   Cu235   1.949   .     S
C227   C247    1.463   .     S
C228   C248    1.452   .     S
O229   Cu235   1.975   .     S
O229   C233    1.292   .     A
O230   C234    1.291   .     A
O230   Cu236   1.975   .     S
O231   Cu236   1.977   .     S
O231   C233    1.300   .     A
O232   C234    1.300   .     A
O232   Cu235   1.977   .     S
C233   C237    1.442   .     S
C234   C238    1.441   .     S
Cu235  Cu236   2.704   .     S
Cu235  N264    2.031   .     S
Cu236  N263    2.031   .     S
C237   C386    1.361   1_455 S
C237   N421    1.440   1_455 S
C238   C311    1.361   .     S
C238   N350    1.438   .     S
C239   C255    1.400   .     A
C239   H241    1.084   .     S
C239   C243    1.388   .     A
C240   C244    1.389   .     A
C240   C256    1.402   .     A
C240   H242    1.084   .     S
C243   H245    1.082   .     S
C243   C247    1.399   .     A
C244   H246    1.084   .     S
C244   C248    1.396   .     A
C247   C249    1.403   .     A
C248   C250    1.399   .     A
C249   C253    1.401   .     A
C249   H251    1.083   .     S
C250   H252    1.082   .     S
C250   C254    1.401   .     A
C253   C255    1.412   .     A
C253   C279    1.486   .     S
C254   C282    1.486   .     S
C254   C256    1.413   .     A
C256   C33     1.464   1_565 S
C257   C271    1.403   .     A
C257   C261    1.413   .     A
C257   H259    1.078   .     S
C258   H260    1.078   .     S
C258   C272    1.402   .     A
C258   C262    1.413   .     A
C261   C285    1.480   .     S
C261   N263    1.383   .     A
C262   C288    1.487   .     S
C262   N264    1.385   .     A
N263   C265    1.378   .     A
N264   C266    1.375   .     A
C265   C267    1.409   .     A
C265   N291    1.429   .     S
C266   C268    1.409   .     A
C266   N294    1.425   .     S
C267   C271    1.407   .     A
C267   H269    1.078   .     S
C268   C272    1.406   .     A
C268   H270    1.079   .     S
C271   C716    1.527   1_554 S
C272   C715    1.527   .     S
N273   O274    1.301   .     A
N273   O275    1.302   .     A
N273   C311    1.440   .     S
N276   O278    1.302   .     A
N276   O277    1.301   .     A
N276   C386    1.438   1_455 S
C279   O281    1.222   .     D
H280   C57     1.085   1_565 S
C282   O284    1.222   .     D
C282   H61     1.085   1_565 S
C285   O287    1.222   .     D
C285   H286    1.078   .     S
C288   H289    1.071   .     S
C288   O290    1.222   .     D
N291   O292    1.299   .     A
N291   O293    1.301   .     A
N294   O295    1.298   .     A
N294   O296    1.301   .     A
O297   C301    1.303   .     A
O297   Cu309   1.948   .     S
O298   Cu310   1.948   .     S
O298   C302    1.298   .     A
O299   Cu310   1.949   .     S
O299   C301    1.301   .     A
O300   C302    1.301   .     A
O300   Cu309   1.949   .     S
C301   C321    1.463   .     S
C302   C322    1.452   .     S
O303   Cu309   1.975   .     S
O303   C307    1.292   .     A
O304   C308    1.291   .     A
O304   Cu310   1.975   .     S
O305   Cu310   1.977   .     S
O305   C307    1.300   .     A
O306   C308    1.300   .     A
O306   Cu309   1.977   .     S
C307   C311    1.442   .     S
C308   C312    1.441   .     S
Cu309  Cu310   2.704   .     S
Cu309  N338    2.031   .     S
Cu310  N337    2.031   .     S
C312   C385    1.361   .     S
C312   N424    1.438   .     S
C313   C329    1.400   .     A
C313   H315    1.084   .     S
C313   C317    1.388   .     A
C314   C318    1.389   .     A
C314   C330    1.402   .     A
C314   H316    1.084   .     S
C317   H319    1.082   .     S
C317   C321    1.399   .     A
C318   H320    1.084   .     S
C318   C322    1.396   .     A
C321   C323    1.403   .     A
C322   C324    1.399   .     A
C323   C327    1.401   .     A
C323   H325    1.083   .     S
C324   H326    1.082   .     S
C324   C328    1.401   .     A
C327   C329    1.412   .     A
C327   C353    1.486   .     S
C328   C356    1.486   .     S
C328   C330    1.413   .     A
C330   C107    1.464   1_565 S
C331   C345    1.403   .     A
C331   C335    1.413   .     A
C331   H333    1.078   .     S
C332   H334    1.078   .     S
C332   C346    1.402   .     A
C332   C336    1.413   .     A
C335   C359    1.480   .     S
C335   N337    1.383   .     A
C336   C362    1.487   .     S
C336   N338    1.385   .     A
N337   C339    1.378   .     A
N338   C340    1.375   .     A
C339   C341    1.409   .     A
C339   N365    1.429   .     S
C340   C342    1.409   .     A
C340   N368    1.425   .     S
C341   C345    1.407   .     A
C341   H343    1.078   .     S
C342   C346    1.406   .     A
C342   H344    1.079   .     S
C345   C790    1.527   1_554 S
C346   C789    1.527   .     S
N347   O348    1.301   .     A
N347   O349    1.302   .     A
N347   C385    1.440   .     S
N350   O352    1.302   .     A
N350   O351    1.301   .     A
C353   O355    1.222   .     D
H354   C131    1.085   1_565 S
C356   O358    1.222   .     D
C356   H135    1.085   1_565 S
C359   O361    1.222   .     D
C359   H360    1.078   .     S
C362   H363    1.071   .     S
C362   O364    1.222   .     D
N365   O366    1.299   .     A
N365   O367    1.301   .     A
N368   O369    1.298   .     A
N368   O370    1.301   .     A
O371   C375    1.303   .     A
O371   Cu383   1.948   .     S
O372   Cu384   1.948   .     S
O372   C376    1.298   .     A
O373   Cu384   1.949   .     S
O373   C375    1.301   .     A
O374   C376    1.301   .     A
O374   Cu383   1.949   .     S
C375   C395    1.463   .     S
C376   C396    1.452   .     S
O377   Cu383   1.975   .     S
O377   C381    1.292   .     A
O378   C382    1.291   .     A
O378   Cu384   1.975   .     S
O379   Cu384   1.977   .     S
O379   C381    1.300   .     A
O380   C382    1.300   .     A
O380   Cu383   1.977   .     S
C381   C385    1.442   .     S
C382   C386    1.441   .     S
Cu383  Cu384   2.704   .     S
Cu383  N412    2.031   .     S
Cu384  N411    2.031   .     S
C386   C237    1.361   1_655 S
C386   N276    1.438   1_655 S
C387   C403    1.400   .     A
C387   H389    1.084   .     S
C387   C391    1.388   .     A
C388   C392    1.389   .     A
C388   C404    1.402   .     A
C388   H390    1.084   .     S
C391   H393    1.082   .     S
C391   C395    1.399   .     A
C392   H394    1.084   .     S
C392   C396    1.396   .     A
C395   C397    1.403   .     A
C396   C398    1.399   .     A
C397   C401    1.401   .     A
C397   H399    1.083   .     S
C398   H400    1.082   .     S
C398   C402    1.401   .     A
C401   C403    1.412   .     A
C401   C427    1.486   .     S
C402   C430    1.486   .     S
C402   C404    1.413   .     A
C404   C181    1.464   1_565 S
C405   C419    1.403   .     A
C405   C409    1.413   .     A
C405   H407    1.078   .     S
C406   H408    1.078   .     S
C406   C420    1.402   .     A
C406   C410    1.413   .     A
C409   C433    1.480   .     S
C409   N411    1.383   .     A
C410   C436    1.487   .     S
C410   N412    1.385   .     A
N411   C413    1.378   .     A
N412   C414    1.375   .     A
C413   C415    1.409   .     A
C413   N439    1.429   .     S
C414   C416    1.409   .     A
C414   N442    1.425   .     S
C415   C419    1.407   .     A
C415   H417    1.078   .     S
C416   C420    1.406   .     A
C416   H418    1.079   .     S
C419   C864    1.527   1_554 S
C420   C863    1.527   .     S
N421   O422    1.301   .     A
N421   O423    1.302   .     A
N421   C237    1.440   1_655 S
N424   O426    1.302   .     A
N424   O425    1.301   .     A
C427   O429    1.222   .     D
H428   C205    1.085   1_565 S
C430   O432    1.222   .     D
C430   H209    1.085   1_565 S
C433   O435    1.222   .     D
C433   H434    1.078   .     S
C436   H437    1.071   .     S
C436   O438    1.222   .     D
N439   O440    1.299   .     A
N439   O441    1.301   .     A
N442   O443    1.298   .     A
N442   O444    1.301   .     A
O445   C449    1.303   .     A
O445   Cu457   1.948   .     S
O446   Cu458   1.948   .     S
O446   C450    1.298   .     A
O447   Cu458   1.949   .     S
O447   C449    1.301   .     A
O448   C450    1.301   .     A
O448   Cu457   1.949   .     S
C449   C469    1.463   .     S
C450   C470    1.452   .     S
O451   Cu457   1.975   .     S
O451   C455    1.292   .     A
O452   C456    1.291   .     A
O452   Cu458   1.975   .     S
O453   Cu458   1.977   .     S
O453   C455    1.300   .     A
O454   C456    1.300   .     A
O454   Cu457   1.977   .     S
C455   C459    1.442   .     S
C456   C460    1.441   .     S
Cu457  Cu458   2.704   .     S
Cu457  N486    2.031   .     S
Cu458  N485    2.031   .     S
C459   C608    1.361   1_455 S
C459   N643    1.440   1_455 S
C460   C533    1.361   .     S
C460   N572    1.438   .     S
C461   C477    1.400   .     A
C461   H463    1.084   .     S
C461   C465    1.388   .     A
C462   C466    1.389   .     A
C462   C478    1.402   .     A
C462   H464    1.084   .     S
C465   H467    1.082   .     S
C465   C469    1.399   .     A
C466   H468    1.084   .     S
C466   C470    1.396   .     A
C469   C471    1.403   .     A
C470   C472    1.399   .     A
C471   C475    1.401   .     A
C471   H473    1.083   .     S
C472   H474    1.082   .     S
C472   C476    1.401   .     A
C475   C477    1.412   .     A
C475   C501    1.486   .     S
C476   C504    1.486   .     S
C476   C478    1.413   .     A
C477   C700    1.464   1_545 S
C478   C699    1.464   .     S
C479   C493    1.403   .     A
C479   C483    1.413   .     A
C479   H481    1.078   .     S
C480   H482    1.078   .     S
C480   C494    1.402   .     A
C480   C484    1.413   .     A
C483   C507    1.480   .     S
C483   N485    1.383   .     A
C484   C510    1.487   .     S
C484   N486    1.385   .     A
N485   C487    1.378   .     A
N486   C488    1.375   .     A
C487   C489    1.409   .     A
C487   N513    1.429   .     S
C488   C490    1.409   .     A
C488   N516    1.425   .     S
C489   C493    1.407   .     A
C489   H491    1.078   .     S
C490   C494    1.406   .     A
C490   H492    1.079   .     S
C494   C49     1.527   1_556 S
N495   O496    1.301   .     A
N495   O497    1.302   .     A
N495   C533    1.440   .     S
N498   O500    1.302   .     A
N498   O499    1.301   .     A
N498   C608    1.438   1_455 S
C501   O503    1.222   .     D
C501   H724    1.085   1_545 S
H502   C723    1.085   .     S
C504   O506    1.222   .     D
C504   H727    1.085   .     S
H505   C726    1.085   1_545 S
C507   O509    1.222   .     D
C507   H508    1.078   .     S
C510   H511    1.071   .     S
C510   O512    1.222   .     D
N513   O514    1.299   .     A
N513   O515    1.301   .     A
N516   O517    1.298   .     A
N516   O518    1.301   .     A
O519   C523    1.303   .     A
O519   Cu531   1.948   .     S
O520   Cu532   1.948   .     S
O520   C524    1.298   .     A
O521   Cu532   1.949   .     S
O521   C523    1.301   .     A
O522   C524    1.301   .     A
O522   Cu531   1.949   .     S
C523   C543    1.463   .     S
C524   C544    1.452   .     S
O525   Cu531   1.975   .     S
O525   C529    1.292   .     A
O526   C530    1.291   .     A
O526   Cu532   1.975   .     S
O527   Cu532   1.977   .     S
O527   C529    1.300   .     A
O528   C530    1.300   .     A
O528   Cu531   1.977   .     S
C529   C533    1.442   .     S
C530   C534    1.441   .     S
Cu531  Cu532   2.704   .     S
Cu531  N560    2.031   .     S
Cu532  N559    2.031   .     S
C534   C607    1.361   .     S
C534   N646    1.438   .     S
C535   C551    1.400   .     A
C535   H537    1.084   .     S
C535   C539    1.388   .     A
C536   C540    1.389   .     A
C536   C552    1.402   .     A
C536   H538    1.084   .     S
C539   H541    1.082   .     S
C539   C543    1.399   .     A
C540   H542    1.084   .     S
C540   C544    1.396   .     A
C543   C545    1.403   .     A
C544   C546    1.399   .     A
C545   C549    1.401   .     A
C545   H547    1.083   .     S
C546   H548    1.082   .     S
C546   C550    1.401   .     A
C549   C551    1.412   .     A
C549   C575    1.486   .     S
C550   C578    1.486   .     S
C550   C552    1.413   .     A
C551   C774    1.464   1_545 S
C552   C773    1.464   .     S
C553   C567    1.403   .     A
C553   C557    1.413   .     A
C553   H555    1.078   .     S
C554   H556    1.078   .     S
C554   C568    1.402   .     A
C554   C558    1.413   .     A
C557   C581    1.480   .     S
C557   N559    1.383   .     A
C558   C584    1.487   .     S
C558   N560    1.385   .     A
N559   C561    1.378   .     A
N560   C562    1.375   .     A
C561   C563    1.409   .     A
C561   N587    1.429   .     S
C562   C564    1.409   .     A
C562   N590    1.425   .     S
C563   C567    1.407   .     A
C563   H565    1.078   .     S
C564   C568    1.406   .     A
C564   H566    1.079   .     S
C568   C123    1.527   1_556 S
N569   O570    1.301   .     A
N569   O571    1.302   .     A
N569   C607    1.440   .     S
N572   O574    1.302   .     A
N572   O573    1.301   .     A
C575   O577    1.222   .     D
C575   H798    1.085   1_545 S
H576   C797    1.085   .     S
C578   O580    1.222   .     D
C578   H801    1.085   .     S
H579   C800    1.085   1_545 S
C581   O583    1.222   .     D
C581   H582    1.078   .     S
C584   H585    1.071   .     S
C584   O586    1.222   .     D
N587   O588    1.299   .     A
N587   O589    1.301   .     A
N590   O591    1.298   .     A
N590   O592    1.301   .     A
O593   C597    1.303   .     A
O593   Cu605   1.948   .     S
O594   Cu606   1.948   .     S
O594   C598    1.298   .     A
O595   Cu606   1.949   .     S
O595   C597    1.301   .     A
O596   C598    1.301   .     A
O596   Cu605   1.949   .     S
C597   C617    1.463   .     S
C598   C618    1.452   .     S
O599   Cu605   1.975   .     S
O599   C603    1.292   .     A
O600   C604    1.291   .     A
O600   Cu606   1.975   .     S
O601   Cu606   1.977   .     S
O601   C603    1.300   .     A
O602   C604    1.300   .     A
O602   Cu605   1.977   .     S
C603   C607    1.442   .     S
C604   C608    1.441   .     S
Cu605  Cu606   2.704   .     S
Cu605  N634    2.031   .     S
Cu606  N633    2.031   .     S
C608   C459    1.361   1_655 S
C608   N498    1.438   1_655 S
C609   C625    1.400   .     A
C609   H611    1.084   .     S
C609   C613    1.388   .     A
C610   C614    1.389   .     A
C610   C626    1.402   .     A
C610   H612    1.084   .     S
C613   H615    1.082   .     S
C613   C617    1.399   .     A
C614   H616    1.084   .     S
C614   C618    1.396   .     A
C617   C619    1.403   .     A
C618   C620    1.399   .     A
C619   C623    1.401   .     A
C619   H621    1.083   .     S
C620   H622    1.082   .     S
C620   C624    1.401   .     A
C623   C625    1.412   .     A
C623   C649    1.486   .     S
C624   C652    1.486   .     S
C624   C626    1.413   .     A
C625   C848    1.464   1_545 S
C626   C847    1.464   .     S
C627   C641    1.403   .     A
C627   C631    1.413   .     A
C627   H629    1.078   .     S
C628   H630    1.078   .     S
C628   C642    1.402   .     A
C628   C632    1.413   .     A
C631   C655    1.480   .     S
C631   N633    1.383   .     A
C632   C658    1.487   .     S
C632   N634    1.385   .     A
N633   C635    1.378   .     A
N634   C636    1.375   .     A
C635   C637    1.409   .     A
C635   N661    1.429   .     S
C636   C638    1.409   .     A
C636   N664    1.425   .     S
C637   C641    1.407   .     A
C637   H639    1.078   .     S
C638   C642    1.406   .     A
C638   H640    1.079   .     S
C642   C197    1.527   1_556 S
N643   O644    1.301   .     A
N643   O645    1.302   .     A
N643   C459    1.440   1_655 S
N646   O648    1.302   .     A
N646   O647    1.301   .     A
C649   O651    1.222   .     D
C649   H872    1.085   1_545 S
H650   C871    1.085   .     S
C652   O654    1.222   .     D
C652   H875    1.085   .     S
H653   C874    1.085   1_545 S
C655   O657    1.222   .     D
C655   H656    1.078   .     S
C658   H659    1.071   .     S
C658   O660    1.222   .     D
N661   O662    1.299   .     A
N661   O663    1.301   .     A
N664   O665    1.298   .     A
N664   O666    1.301   .     A
O667   C671    1.303   .     A
O667   Cu679   1.948   .     S
O668   Cu680   1.948   .     S
O668   C672    1.298   .     A
O669   Cu680   1.949   .     S
O669   C671    1.301   .     A
O670   C672    1.301   .     A
O670   Cu679   1.949   .     S
C671   C691    1.463   .     S
C672   C692    1.452   .     S
O673   Cu679   1.975   .     S
O673   C677    1.292   .     A
O674   C678    1.291   .     A
O674   Cu680   1.975   .     S
O675   Cu680   1.977   .     S
O675   C677    1.300   .     A
O676   C678    1.300   .     A
O676   Cu679   1.977   .     S
C677   C681    1.442   .     S
C678   C682    1.441   .     S
Cu679  Cu680   2.704   .     S
Cu679  N708    2.031   .     S
Cu680  N707    2.031   .     S
C681   C830    1.361   1_455 S
C681   N865    1.440   1_455 S
C682   C755    1.361   .     S
C682   N794    1.438   .     S
C683   C699    1.400   .     A
C683   H685    1.084   .     S
C683   C687    1.388   .     A
C684   C688    1.389   .     A
C684   C700    1.402   .     A
C684   H686    1.084   .     S
C687   H689    1.082   .     S
C687   C691    1.399   .     A
C688   H690    1.084   .     S
C688   C692    1.396   .     A
C691   C693    1.403   .     A
C692   C694    1.399   .     A
C693   C697    1.401   .     A
C693   H695    1.083   .     S
C694   H696    1.082   .     S
C694   C698    1.401   .     A
C697   C699    1.412   .     A
C697   C723    1.486   .     S
C698   C726    1.486   .     S
C698   C700    1.413   .     A
C700   C477    1.464   1_565 S
C701   C715    1.403   .     A
C701   C705    1.413   .     A
C701   H703    1.078   .     S
C702   H704    1.078   .     S
C702   C716    1.402   .     A
C702   C706    1.413   .     A
C705   C729    1.480   .     S
C705   N707    1.383   .     A
C706   C732    1.487   .     S
C706   N708    1.385   .     A
N707   C709    1.378   .     A
N708   C710    1.375   .     A
C709   C711    1.409   .     A
C709   N735    1.429   .     S
C710   C712    1.409   .     A
C710   N738    1.425   .     S
C711   C715    1.407   .     A
C711   H713    1.078   .     S
C712   C716    1.406   .     A
C712   H714    1.079   .     S
C716   C271    1.527   1_556 S
N717   O718    1.301   .     A
N717   O719    1.302   .     A
N717   C755    1.440   .     S
N720   O722    1.302   .     A
N720   O721    1.301   .     A
N720   C830    1.438   1_455 S
C723   O725    1.222   .     D
H724   C501    1.085   1_565 S
C726   O728    1.222   .     D
C726   H505    1.085   1_565 S
C729   O731    1.222   .     D
C729   H730    1.078   .     S
C732   H733    1.071   .     S
C732   O734    1.222   .     D
N735   O736    1.299   .     A
N735   O737    1.301   .     A
N738   O739    1.298   .     A
N738   O740    1.301   .     A
O741   C745    1.303   .     A
O741   Cu753   1.948   .     S
O742   Cu754   1.948   .     S
O742   C746    1.298   .     A
O743   Cu754   1.949   .     S
O743   C745    1.301   .     A
O744   C746    1.301   .     A
O744   Cu753   1.949   .     S
C745   C765    1.463   .     S
C746   C766    1.452   .     S
O747   Cu753   1.975   .     S
O747   C751    1.292   .     A
O748   C752    1.291   .     A
O748   Cu754   1.975   .     S
O749   Cu754   1.977   .     S
O749   C751    1.300   .     A
O750   C752    1.300   .     A
O750   Cu753   1.977   .     S
C751   C755    1.442   .     S
C752   C756    1.441   .     S
Cu753  Cu754   2.704   .     S
Cu753  N782    2.031   .     S
Cu754  N781    2.031   .     S
C756   C829    1.361   .     S
C756   N868    1.438   .     S
C757   C773    1.400   .     A
C757   H759    1.084   .     S
C757   C761    1.388   .     A
C758   C762    1.389   .     A
C758   C774    1.402   .     A
C758   H760    1.084   .     S
C761   H763    1.082   .     S
C761   C765    1.399   .     A
C762   H764    1.084   .     S
C762   C766    1.396   .     A
C765   C767    1.403   .     A
C766   C768    1.399   .     A
C767   C771    1.401   .     A
C767   H769    1.083   .     S
C768   H770    1.082   .     S
C768   C772    1.401   .     A
C771   C773    1.412   .     A
C771   C797    1.486   .     S
C772   C800    1.486   .     S
C772   C774    1.413   .     A
C774   C551    1.464   1_565 S
C775   C789    1.403   .     A
C775   C779    1.413   .     A
C775   H777    1.078   .     S
C776   H778    1.078   .     S
C776   C790    1.402   .     A
C776   C780    1.413   .     A
C779   C803    1.480   .     S
C779   N781    1.383   .     A
C780   C806    1.487   .     S
C780   N782    1.385   .     A
N781   C783    1.378   .     A
N782   C784    1.375   .     A
C783   C785    1.409   .     A
C783   N809    1.429   .     S
C784   C786    1.409   .     A
C784   N812    1.425   .     S
C785   C789    1.407   .     A
C785   H787    1.078   .     S
C786   C790    1.406   .     A
C786   H788    1.079   .     S
C790   C345    1.527   1_556 S
N791   O792    1.301   .     A
N791   O793    1.302   .     A
N791   C829    1.440   .     S
N794   O796    1.302   .     A
N794   O795    1.301   .     A
C797   O799    1.222   .     D
H798   C575    1.085   1_565 S
C800   O802    1.222   .     D
C800   H579    1.085   1_565 S
C803   O805    1.222   .     D
C803   H804    1.078   .     S
C806   H807    1.071   .     S
C806   O808    1.222   .     D
N809   O810    1.299   .     A
N809   O811    1.301   .     A
N812   O813    1.298   .     A
N812   O814    1.301   .     A
O815   C819    1.303   .     A
O815   Cu827   1.948   .     S
O816   Cu828   1.948   .     S
O816   C820    1.298   .     A
O817   Cu828   1.949   .     S
O817   C819    1.301   .     A
O818   C820    1.301   .     A
O818   Cu827   1.949   .     S
C819   C839    1.463   .     S
C820   C840    1.452   .     S
O821   Cu827   1.975   .     S
O821   C825    1.292   .     A
O822   C826    1.291   .     A
O822   Cu828   1.975   .     S
O823   Cu828   1.977   .     S
O823   C825    1.300   .     A
O824   C826    1.300   .     A
O824   Cu827   1.977   .     S
C825   C829    1.442   .     S
C826   C830    1.441   .     S
Cu827  Cu828   2.704   .     S
Cu827  N856    2.031   .     S
Cu828  N855    2.031   .     S
C830   C681    1.361   1_655 S
C830   N720    1.438   1_655 S
C831   C847    1.400   .     A
C831   H833    1.084   .     S
C831   C835    1.388   .     A
C832   C836    1.389   .     A
C832   C848    1.402   .     A
C832   H834    1.084   .     S
C835   H837    1.082   .     S
C835   C839    1.399   .     A
C836   H838    1.084   .     S
C836   C840    1.396   .     A
C839   C841    1.403   .     A
C840   C842    1.399   .     A
C841   C845    1.401   .     A
C841   H843    1.083   .     S
C842   H844    1.082   .     S
C842   C846    1.401   .     A
C845   C847    1.412   .     A
C845   C871    1.486   .     S
C846   C874    1.486   .     S
C846   C848    1.413   .     A
C848   C625    1.464   1_565 S
C849   C863    1.403   .     A
C849   C853    1.413   .     A
C849   H851    1.078   .     S
C850   H852    1.078   .     S
C850   C864    1.402   .     A
C850   C854    1.413   .     A
C853   C877    1.480   .     S
C853   N855    1.383   .     A
C854   C880    1.487   .     S
C854   N856    1.385   .     A
N855   C857    1.378   .     A
N856   C858    1.375   .     A
C857   C859    1.409   .     A
C857   N883    1.429   .     S
C858   C860    1.409   .     A
C858   N886    1.425   .     S
C859   C863    1.407   .     A
C859   H861    1.078   .     S
C860   C864    1.406   .     A
C860   H862    1.079   .     S
C864   C419    1.527   1_556 S
N865   O866    1.301   .     A
N865   O867    1.302   .     A
N865   C681    1.440   1_655 S
N868   O870    1.302   .     A
N868   O869    1.301   .     A
C871   O873    1.222   .     D
H872   C649    1.085   1_565 S
C874   O876    1.222   .     D
C874   H653    1.085   1_565 S
C877   O879    1.222   .     D
C877   H878    1.078   .     S
C880   H881    1.071   .     S
C880   O882    1.222   .     D
N883   O884    1.299   .     A
N883   O885    1.301   .     A
N886   O887    1.298   .     A
N886   O888    1.301   .     A
