data_str_m2_o10_o17_pcu_sym.62
_audit_creation_date              2020-01-03
_audit_creation_method            'Materials Studio'
_symmetry_space_group_name_H-M    'P1'
_symmetry_Int_Tables_number       1
_symmetry_cell_setting            triclinic
loop_
_symmetry_equiv_pos_as_xyz
  x,y,z
_cell_length_a                    30.0892
_cell_length_b                    26.0281
_cell_length_c                    22.3299
_cell_angle_alpha                 102.8972
_cell_angle_beta                  94.5144
_cell_angle_gamma                 92.4514
loop_
_atom_site_label
_atom_site_type_symbol
_atom_site_fract_x
_atom_site_fract_y
_atom_site_fract_z
_atom_site_U_iso_or_equiv
_atom_site_adp_type
_atom_site_occupancy
C1     C     0.24864   0.06657   0.15109   0.00000  Uiso   1.00
C2     C     0.08900   0.14700   0.11256   0.00000  Uiso   1.00
C3     C     0.38401   0.16755   0.16547   0.00000  Uiso   1.00
C4     C     0.11599   0.16578   0.16787   0.00000  Uiso   1.00
C5     C     0.40325   0.14866   0.11035   0.00000  Uiso   1.00
C6     C     0.09675   0.18467   0.22299   0.00000  Uiso   1.00
C7     C     0.44963   0.14765   0.11016   0.00000  Uiso   1.00
C8     C     0.05037   0.18568   0.22318   0.00000  Uiso   1.00
C9     C     0.47672   0.16691   0.16621   0.00000  Uiso   1.00
C10    C     0.02328   0.16642   0.16712   0.00000  Uiso   1.00
C11    C     0.45721   0.18645   0.22149   0.00000  Uiso   1.00
C12    C     0.25136   0.26677   0.18225   0.00000  Uiso   1.00
C13    C     0.04279   0.14688   0.11185   0.00000  Uiso   1.00
C14    C     0.46936   0.12703   0.05538   0.00000  Uiso   1.00
C15    C     0.03064   0.20630   0.27795   0.00000  Uiso   1.00
C16    C     0.44437   0.05462   0.31383   0.00000  Uiso   1.00
C17    C     0.05563   0.27871   0.01951   0.00000  Uiso   1.00
C18    C     0.01598   0.12774   0.05653   0.00000  Uiso   1.00
C19    C     0.48402   0.20559   0.27681   0.00000  Uiso   1.00
C20    C     0.24798   0.01061   0.14229   0.00000  Uiso   1.00
C21    C     0.25202   0.32273   0.19104   0.00000  Uiso   1.00
C22    C     0.16436   0.16633   0.16723   0.00000  Uiso   1.00
C23    C     0.33564   0.16701   0.16611   0.00000  Uiso   1.00
C24    C     0.41099   0.18634   0.22077   0.00000  Uiso   1.00
Cu25   Cu    0.25500   0.17246   0.22813   0.00000  Uiso   1.00
Cu26   Cu    0.24499   0.16087   0.10521   0.00000  Uiso   1.00
H27    H     0.39605   0.20125   0.26340   0.00000  Uiso   1.00
H28    H     0.28501   0.20742   0.01728   0.00000  Uiso   1.00
H29    H     0.41977   0.04071   0.27309   0.00000  Uiso   1.00
H30    H     0.43483   0.03419   0.01688   0.00000  Uiso   1.00
H31    H     0.47776   0.04326   0.29929   0.00000  Uiso   1.00
H32    H     0.06516   0.29914   0.31647   0.00000  Uiso   1.00
H33    H     0.08023   0.29263   0.06025   0.00000  Uiso   1.00
H34    H     0.02224   0.29006   0.03406   0.00000  Uiso   1.00
H35    H     0.10395   0.13209   0.06993   0.00000  Uiso   1.00
H36    H     0.38195   0.13383   0.06799   0.00000  Uiso   1.00
H37    H     0.11805   0.19951   0.26534   0.00000  Uiso   1.00
H38    H     0.03122   0.11368   0.01397   0.00000  Uiso   1.00
H39    H     0.46878   0.21965   0.31937   0.00000  Uiso   1.00
H40    H     0.24415   0.32008   0.09531   0.00000  Uiso   1.00
H41    H     0.25585   0.01325   0.23802   0.00000  Uiso   1.00
H42    H     0.21498   0.12591   0.31605   0.00000  Uiso   1.00
N43    N     0.23744   0.15214   0.01284   0.00000  Uiso   1.00
N44    N     0.26255   0.18119   0.32049   0.00000  Uiso   1.00
O45    O     0.25325   0.09538   0.20659   0.00000  Uiso   1.00
O46    O     0.05692   0.22343   0.33323   0.00000  Uiso   1.00
O47    O     0.24674   0.23796   0.12674   0.00000  Uiso   1.00
O48    O     0.24480   0.08559   0.10279   0.00000  Uiso   1.00
O49    O     0.25520   0.24774   0.23055   0.00000  Uiso   1.00
O50    O     0.18935   0.17155   0.21857   0.00000  Uiso   1.00
O51    O     0.31064   0.16179   0.11476   0.00000  Uiso   1.00
O52    O     0.18090   0.16176   0.11477   0.00000  Uiso   1.00
O53    O     0.31910   0.17157   0.21857   0.00000  Uiso   1.00
O54    O     0.44308   0.10990   0.00010   0.00000  Uiso   1.00
C55    C     0.74864   0.06657   0.15109   0.00000  Uiso   1.00
C56    C     0.58900   0.14700   0.11256   0.00000  Uiso   1.00
C57    C     0.88401   0.16755   0.16547   0.00000  Uiso   1.00
C58    C     0.61599   0.16578   0.16787   0.00000  Uiso   1.00
C59    C     0.90325   0.14866   0.11035   0.00000  Uiso   1.00
C60    C     0.59675   0.18467   0.22299   0.00000  Uiso   1.00
C61    C     0.94963   0.14765   0.11016   0.00000  Uiso   1.00
C62    C     0.55037   0.18568   0.22318   0.00000  Uiso   1.00
C63    C     0.97672   0.16691   0.16621   0.00000  Uiso   1.00
C64    C     0.52328   0.16642   0.16712   0.00000  Uiso   1.00
C65    C     0.95721   0.18645   0.22149   0.00000  Uiso   1.00
C66    C     0.75136   0.26677   0.18225   0.00000  Uiso   1.00
C67    C     0.54279   0.14688   0.11185   0.00000  Uiso   1.00
C68    C     0.96936   0.12703   0.05538   0.00000  Uiso   1.00
C69    C     0.53064   0.20630   0.27795   0.00000  Uiso   1.00
C70    C     0.94437   0.05462   0.31383   0.00000  Uiso   1.00
C71    C     0.55563   0.27871   0.01951   0.00000  Uiso   1.00
C72    C     0.51598   0.12774   0.05653   0.00000  Uiso   1.00
C73    C     0.98402   0.20559   0.27681   0.00000  Uiso   1.00
C74    C     0.74798   0.01061   0.14229   0.00000  Uiso   1.00
C75    C     0.75202   0.32273   0.19104   0.00000  Uiso   1.00
C76    C     0.66436   0.16633   0.16723   0.00000  Uiso   1.00
C77    C     0.83564   0.16701   0.16611   0.00000  Uiso   1.00
C78    C     0.91099   0.18634   0.22077   0.00000  Uiso   1.00
Cu79   Cu    0.75500   0.17246   0.22813   0.00000  Uiso   1.00
Cu80   Cu    0.74499   0.16087   0.10521   0.00000  Uiso   1.00
H81    H     0.89605   0.20125   0.26340   0.00000  Uiso   1.00
H82    H     0.78501   0.20742   0.01728   0.00000  Uiso   1.00
H83    H     0.91977   0.04071   0.27309   0.00000  Uiso   1.00
H84    H     0.93483   0.03419   0.01688   0.00000  Uiso   1.00
H85    H     0.97776   0.04326   0.29929   0.00000  Uiso   1.00
H86    H     0.56516   0.29914   0.31647   0.00000  Uiso   1.00
H87    H     0.58023   0.29263   0.06025   0.00000  Uiso   1.00
H88    H     0.52224   0.29006   0.03406   0.00000  Uiso   1.00
H89    H     0.60395   0.13209   0.06993   0.00000  Uiso   1.00
H90    H     0.88195   0.13383   0.06799   0.00000  Uiso   1.00
H91    H     0.61805   0.19951   0.26534   0.00000  Uiso   1.00
H92    H     0.53122   0.11368   0.01397   0.00000  Uiso   1.00
H93    H     0.96878   0.21965   0.31937   0.00000  Uiso   1.00
H94    H     0.74415   0.32008   0.09531   0.00000  Uiso   1.00
H95    H     0.75585   0.01325   0.23802   0.00000  Uiso   1.00
H96    H     0.71498   0.12591   0.31605   0.00000  Uiso   1.00
N97    N     0.73744   0.15214   0.01284   0.00000  Uiso   1.00
N98    N     0.76255   0.18119   0.32049   0.00000  Uiso   1.00
O99    O     0.75325   0.09538   0.20659   0.00000  Uiso   1.00
O100   O     0.55692   0.22343   0.33323   0.00000  Uiso   1.00
O101   O     0.74674   0.23796   0.12674   0.00000  Uiso   1.00
O102   O     0.74480   0.08559   0.10279   0.00000  Uiso   1.00
O103   O     0.75520   0.24774   0.23055   0.00000  Uiso   1.00
O104   O     0.68935   0.17155   0.21857   0.00000  Uiso   1.00
O105   O     0.81064   0.16179   0.11476   0.00000  Uiso   1.00
O106   O     0.68090   0.16176   0.11477   0.00000  Uiso   1.00
O107   O     0.81910   0.17157   0.21857   0.00000  Uiso   1.00
O108   O     0.94308   0.10990   0.00010   0.00000  Uiso   1.00
C109   C     0.24864   0.39990   0.15109   0.00000  Uiso   1.00
C110   C     0.08900   0.48033   0.11256   0.00000  Uiso   1.00
C111   C     0.38401   0.50089   0.16547   0.00000  Uiso   1.00
C112   C     0.11599   0.49911   0.16787   0.00000  Uiso   1.00
C113   C     0.40325   0.48199   0.11035   0.00000  Uiso   1.00
C114   C     0.09675   0.51801   0.22299   0.00000  Uiso   1.00
C115   C     0.44963   0.48099   0.11016   0.00000  Uiso   1.00
C116   C     0.05037   0.51901   0.22318   0.00000  Uiso   1.00
C117   C     0.47672   0.50025   0.16621   0.00000  Uiso   1.00
C118   C     0.02328   0.49975   0.16712   0.00000  Uiso   1.00
C119   C     0.45721   0.51978   0.22149   0.00000  Uiso   1.00
C120   C     0.25136   0.60010   0.18225   0.00000  Uiso   1.00
C121   C     0.04279   0.48022   0.11185   0.00000  Uiso   1.00
C122   C     0.46936   0.46037   0.05538   0.00000  Uiso   1.00
C123   C     0.03064   0.53963   0.27795   0.00000  Uiso   1.00
C124   C     0.44437   0.38796   0.31383   0.00000  Uiso   1.00
C125   C     0.05563   0.61204   0.01951   0.00000  Uiso   1.00
C126   C     0.01598   0.46107   0.05653   0.00000  Uiso   1.00
C127   C     0.48402   0.53893   0.27681   0.00000  Uiso   1.00
C128   C     0.24798   0.34394   0.14229   0.00000  Uiso   1.00
C129   C     0.25202   0.65606   0.19104   0.00000  Uiso   1.00
C130   C     0.16436   0.49966   0.16723   0.00000  Uiso   1.00
C131   C     0.33564   0.50034   0.16611   0.00000  Uiso   1.00
C132   C     0.41099   0.51967   0.22077   0.00000  Uiso   1.00
Cu133  Cu    0.25500   0.50579   0.22813   0.00000  Uiso   1.00
Cu134  Cu    0.24499   0.49421   0.10521   0.00000  Uiso   1.00
H135   H     0.39605   0.53458   0.26340   0.00000  Uiso   1.00
H136   H     0.28501   0.54076   0.01728   0.00000  Uiso   1.00
H137   H     0.41977   0.37404   0.27309   0.00000  Uiso   1.00
H138   H     0.43483   0.36753   0.01688   0.00000  Uiso   1.00
H139   H     0.47776   0.37660   0.29929   0.00000  Uiso   1.00
H140   H     0.06516   0.63248   0.31647   0.00000  Uiso   1.00
H141   H     0.08023   0.62596   0.06025   0.00000  Uiso   1.00
H142   H     0.02224   0.62339   0.03406   0.00000  Uiso   1.00
H143   H     0.10395   0.46542   0.06993   0.00000  Uiso   1.00
H144   H     0.38195   0.46716   0.06799   0.00000  Uiso   1.00
H145   H     0.11805   0.53284   0.26534   0.00000  Uiso   1.00
H146   H     0.03122   0.44701   0.01397   0.00000  Uiso   1.00
H147   H     0.46878   0.55299   0.31937   0.00000  Uiso   1.00
H148   H     0.24415   0.65342   0.09531   0.00000  Uiso   1.00
H149   H     0.25585   0.34658   0.23802   0.00000  Uiso   1.00
H150   H     0.21498   0.45924   0.31605   0.00000  Uiso   1.00
N151   N     0.23744   0.48547   0.01284   0.00000  Uiso   1.00
N152   N     0.26255   0.51453   0.32049   0.00000  Uiso   1.00
O153   O     0.25325   0.42871   0.20659   0.00000  Uiso   1.00
O154   O     0.05692   0.55676   0.33323   0.00000  Uiso   1.00
O155   O     0.24674   0.57129   0.12674   0.00000  Uiso   1.00
O156   O     0.24480   0.41892   0.10279   0.00000  Uiso   1.00
O157   O     0.25520   0.58108   0.23055   0.00000  Uiso   1.00
O158   O     0.18935   0.50488   0.21857   0.00000  Uiso   1.00
O159   O     0.31064   0.49512   0.11476   0.00000  Uiso   1.00
O160   O     0.18090   0.49510   0.11477   0.00000  Uiso   1.00
O161   O     0.31910   0.50490   0.21857   0.00000  Uiso   1.00
O162   O     0.44308   0.44324   0.00010   0.00000  Uiso   1.00
C163   C     0.74864   0.39990   0.15109   0.00000  Uiso   1.00
C164   C     0.58900   0.48033   0.11256   0.00000  Uiso   1.00
C165   C     0.88401   0.50089   0.16547   0.00000  Uiso   1.00
C166   C     0.61599   0.49911   0.16787   0.00000  Uiso   1.00
C167   C     0.90325   0.48199   0.11035   0.00000  Uiso   1.00
C168   C     0.59675   0.51801   0.22299   0.00000  Uiso   1.00
C169   C     0.94963   0.48099   0.11016   0.00000  Uiso   1.00
C170   C     0.55037   0.51901   0.22318   0.00000  Uiso   1.00
C171   C     0.97672   0.50025   0.16621   0.00000  Uiso   1.00
C172   C     0.52328   0.49975   0.16712   0.00000  Uiso   1.00
C173   C     0.95721   0.51978   0.22149   0.00000  Uiso   1.00
C174   C     0.75136   0.60010   0.18225   0.00000  Uiso   1.00
C175   C     0.54279   0.48022   0.11185   0.00000  Uiso   1.00
C176   C     0.96936   0.46037   0.05538   0.00000  Uiso   1.00
C177   C     0.53064   0.53963   0.27795   0.00000  Uiso   1.00
C178   C     0.94437   0.38796   0.31383   0.00000  Uiso   1.00
C179   C     0.55563   0.61204   0.01951   0.00000  Uiso   1.00
C180   C     0.51598   0.46107   0.05653   0.00000  Uiso   1.00
C181   C     0.98402   0.53893   0.27681   0.00000  Uiso   1.00
C182   C     0.74798   0.34394   0.14229   0.00000  Uiso   1.00
C183   C     0.75202   0.65606   0.19104   0.00000  Uiso   1.00
C184   C     0.66436   0.49966   0.16723   0.00000  Uiso   1.00
C185   C     0.83564   0.50034   0.16611   0.00000  Uiso   1.00
C186   C     0.91099   0.51967   0.22077   0.00000  Uiso   1.00
Cu187  Cu    0.75500   0.50579   0.22813   0.00000  Uiso   1.00
Cu188  Cu    0.74499   0.49421   0.10521   0.00000  Uiso   1.00
H189   H     0.89605   0.53458   0.26340   0.00000  Uiso   1.00
H190   H     0.78501   0.54076   0.01728   0.00000  Uiso   1.00
H191   H     0.91977   0.37404   0.27309   0.00000  Uiso   1.00
H192   H     0.93483   0.36753   0.01688   0.00000  Uiso   1.00
H193   H     0.97776   0.37660   0.29929   0.00000  Uiso   1.00
H194   H     0.56516   0.63248   0.31647   0.00000  Uiso   1.00
H195   H     0.58023   0.62596   0.06025   0.00000  Uiso   1.00
H196   H     0.52224   0.62339   0.03406   0.00000  Uiso   1.00
H197   H     0.60395   0.46542   0.06993   0.00000  Uiso   1.00
H198   H     0.88195   0.46716   0.06799   0.00000  Uiso   1.00
H199   H     0.61805   0.53284   0.26534   0.00000  Uiso   1.00
H200   H     0.53122   0.44701   0.01397   0.00000  Uiso   1.00
H201   H     0.96878   0.55299   0.31937   0.00000  Uiso   1.00
H202   H     0.74415   0.65342   0.09531   0.00000  Uiso   1.00
H203   H     0.75585   0.34658   0.23802   0.00000  Uiso   1.00
H204   H     0.71498   0.45924   0.31605   0.00000  Uiso   1.00
N205   N     0.73744   0.48547   0.01284   0.00000  Uiso   1.00
N206   N     0.76255   0.51453   0.32049   0.00000  Uiso   1.00
O207   O     0.75325   0.42871   0.20659   0.00000  Uiso   1.00
O208   O     0.55692   0.55676   0.33323   0.00000  Uiso   1.00
O209   O     0.74674   0.57129   0.12674   0.00000  Uiso   1.00
O210   O     0.74480   0.41892   0.10279   0.00000  Uiso   1.00
O211   O     0.75520   0.58108   0.23055   0.00000  Uiso   1.00
O212   O     0.68935   0.50488   0.21857   0.00000  Uiso   1.00
O213   O     0.81064   0.49512   0.11476   0.00000  Uiso   1.00
O214   O     0.68090   0.49510   0.11477   0.00000  Uiso   1.00
O215   O     0.81910   0.50490   0.21857   0.00000  Uiso   1.00
O216   O     0.94308   0.44324   0.00010   0.00000  Uiso   1.00
C217   C     0.24864   0.73323   0.15109   0.00000  Uiso   1.00
C218   C     0.08900   0.81366   0.11256   0.00000  Uiso   1.00
C219   C     0.38401   0.83422   0.16547   0.00000  Uiso   1.00
C220   C     0.11599   0.83245   0.16787   0.00000  Uiso   1.00
C221   C     0.40325   0.81533   0.11035   0.00000  Uiso   1.00
C222   C     0.09675   0.85134   0.22299   0.00000  Uiso   1.00
C223   C     0.44963   0.81432   0.11016   0.00000  Uiso   1.00
C224   C     0.05037   0.85235   0.22318   0.00000  Uiso   1.00
C225   C     0.47672   0.83358   0.16621   0.00000  Uiso   1.00
C226   C     0.02328   0.83309   0.16712   0.00000  Uiso   1.00
C227   C     0.45721   0.85312   0.22149   0.00000  Uiso   1.00
C228   C     0.25136   0.93343   0.18225   0.00000  Uiso   1.00
C229   C     0.04279   0.81355   0.11185   0.00000  Uiso   1.00
C230   C     0.46936   0.79370   0.05538   0.00000  Uiso   1.00
C231   C     0.03064   0.87297   0.27795   0.00000  Uiso   1.00
C232   C     0.44437   0.72129   0.31383   0.00000  Uiso   1.00
C233   C     0.05563   0.94537   0.01951   0.00000  Uiso   1.00
C234   C     0.01598   0.79441   0.05653   0.00000  Uiso   1.00
C235   C     0.48402   0.87226   0.27681   0.00000  Uiso   1.00
C236   C     0.24798   0.67727   0.14229   0.00000  Uiso   1.00
C237   C     0.25202   0.98939   0.19104   0.00000  Uiso   1.00
C238   C     0.16436   0.83299   0.16723   0.00000  Uiso   1.00
C239   C     0.33564   0.83367   0.16611   0.00000  Uiso   1.00
C240   C     0.41099   0.85300   0.22077   0.00000  Uiso   1.00
Cu241  Cu    0.25500   0.83913   0.22813   0.00000  Uiso   1.00
Cu242  Cu    0.24499   0.82754   0.10521   0.00000  Uiso   1.00
H243   H     0.39605   0.86791   0.26340   0.00000  Uiso   1.00
H244   H     0.28501   0.87409   0.01728   0.00000  Uiso   1.00
H245   H     0.41977   0.70737   0.27309   0.00000  Uiso   1.00
H246   H     0.43483   0.70086   0.01688   0.00000  Uiso   1.00
H247   H     0.47776   0.70993   0.29929   0.00000  Uiso   1.00
H248   H     0.06516   0.96581   0.31647   0.00000  Uiso   1.00
H249   H     0.08023   0.95929   0.06025   0.00000  Uiso   1.00
H250   H     0.02224   0.95673   0.03406   0.00000  Uiso   1.00
H251   H     0.10395   0.79875   0.06993   0.00000  Uiso   1.00
H252   H     0.38195   0.80049   0.06799   0.00000  Uiso   1.00
H253   H     0.11805   0.86617   0.26534   0.00000  Uiso   1.00
H254   H     0.03122   0.78035   0.01397   0.00000  Uiso   1.00
H255   H     0.46878   0.88632   0.31937   0.00000  Uiso   1.00
H256   H     0.24415   0.98675   0.09531   0.00000  Uiso   1.00
H257   H     0.25585   0.67992   0.23802   0.00000  Uiso   1.00
H258   H     0.21498   0.79258   0.31605   0.00000  Uiso   1.00
N259   N     0.23744   0.81881   0.01284   0.00000  Uiso   1.00
N260   N     0.26255   0.84786   0.32049   0.00000  Uiso   1.00
O261   O     0.25325   0.76204   0.20659   0.00000  Uiso   1.00
O262   O     0.05692   0.89010   0.33323   0.00000  Uiso   1.00
O263   O     0.24674   0.90462   0.12674   0.00000  Uiso   1.00
O264   O     0.24480   0.75226   0.10279   0.00000  Uiso   1.00
O265   O     0.25520   0.91441   0.23055   0.00000  Uiso   1.00
O266   O     0.18935   0.83821   0.21857   0.00000  Uiso   1.00
O267   O     0.31064   0.82845   0.11476   0.00000  Uiso   1.00
O268   O     0.18090   0.82843   0.11477   0.00000  Uiso   1.00
O269   O     0.31910   0.83824   0.21857   0.00000  Uiso   1.00
O270   O     0.44308   0.77657   0.00010   0.00000  Uiso   1.00
C271   C     0.74864   0.73323   0.15109   0.00000  Uiso   1.00
C272   C     0.58900   0.81366   0.11256   0.00000  Uiso   1.00
C273   C     0.88401   0.83422   0.16547   0.00000  Uiso   1.00
C274   C     0.61599   0.83245   0.16787   0.00000  Uiso   1.00
C275   C     0.90325   0.81533   0.11035   0.00000  Uiso   1.00
C276   C     0.59675   0.85134   0.22299   0.00000  Uiso   1.00
C277   C     0.94963   0.81432   0.11016   0.00000  Uiso   1.00
C278   C     0.55037   0.85235   0.22318   0.00000  Uiso   1.00
C279   C     0.97672   0.83358   0.16621   0.00000  Uiso   1.00
C280   C     0.52328   0.83309   0.16712   0.00000  Uiso   1.00
C281   C     0.95721   0.85312   0.22149   0.00000  Uiso   1.00
C282   C     0.75136   0.93343   0.18225   0.00000  Uiso   1.00
C283   C     0.54279   0.81355   0.11185   0.00000  Uiso   1.00
C284   C     0.96936   0.79370   0.05538   0.00000  Uiso   1.00
C285   C     0.53064   0.87297   0.27795   0.00000  Uiso   1.00
C286   C     0.94437   0.72129   0.31383   0.00000  Uiso   1.00
C287   C     0.55563   0.94537   0.01951   0.00000  Uiso   1.00
C288   C     0.51598   0.79441   0.05653   0.00000  Uiso   1.00
C289   C     0.98402   0.87226   0.27681   0.00000  Uiso   1.00
C290   C     0.74798   0.67727   0.14229   0.00000  Uiso   1.00
C291   C     0.75202   0.98939   0.19104   0.00000  Uiso   1.00
C292   C     0.66436   0.83299   0.16723   0.00000  Uiso   1.00
C293   C     0.83564   0.83367   0.16611   0.00000  Uiso   1.00
C294   C     0.91099   0.85300   0.22077   0.00000  Uiso   1.00
Cu295  Cu    0.75500   0.83913   0.22813   0.00000  Uiso   1.00
Cu296  Cu    0.74499   0.82754   0.10521   0.00000  Uiso   1.00
H297   H     0.89605   0.86791   0.26340   0.00000  Uiso   1.00
H298   H     0.78501   0.87409   0.01728   0.00000  Uiso   1.00
H299   H     0.91977   0.70737   0.27309   0.00000  Uiso   1.00
H300   H     0.93483   0.70086   0.01688   0.00000  Uiso   1.00
H301   H     0.97776   0.70993   0.29929   0.00000  Uiso   1.00
H302   H     0.56516   0.96581   0.31647   0.00000  Uiso   1.00
H303   H     0.58023   0.95929   0.06025   0.00000  Uiso   1.00
H304   H     0.52224   0.95673   0.03406   0.00000  Uiso   1.00
H305   H     0.60395   0.79875   0.06993   0.00000  Uiso   1.00
H306   H     0.88195   0.80049   0.06799   0.00000  Uiso   1.00
H307   H     0.61805   0.86617   0.26534   0.00000  Uiso   1.00
H308   H     0.53122   0.78035   0.01397   0.00000  Uiso   1.00
H309   H     0.96878   0.88632   0.31937   0.00000  Uiso   1.00
H310   H     0.74415   0.98675   0.09531   0.00000  Uiso   1.00
H311   H     0.75585   0.67992   0.23802   0.00000  Uiso   1.00
H312   H     0.71498   0.79258   0.31605   0.00000  Uiso   1.00
N313   N     0.73744   0.81881   0.01284   0.00000  Uiso   1.00
N314   N     0.76255   0.84786   0.32049   0.00000  Uiso   1.00
O315   O     0.75325   0.76204   0.20659   0.00000  Uiso   1.00
O316   O     0.55692   0.89010   0.33323   0.00000  Uiso   1.00
O317   O     0.74674   0.90462   0.12674   0.00000  Uiso   1.00
O318   O     0.74480   0.75226   0.10279   0.00000  Uiso   1.00
O319   O     0.75520   0.91441   0.23055   0.00000  Uiso   1.00
O320   O     0.68935   0.83821   0.21857   0.00000  Uiso   1.00
O321   O     0.81064   0.82845   0.11476   0.00000  Uiso   1.00
O322   O     0.68090   0.82843   0.11477   0.00000  Uiso   1.00
O323   O     0.81910   0.83824   0.21857   0.00000  Uiso   1.00
O324   O     0.94308   0.77657   0.00010   0.00000  Uiso   1.00
C325   C     0.24864   0.06657   0.48442   0.00000  Uiso   1.00
C326   C     0.08900   0.14700   0.44590   0.00000  Uiso   1.00
C327   C     0.38401   0.16755   0.49880   0.00000  Uiso   1.00
C328   C     0.11599   0.16578   0.50120   0.00000  Uiso   1.00
C329   C     0.40325   0.14866   0.44368   0.00000  Uiso   1.00
C330   C     0.09675   0.18467   0.55632   0.00000  Uiso   1.00
C331   C     0.44963   0.14765   0.44349   0.00000  Uiso   1.00
C332   C     0.05037   0.18568   0.55651   0.00000  Uiso   1.00
C333   C     0.47672   0.16691   0.49954   0.00000  Uiso   1.00
C334   C     0.02328   0.16642   0.50046   0.00000  Uiso   1.00
C335   C     0.45721   0.18645   0.55482   0.00000  Uiso   1.00
C336   C     0.25136   0.26677   0.51558   0.00000  Uiso   1.00
C337   C     0.04279   0.14688   0.44518   0.00000  Uiso   1.00
C338   C     0.46936   0.12703   0.38871   0.00000  Uiso   1.00
C339   C     0.03064   0.20630   0.61129   0.00000  Uiso   1.00
C340   C     0.44437   0.05462   0.64716   0.00000  Uiso   1.00
C341   C     0.05563   0.27871   0.35284   0.00000  Uiso   1.00
C342   C     0.01598   0.12774   0.38986   0.00000  Uiso   1.00
C343   C     0.48402   0.20559   0.61014   0.00000  Uiso   1.00
C344   C     0.24798   0.01061   0.47563   0.00000  Uiso   1.00
C345   C     0.25202   0.32273   0.52437   0.00000  Uiso   1.00
C346   C     0.16436   0.16633   0.50056   0.00000  Uiso   1.00
C347   C     0.33564   0.16701   0.49944   0.00000  Uiso   1.00
C348   C     0.41099   0.18634   0.55410   0.00000  Uiso   1.00
Cu349  Cu    0.25500   0.17246   0.56146   0.00000  Uiso   1.00
Cu350  Cu    0.24499   0.16087   0.43854   0.00000  Uiso   1.00
H351   H     0.39605   0.20125   0.59673   0.00000  Uiso   1.00
H352   H     0.28501   0.20742   0.35061   0.00000  Uiso   1.00
H353   H     0.41977   0.04071   0.60642   0.00000  Uiso   1.00
H354   H     0.43483   0.03419   0.35021   0.00000  Uiso   1.00
H355   H     0.47776   0.04326   0.63263   0.00000  Uiso   1.00
H356   H     0.06516   0.29914   0.64980   0.00000  Uiso   1.00
H357   H     0.08023   0.29263   0.39358   0.00000  Uiso   1.00
H358   H     0.02224   0.29006   0.36739   0.00000  Uiso   1.00
H359   H     0.10395   0.13209   0.40326   0.00000  Uiso   1.00
H360   H     0.38195   0.13383   0.40132   0.00000  Uiso   1.00
H361   H     0.11805   0.19951   0.59868   0.00000  Uiso   1.00
H362   H     0.03122   0.11368   0.34730   0.00000  Uiso   1.00
H363   H     0.46878   0.21965   0.65270   0.00000  Uiso   1.00
H364   H     0.24415   0.32008   0.42865   0.00000  Uiso   1.00
H365   H     0.25585   0.01325   0.57135   0.00000  Uiso   1.00
H366   H     0.21498   0.12591   0.64939   0.00000  Uiso   1.00
N367   N     0.23744   0.15214   0.34617   0.00000  Uiso   1.00
N368   N     0.26255   0.18119   0.65383   0.00000  Uiso   1.00
O369   O     0.25325   0.09538   0.53992   0.00000  Uiso   1.00
O370   O     0.05692   0.22343   0.66656   0.00000  Uiso   1.00
O371   O     0.24674   0.23796   0.46008   0.00000  Uiso   1.00
O372   O     0.24480   0.08559   0.43612   0.00000  Uiso   1.00
O373   O     0.25520   0.24774   0.56388   0.00000  Uiso   1.00
O374   O     0.18935   0.17155   0.55191   0.00000  Uiso   1.00
O375   O     0.31064   0.16179   0.44809   0.00000  Uiso   1.00
O376   O     0.18090   0.16176   0.44810   0.00000  Uiso   1.00
O377   O     0.31910   0.17157   0.55190   0.00000  Uiso   1.00
O378   O     0.44308   0.10990   0.33344   0.00000  Uiso   1.00
C379   C     0.74864   0.06657   0.48442   0.00000  Uiso   1.00
C380   C     0.58900   0.14700   0.44590   0.00000  Uiso   1.00
C381   C     0.88401   0.16755   0.49880   0.00000  Uiso   1.00
C382   C     0.61599   0.16578   0.50120   0.00000  Uiso   1.00
C383   C     0.90325   0.14866   0.44368   0.00000  Uiso   1.00
C384   C     0.59675   0.18467   0.55632   0.00000  Uiso   1.00
C385   C     0.94963   0.14765   0.44349   0.00000  Uiso   1.00
C386   C     0.55037   0.18568   0.55651   0.00000  Uiso   1.00
C387   C     0.97672   0.16691   0.49954   0.00000  Uiso   1.00
C388   C     0.52328   0.16642   0.50046   0.00000  Uiso   1.00
C389   C     0.95721   0.18645   0.55482   0.00000  Uiso   1.00
C390   C     0.75136   0.26677   0.51558   0.00000  Uiso   1.00
C391   C     0.54279   0.14688   0.44518   0.00000  Uiso   1.00
C392   C     0.96936   0.12703   0.38871   0.00000  Uiso   1.00
C393   C     0.53064   0.20630   0.61129   0.00000  Uiso   1.00
C394   C     0.94437   0.05462   0.64716   0.00000  Uiso   1.00
C395   C     0.55563   0.27871   0.35284   0.00000  Uiso   1.00
C396   C     0.51598   0.12774   0.38986   0.00000  Uiso   1.00
C397   C     0.98402   0.20559   0.61014   0.00000  Uiso   1.00
C398   C     0.74798   0.01061   0.47563   0.00000  Uiso   1.00
C399   C     0.75202   0.32273   0.52437   0.00000  Uiso   1.00
C400   C     0.66436   0.16633   0.50056   0.00000  Uiso   1.00
C401   C     0.83564   0.16701   0.49944   0.00000  Uiso   1.00
C402   C     0.91099   0.18634   0.55410   0.00000  Uiso   1.00
Cu403  Cu    0.75500   0.17246   0.56146   0.00000  Uiso   1.00
Cu404  Cu    0.74499   0.16087   0.43854   0.00000  Uiso   1.00
H405   H     0.89605   0.20125   0.59673   0.00000  Uiso   1.00
H406   H     0.78501   0.20742   0.35061   0.00000  Uiso   1.00
H407   H     0.91977   0.04071   0.60642   0.00000  Uiso   1.00
H408   H     0.93483   0.03419   0.35021   0.00000  Uiso   1.00
H409   H     0.97776   0.04326   0.63263   0.00000  Uiso   1.00
H410   H     0.56516   0.29914   0.64980   0.00000  Uiso   1.00
H411   H     0.58023   0.29263   0.39358   0.00000  Uiso   1.00
H412   H     0.52224   0.29006   0.36739   0.00000  Uiso   1.00
H413   H     0.60395   0.13209   0.40326   0.00000  Uiso   1.00
H414   H     0.88195   0.13383   0.40132   0.00000  Uiso   1.00
H415   H     0.61805   0.19951   0.59868   0.00000  Uiso   1.00
H416   H     0.53122   0.11368   0.34730   0.00000  Uiso   1.00
H417   H     0.96878   0.21965   0.65270   0.00000  Uiso   1.00
H418   H     0.74415   0.32008   0.42865   0.00000  Uiso   1.00
H419   H     0.75585   0.01325   0.57135   0.00000  Uiso   1.00
H420   H     0.71498   0.12591   0.64939   0.00000  Uiso   1.00
N421   N     0.73744   0.15214   0.34617   0.00000  Uiso   1.00
N422   N     0.76255   0.18119   0.65383   0.00000  Uiso   1.00
O423   O     0.75325   0.09538   0.53992   0.00000  Uiso   1.00
O424   O     0.55692   0.22343   0.66656   0.00000  Uiso   1.00
O425   O     0.74674   0.23796   0.46008   0.00000  Uiso   1.00
O426   O     0.74480   0.08559   0.43612   0.00000  Uiso   1.00
O427   O     0.75520   0.24774   0.56388   0.00000  Uiso   1.00
O428   O     0.68935   0.17155   0.55191   0.00000  Uiso   1.00
O429   O     0.81064   0.16179   0.44809   0.00000  Uiso   1.00
O430   O     0.68090   0.16176   0.44810   0.00000  Uiso   1.00
O431   O     0.81910   0.17157   0.55190   0.00000  Uiso   1.00
O432   O     0.94308   0.10990   0.33344   0.00000  Uiso   1.00
C433   C     0.24864   0.39990   0.48442   0.00000  Uiso   1.00
C434   C     0.08900   0.48033   0.44590   0.00000  Uiso   1.00
C435   C     0.38401   0.50089   0.49880   0.00000  Uiso   1.00
C436   C     0.11599   0.49911   0.50120   0.00000  Uiso   1.00
C437   C     0.40325   0.48199   0.44368   0.00000  Uiso   1.00
C438   C     0.09675   0.51801   0.55632   0.00000  Uiso   1.00
C439   C     0.44963   0.48099   0.44349   0.00000  Uiso   1.00
C440   C     0.05037   0.51901   0.55651   0.00000  Uiso   1.00
C441   C     0.47672   0.50025   0.49954   0.00000  Uiso   1.00
C442   C     0.02328   0.49975   0.50046   0.00000  Uiso   1.00
C443   C     0.45721   0.51978   0.55482   0.00000  Uiso   1.00
C444   C     0.25136   0.60010   0.51558   0.00000  Uiso   1.00
C445   C     0.04279   0.48022   0.44518   0.00000  Uiso   1.00
C446   C     0.46936   0.46037   0.38871   0.00000  Uiso   1.00
C447   C     0.03064   0.53963   0.61129   0.00000  Uiso   1.00
C448   C     0.44437   0.38796   0.64716   0.00000  Uiso   1.00
C449   C     0.05563   0.61204   0.35284   0.00000  Uiso   1.00
C450   C     0.01598   0.46107   0.38986   0.00000  Uiso   1.00
C451   C     0.48402   0.53893   0.61014   0.00000  Uiso   1.00
C452   C     0.24798   0.34394   0.47563   0.00000  Uiso   1.00
C453   C     0.25202   0.65606   0.52437   0.00000  Uiso   1.00
C454   C     0.16436   0.49966   0.50056   0.00000  Uiso   1.00
C455   C     0.33564   0.50034   0.49944   0.00000  Uiso   1.00
C456   C     0.41099   0.51967   0.55410   0.00000  Uiso   1.00
Cu457  Cu    0.25500   0.50579   0.56146   0.00000  Uiso   1.00
Cu458  Cu    0.24499   0.49421   0.43854   0.00000  Uiso   1.00
H459   H     0.39605   0.53458   0.59673   0.00000  Uiso   1.00
H460   H     0.28501   0.54076   0.35061   0.00000  Uiso   1.00
H461   H     0.41977   0.37404   0.60642   0.00000  Uiso   1.00
H462   H     0.43483   0.36753   0.35021   0.00000  Uiso   1.00
H463   H     0.47776   0.37660   0.63263   0.00000  Uiso   1.00
H464   H     0.06516   0.63248   0.64980   0.00000  Uiso   1.00
H465   H     0.08023   0.62596   0.39358   0.00000  Uiso   1.00
H466   H     0.02224   0.62339   0.36739   0.00000  Uiso   1.00
H467   H     0.10395   0.46542   0.40326   0.00000  Uiso   1.00
H468   H     0.38195   0.46716   0.40132   0.00000  Uiso   1.00
H469   H     0.11805   0.53284   0.59868   0.00000  Uiso   1.00
H470   H     0.03122   0.44701   0.34730   0.00000  Uiso   1.00
H471   H     0.46878   0.55299   0.65270   0.00000  Uiso   1.00
H472   H     0.24415   0.65342   0.42865   0.00000  Uiso   1.00
H473   H     0.25585   0.34658   0.57135   0.00000  Uiso   1.00
H474   H     0.21498   0.45924   0.64939   0.00000  Uiso   1.00
N475   N     0.23744   0.48547   0.34617   0.00000  Uiso   1.00
N476   N     0.26255   0.51453   0.65383   0.00000  Uiso   1.00
O477   O     0.25325   0.42871   0.53992   0.00000  Uiso   1.00
O478   O     0.05692   0.55676   0.66656   0.00000  Uiso   1.00
O479   O     0.24674   0.57129   0.46008   0.00000  Uiso   1.00
O480   O     0.24480   0.41892   0.43612   0.00000  Uiso   1.00
O481   O     0.25520   0.58108   0.56388   0.00000  Uiso   1.00
O482   O     0.18935   0.50488   0.55191   0.00000  Uiso   1.00
O483   O     0.31064   0.49512   0.44809   0.00000  Uiso   1.00
O484   O     0.18090   0.49510   0.44810   0.00000  Uiso   1.00
O485   O     0.31910   0.50490   0.55190   0.00000  Uiso   1.00
O486   O     0.44308   0.44324   0.33344   0.00000  Uiso   1.00
C487   C     0.74864   0.39990   0.48442   0.00000  Uiso   1.00
C488   C     0.58900   0.48033   0.44590   0.00000  Uiso   1.00
C489   C     0.88401   0.50089   0.49880   0.00000  Uiso   1.00
C490   C     0.61599   0.49911   0.50120   0.00000  Uiso   1.00
C491   C     0.90325   0.48199   0.44368   0.00000  Uiso   1.00
C492   C     0.59675   0.51801   0.55632   0.00000  Uiso   1.00
C493   C     0.94963   0.48099   0.44349   0.00000  Uiso   1.00
C494   C     0.55037   0.51901   0.55651   0.00000  Uiso   1.00
C495   C     0.97672   0.50025   0.49954   0.00000  Uiso   1.00
C496   C     0.52328   0.49975   0.50046   0.00000  Uiso   1.00
C497   C     0.95721   0.51978   0.55482   0.00000  Uiso   1.00
C498   C     0.75136   0.60010   0.51558   0.00000  Uiso   1.00
C499   C     0.54279   0.48022   0.44518   0.00000  Uiso   1.00
C500   C     0.96936   0.46037   0.38871   0.00000  Uiso   1.00
C501   C     0.53064   0.53963   0.61129   0.00000  Uiso   1.00
C502   C     0.94437   0.38796   0.64716   0.00000  Uiso   1.00
C503   C     0.55563   0.61204   0.35284   0.00000  Uiso   1.00
C504   C     0.51598   0.46107   0.38986   0.00000  Uiso   1.00
C505   C     0.98402   0.53893   0.61014   0.00000  Uiso   1.00
C506   C     0.74798   0.34394   0.47563   0.00000  Uiso   1.00
C507   C     0.75202   0.65606   0.52437   0.00000  Uiso   1.00
C508   C     0.66436   0.49966   0.50056   0.00000  Uiso   1.00
C509   C     0.83564   0.50034   0.49944   0.00000  Uiso   1.00
C510   C     0.91099   0.51967   0.55410   0.00000  Uiso   1.00
Cu511  Cu    0.75500   0.50579   0.56146   0.00000  Uiso   1.00
Cu512  Cu    0.74499   0.49421   0.43854   0.00000  Uiso   1.00
H513   H     0.89605   0.53458   0.59673   0.00000  Uiso   1.00
H514   H     0.78501   0.54076   0.35061   0.00000  Uiso   1.00
H515   H     0.91977   0.37404   0.60642   0.00000  Uiso   1.00
H516   H     0.93483   0.36753   0.35021   0.00000  Uiso   1.00
H517   H     0.97776   0.37660   0.63263   0.00000  Uiso   1.00
H518   H     0.56516   0.63248   0.64980   0.00000  Uiso   1.00
H519   H     0.58023   0.62596   0.39358   0.00000  Uiso   1.00
H520   H     0.52224   0.62339   0.36739   0.00000  Uiso   1.00
H521   H     0.60395   0.46542   0.40326   0.00000  Uiso   1.00
H522   H     0.88195   0.46716   0.40132   0.00000  Uiso   1.00
H523   H     0.61805   0.53284   0.59868   0.00000  Uiso   1.00
H524   H     0.53122   0.44701   0.34730   0.00000  Uiso   1.00
H525   H     0.96878   0.55299   0.65270   0.00000  Uiso   1.00
H526   H     0.74415   0.65342   0.42865   0.00000  Uiso   1.00
H527   H     0.75585   0.34658   0.57135   0.00000  Uiso   1.00
H528   H     0.71498   0.45924   0.64939   0.00000  Uiso   1.00
N529   N     0.73744   0.48547   0.34617   0.00000  Uiso   1.00
N530   N     0.76255   0.51453   0.65383   0.00000  Uiso   1.00
O531   O     0.75325   0.42871   0.53992   0.00000  Uiso   1.00
O532   O     0.55692   0.55676   0.66656   0.00000  Uiso   1.00
O533   O     0.74674   0.57129   0.46008   0.00000  Uiso   1.00
O534   O     0.74480   0.41892   0.43612   0.00000  Uiso   1.00
O535   O     0.75520   0.58108   0.56388   0.00000  Uiso   1.00
O536   O     0.68935   0.50488   0.55191   0.00000  Uiso   1.00
O537   O     0.81064   0.49512   0.44809   0.00000  Uiso   1.00
O538   O     0.68090   0.49510   0.44810   0.00000  Uiso   1.00
O539   O     0.81910   0.50490   0.55190   0.00000  Uiso   1.00
O540   O     0.94308   0.44324   0.33344   0.00000  Uiso   1.00
C541   C     0.24864   0.73323   0.48442   0.00000  Uiso   1.00
C542   C     0.08900   0.81366   0.44590   0.00000  Uiso   1.00
C543   C     0.38401   0.83422   0.49880   0.00000  Uiso   1.00
C544   C     0.11599   0.83245   0.50120   0.00000  Uiso   1.00
C545   C     0.40325   0.81533   0.44368   0.00000  Uiso   1.00
C546   C     0.09675   0.85134   0.55632   0.00000  Uiso   1.00
C547   C     0.44963   0.81432   0.44349   0.00000  Uiso   1.00
C548   C     0.05037   0.85235   0.55651   0.00000  Uiso   1.00
C549   C     0.47672   0.83358   0.49954   0.00000  Uiso   1.00
C550   C     0.02328   0.83309   0.50046   0.00000  Uiso   1.00
C551   C     0.45721   0.85312   0.55482   0.00000  Uiso   1.00
C552   C     0.25136   0.93343   0.51558   0.00000  Uiso   1.00
C553   C     0.04279   0.81355   0.44518   0.00000  Uiso   1.00
C554   C     0.46936   0.79370   0.38871   0.00000  Uiso   1.00
C555   C     0.03064   0.87297   0.61129   0.00000  Uiso   1.00
C556   C     0.44437   0.72129   0.64716   0.00000  Uiso   1.00
C557   C     0.05563   0.94537   0.35284   0.00000  Uiso   1.00
C558   C     0.01598   0.79441   0.38986   0.00000  Uiso   1.00
C559   C     0.48402   0.87226   0.61014   0.00000  Uiso   1.00
C560   C     0.24798   0.67727   0.47563   0.00000  Uiso   1.00
C561   C     0.25202   0.98939   0.52437   0.00000  Uiso   1.00
C562   C     0.16436   0.83299   0.50056   0.00000  Uiso   1.00
C563   C     0.33564   0.83367   0.49944   0.00000  Uiso   1.00
C564   C     0.41099   0.85300   0.55410   0.00000  Uiso   1.00
Cu565  Cu    0.25500   0.83913   0.56146   0.00000  Uiso   1.00
Cu566  Cu    0.24499   0.82754   0.43854   0.00000  Uiso   1.00
H567   H     0.39605   0.86791   0.59673   0.00000  Uiso   1.00
H568   H     0.28501   0.87409   0.35061   0.00000  Uiso   1.00
H569   H     0.41977   0.70737   0.60642   0.00000  Uiso   1.00
H570   H     0.43483   0.70086   0.35021   0.00000  Uiso   1.00
H571   H     0.47776   0.70993   0.63263   0.00000  Uiso   1.00
H572   H     0.06516   0.96581   0.64980   0.00000  Uiso   1.00
H573   H     0.08023   0.95929   0.39358   0.00000  Uiso   1.00
H574   H     0.02224   0.95673   0.36739   0.00000  Uiso   1.00
H575   H     0.10395   0.79875   0.40326   0.00000  Uiso   1.00
H576   H     0.38195   0.80049   0.40132   0.00000  Uiso   1.00
H577   H     0.11805   0.86617   0.59868   0.00000  Uiso   1.00
H578   H     0.03122   0.78035   0.34730   0.00000  Uiso   1.00
H579   H     0.46878   0.88632   0.65270   0.00000  Uiso   1.00
H580   H     0.24415   0.98675   0.42865   0.00000  Uiso   1.00
H581   H     0.25585   0.67992   0.57135   0.00000  Uiso   1.00
H582   H     0.21498   0.79258   0.64939   0.00000  Uiso   1.00
N583   N     0.23744   0.81881   0.34617   0.00000  Uiso   1.00
N584   N     0.26255   0.84786   0.65383   0.00000  Uiso   1.00
O585   O     0.25325   0.76204   0.53992   0.00000  Uiso   1.00
O586   O     0.05692   0.89010   0.66656   0.00000  Uiso   1.00
O587   O     0.24674   0.90462   0.46008   0.00000  Uiso   1.00
O588   O     0.24480   0.75226   0.43612   0.00000  Uiso   1.00
O589   O     0.25520   0.91441   0.56388   0.00000  Uiso   1.00
O590   O     0.18935   0.83821   0.55191   0.00000  Uiso   1.00
O591   O     0.31064   0.82845   0.44809   0.00000  Uiso   1.00
O592   O     0.18090   0.82843   0.44810   0.00000  Uiso   1.00
O593   O     0.31910   0.83824   0.55190   0.00000  Uiso   1.00
O594   O     0.44308   0.77657   0.33344   0.00000  Uiso   1.00
C595   C     0.74864   0.73323   0.48442   0.00000  Uiso   1.00
C596   C     0.58900   0.81366   0.44590   0.00000  Uiso   1.00
C597   C     0.88401   0.83422   0.49880   0.00000  Uiso   1.00
C598   C     0.61599   0.83245   0.50120   0.00000  Uiso   1.00
C599   C     0.90325   0.81533   0.44368   0.00000  Uiso   1.00
C600   C     0.59675   0.85134   0.55632   0.00000  Uiso   1.00
C601   C     0.94963   0.81432   0.44349   0.00000  Uiso   1.00
C602   C     0.55037   0.85235   0.55651   0.00000  Uiso   1.00
C603   C     0.97672   0.83358   0.49954   0.00000  Uiso   1.00
C604   C     0.52328   0.83309   0.50046   0.00000  Uiso   1.00
C605   C     0.95721   0.85312   0.55482   0.00000  Uiso   1.00
C606   C     0.75136   0.93343   0.51558   0.00000  Uiso   1.00
C607   C     0.54279   0.81355   0.44518   0.00000  Uiso   1.00
C608   C     0.96936   0.79370   0.38871   0.00000  Uiso   1.00
C609   C     0.53064   0.87297   0.61129   0.00000  Uiso   1.00
C610   C     0.94437   0.72129   0.64716   0.00000  Uiso   1.00
C611   C     0.55563   0.94537   0.35284   0.00000  Uiso   1.00
C612   C     0.51598   0.79441   0.38986   0.00000  Uiso   1.00
C613   C     0.98402   0.87226   0.61014   0.00000  Uiso   1.00
C614   C     0.74798   0.67727   0.47563   0.00000  Uiso   1.00
C615   C     0.75202   0.98939   0.52437   0.00000  Uiso   1.00
C616   C     0.66436   0.83299   0.50056   0.00000  Uiso   1.00
C617   C     0.83564   0.83367   0.49944   0.00000  Uiso   1.00
C618   C     0.91099   0.85300   0.55410   0.00000  Uiso   1.00
Cu619  Cu    0.75500   0.83913   0.56146   0.00000  Uiso   1.00
Cu620  Cu    0.74499   0.82754   0.43854   0.00000  Uiso   1.00
H621   H     0.89605   0.86791   0.59673   0.00000  Uiso   1.00
H622   H     0.78501   0.87409   0.35061   0.00000  Uiso   1.00
H623   H     0.91977   0.70737   0.60642   0.00000  Uiso   1.00
H624   H     0.93483   0.70086   0.35021   0.00000  Uiso   1.00
H625   H     0.97776   0.70993   0.63263   0.00000  Uiso   1.00
H626   H     0.56516   0.96581   0.64980   0.00000  Uiso   1.00
H627   H     0.58023   0.95929   0.39358   0.00000  Uiso   1.00
H628   H     0.52224   0.95673   0.36739   0.00000  Uiso   1.00
H629   H     0.60395   0.79875   0.40326   0.00000  Uiso   1.00
H630   H     0.88195   0.80049   0.40132   0.00000  Uiso   1.00
H631   H     0.61805   0.86617   0.59868   0.00000  Uiso   1.00
H632   H     0.53122   0.78035   0.34730   0.00000  Uiso   1.00
H633   H     0.96878   0.88632   0.65270   0.00000  Uiso   1.00
H634   H     0.74415   0.98675   0.42865   0.00000  Uiso   1.00
H635   H     0.75585   0.67992   0.57135   0.00000  Uiso   1.00
H636   H     0.71498   0.79258   0.64939   0.00000  Uiso   1.00
N637   N     0.73744   0.81881   0.34617   0.00000  Uiso   1.00
N638   N     0.76255   0.84786   0.65383   0.00000  Uiso   1.00
O639   O     0.75325   0.76204   0.53992   0.00000  Uiso   1.00
O640   O     0.55692   0.89010   0.66656   0.00000  Uiso   1.00
O641   O     0.74674   0.90462   0.46008   0.00000  Uiso   1.00
O642   O     0.74480   0.75226   0.43612   0.00000  Uiso   1.00
O643   O     0.75520   0.91441   0.56388   0.00000  Uiso   1.00
O644   O     0.68935   0.83821   0.55191   0.00000  Uiso   1.00
O645   O     0.81064   0.82845   0.44809   0.00000  Uiso   1.00
O646   O     0.68090   0.82843   0.44810   0.00000  Uiso   1.00
O647   O     0.81910   0.83824   0.55190   0.00000  Uiso   1.00
O648   O     0.94308   0.77657   0.33344   0.00000  Uiso   1.00
C649   C     0.24864   0.06657   0.81775   0.00000  Uiso   1.00
C650   C     0.08900   0.14700   0.77923   0.00000  Uiso   1.00
C651   C     0.38401   0.16755   0.83213   0.00000  Uiso   1.00
C652   C     0.11599   0.16578   0.83453   0.00000  Uiso   1.00
C653   C     0.40325   0.14866   0.77701   0.00000  Uiso   1.00
C654   C     0.09675   0.18467   0.88965   0.00000  Uiso   1.00
C655   C     0.44963   0.14765   0.77682   0.00000  Uiso   1.00
C656   C     0.05037   0.18568   0.88984   0.00000  Uiso   1.00
C657   C     0.47672   0.16691   0.83288   0.00000  Uiso   1.00
C658   C     0.02328   0.16642   0.83379   0.00000  Uiso   1.00
C659   C     0.45721   0.18645   0.88815   0.00000  Uiso   1.00
C660   C     0.25136   0.26677   0.84891   0.00000  Uiso   1.00
C661   C     0.04279   0.14688   0.77851   0.00000  Uiso   1.00
C662   C     0.46936   0.12703   0.72205   0.00000  Uiso   1.00
C663   C     0.03064   0.20630   0.94462   0.00000  Uiso   1.00
C664   C     0.44437   0.05462   0.98050   0.00000  Uiso   1.00
C665   C     0.05563   0.27871   0.68618   0.00000  Uiso   1.00
C666   C     0.01598   0.12774   0.72319   0.00000  Uiso   1.00
C667   C     0.48402   0.20559   0.94347   0.00000  Uiso   1.00
C668   C     0.24798   0.01061   0.80896   0.00000  Uiso   1.00
C669   C     0.25202   0.32273   0.85771   0.00000  Uiso   1.00
C670   C     0.16436   0.16633   0.83389   0.00000  Uiso   1.00
C671   C     0.33564   0.16701   0.83277   0.00000  Uiso   1.00
C672   C     0.41099   0.18634   0.88744   0.00000  Uiso   1.00
Cu673  Cu    0.25500   0.17246   0.89479   0.00000  Uiso   1.00
Cu674  Cu    0.24499   0.16087   0.77187   0.00000  Uiso   1.00
H675   H     0.39605   0.20125   0.93007   0.00000  Uiso   1.00
H676   H     0.28501   0.20742   0.68395   0.00000  Uiso   1.00
H677   H     0.41977   0.04071   0.93976   0.00000  Uiso   1.00
H678   H     0.43483   0.03419   0.68354   0.00000  Uiso   1.00
H679   H     0.47776   0.04326   0.96596   0.00000  Uiso   1.00
H680   H     0.06516   0.29914   0.98313   0.00000  Uiso   1.00
H681   H     0.08023   0.29263   0.72691   0.00000  Uiso   1.00
H682   H     0.02224   0.29006   0.70072   0.00000  Uiso   1.00
H683   H     0.10395   0.13209   0.73660   0.00000  Uiso   1.00
H684   H     0.38195   0.13383   0.73466   0.00000  Uiso   1.00
H685   H     0.11805   0.19951   0.93201   0.00000  Uiso   1.00
H686   H     0.03122   0.11368   0.68063   0.00000  Uiso   1.00
H687   H     0.46878   0.21965   0.98603   0.00000  Uiso   1.00
H688   H     0.24415   0.32008   0.76198   0.00000  Uiso   1.00
H689   H     0.25585   0.01325   0.90468   0.00000  Uiso   1.00
H690   H     0.21498   0.12591   0.98272   0.00000  Uiso   1.00
N691   N     0.23744   0.15214   0.67951   0.00000  Uiso   1.00
N692   N     0.26255   0.18119   0.98716   0.00000  Uiso   1.00
O693   O     0.25325   0.09538   0.87326   0.00000  Uiso   1.00
O694   O     0.05692   0.22343   0.99990   0.00000  Uiso   1.00
O695   O     0.24674   0.23796   0.79341   0.00000  Uiso   1.00
O696   O     0.24480   0.08559   0.76945   0.00000  Uiso   1.00
O697   O     0.25520   0.24774   0.89721   0.00000  Uiso   1.00
O698   O     0.18935   0.17155   0.88524   0.00000  Uiso   1.00
O699   O     0.31064   0.16179   0.78143   0.00000  Uiso   1.00
O700   O     0.18090   0.16176   0.78143   0.00000  Uiso   1.00
O701   O     0.31910   0.17157   0.88523   0.00000  Uiso   1.00
O702   O     0.44308   0.10990   0.66677   0.00000  Uiso   1.00
C703   C     0.74864   0.06657   0.81775   0.00000  Uiso   1.00
C704   C     0.58900   0.14700   0.77923   0.00000  Uiso   1.00
C705   C     0.88401   0.16755   0.83213   0.00000  Uiso   1.00
C706   C     0.61599   0.16578   0.83453   0.00000  Uiso   1.00
C707   C     0.90325   0.14866   0.77701   0.00000  Uiso   1.00
C708   C     0.59675   0.18467   0.88965   0.00000  Uiso   1.00
C709   C     0.94963   0.14765   0.77682   0.00000  Uiso   1.00
C710   C     0.55037   0.18568   0.88984   0.00000  Uiso   1.00
C711   C     0.97672   0.16691   0.83288   0.00000  Uiso   1.00
C712   C     0.52328   0.16642   0.83379   0.00000  Uiso   1.00
C713   C     0.95721   0.18645   0.88815   0.00000  Uiso   1.00
C714   C     0.75136   0.26677   0.84891   0.00000  Uiso   1.00
C715   C     0.54279   0.14688   0.77851   0.00000  Uiso   1.00
C716   C     0.96936   0.12703   0.72205   0.00000  Uiso   1.00
C717   C     0.53064   0.20630   0.94462   0.00000  Uiso   1.00
C718   C     0.94437   0.05462   0.98050   0.00000  Uiso   1.00
C719   C     0.55563   0.27871   0.68618   0.00000  Uiso   1.00
C720   C     0.51598   0.12774   0.72319   0.00000  Uiso   1.00
C721   C     0.98402   0.20559   0.94347   0.00000  Uiso   1.00
C722   C     0.74798   0.01061   0.80896   0.00000  Uiso   1.00
C723   C     0.75202   0.32273   0.85771   0.00000  Uiso   1.00
C724   C     0.66436   0.16633   0.83389   0.00000  Uiso   1.00
C725   C     0.83564   0.16701   0.83277   0.00000  Uiso   1.00
C726   C     0.91099   0.18634   0.88744   0.00000  Uiso   1.00
Cu727  Cu    0.75500   0.17246   0.89479   0.00000  Uiso   1.00
Cu728  Cu    0.74499   0.16087   0.77187   0.00000  Uiso   1.00
H729   H     0.89605   0.20125   0.93007   0.00000  Uiso   1.00
H730   H     0.78501   0.20742   0.68395   0.00000  Uiso   1.00
H731   H     0.91977   0.04071   0.93976   0.00000  Uiso   1.00
H732   H     0.93483   0.03419   0.68354   0.00000  Uiso   1.00
H733   H     0.97776   0.04326   0.96596   0.00000  Uiso   1.00
H734   H     0.56516   0.29914   0.98313   0.00000  Uiso   1.00
H735   H     0.58023   0.29263   0.72691   0.00000  Uiso   1.00
H736   H     0.52224   0.29006   0.70072   0.00000  Uiso   1.00
H737   H     0.60395   0.13209   0.73660   0.00000  Uiso   1.00
H738   H     0.88195   0.13383   0.73466   0.00000  Uiso   1.00
H739   H     0.61805   0.19951   0.93201   0.00000  Uiso   1.00
H740   H     0.53122   0.11368   0.68063   0.00000  Uiso   1.00
H741   H     0.96878   0.21965   0.98603   0.00000  Uiso   1.00
H742   H     0.74415   0.32008   0.76198   0.00000  Uiso   1.00
H743   H     0.75585   0.01325   0.90468   0.00000  Uiso   1.00
H744   H     0.71498   0.12591   0.98272   0.00000  Uiso   1.00
N745   N     0.73744   0.15214   0.67951   0.00000  Uiso   1.00
N746   N     0.76255   0.18119   0.98716   0.00000  Uiso   1.00
O747   O     0.75325   0.09538   0.87326   0.00000  Uiso   1.00
O748   O     0.55692   0.22343   0.99990   0.00000  Uiso   1.00
O749   O     0.74674   0.23796   0.79341   0.00000  Uiso   1.00
O750   O     0.74480   0.08559   0.76945   0.00000  Uiso   1.00
O751   O     0.75520   0.24774   0.89721   0.00000  Uiso   1.00
O752   O     0.68935   0.17155   0.88524   0.00000  Uiso   1.00
O753   O     0.81064   0.16179   0.78143   0.00000  Uiso   1.00
O754   O     0.68090   0.16176   0.78143   0.00000  Uiso   1.00
O755   O     0.81910   0.17157   0.88523   0.00000  Uiso   1.00
O756   O     0.94308   0.10990   0.66677   0.00000  Uiso   1.00
C757   C     0.24864   0.39990   0.81775   0.00000  Uiso   1.00
C758   C     0.08900   0.48033   0.77923   0.00000  Uiso   1.00
C759   C     0.38401   0.50089   0.83213   0.00000  Uiso   1.00
C760   C     0.11599   0.49911   0.83453   0.00000  Uiso   1.00
C761   C     0.40325   0.48199   0.77701   0.00000  Uiso   1.00
C762   C     0.09675   0.51801   0.88965   0.00000  Uiso   1.00
C763   C     0.44963   0.48099   0.77682   0.00000  Uiso   1.00
C764   C     0.05037   0.51901   0.88984   0.00000  Uiso   1.00
C765   C     0.47672   0.50025   0.83288   0.00000  Uiso   1.00
C766   C     0.02328   0.49975   0.83379   0.00000  Uiso   1.00
C767   C     0.45721   0.51978   0.88815   0.00000  Uiso   1.00
C768   C     0.25136   0.60010   0.84891   0.00000  Uiso   1.00
C769   C     0.04279   0.48022   0.77851   0.00000  Uiso   1.00
C770   C     0.46936   0.46037   0.72205   0.00000  Uiso   1.00
C771   C     0.03064   0.53963   0.94462   0.00000  Uiso   1.00
C772   C     0.44437   0.38796   0.98050   0.00000  Uiso   1.00
C773   C     0.05563   0.61204   0.68618   0.00000  Uiso   1.00
C774   C     0.01598   0.46107   0.72319   0.00000  Uiso   1.00
C775   C     0.48402   0.53893   0.94347   0.00000  Uiso   1.00
C776   C     0.24798   0.34394   0.80896   0.00000  Uiso   1.00
C777   C     0.25202   0.65606   0.85771   0.00000  Uiso   1.00
C778   C     0.16436   0.49966   0.83389   0.00000  Uiso   1.00
C779   C     0.33564   0.50034   0.83277   0.00000  Uiso   1.00
C780   C     0.41099   0.51967   0.88744   0.00000  Uiso   1.00
Cu781  Cu    0.25500   0.50579   0.89479   0.00000  Uiso   1.00
Cu782  Cu    0.24499   0.49421   0.77187   0.00000  Uiso   1.00
H783   H     0.39605   0.53458   0.93007   0.00000  Uiso   1.00
H784   H     0.28501   0.54076   0.68395   0.00000  Uiso   1.00
H785   H     0.41977   0.37404   0.93976   0.00000  Uiso   1.00
H786   H     0.43483   0.36753   0.68354   0.00000  Uiso   1.00
H787   H     0.47776   0.37660   0.96596   0.00000  Uiso   1.00
H788   H     0.06516   0.63248   0.98313   0.00000  Uiso   1.00
H789   H     0.08023   0.62596   0.72691   0.00000  Uiso   1.00
H790   H     0.02224   0.62339   0.70072   0.00000  Uiso   1.00
H791   H     0.10395   0.46542   0.73660   0.00000  Uiso   1.00
H792   H     0.38195   0.46716   0.73466   0.00000  Uiso   1.00
H793   H     0.11805   0.53284   0.93201   0.00000  Uiso   1.00
H794   H     0.03122   0.44701   0.68063   0.00000  Uiso   1.00
H795   H     0.46878   0.55299   0.98603   0.00000  Uiso   1.00
H796   H     0.24415   0.65342   0.76198   0.00000  Uiso   1.00
H797   H     0.25585   0.34658   0.90468   0.00000  Uiso   1.00
H798   H     0.21498   0.45924   0.98272   0.00000  Uiso   1.00
N799   N     0.23744   0.48547   0.67951   0.00000  Uiso   1.00
N800   N     0.26255   0.51453   0.98716   0.00000  Uiso   1.00
O801   O     0.25325   0.42871   0.87326   0.00000  Uiso   1.00
O802   O     0.05692   0.55676   0.99990   0.00000  Uiso   1.00
O803   O     0.24674   0.57129   0.79341   0.00000  Uiso   1.00
O804   O     0.24480   0.41892   0.76945   0.00000  Uiso   1.00
O805   O     0.25520   0.58108   0.89721   0.00000  Uiso   1.00
O806   O     0.18935   0.50488   0.88524   0.00000  Uiso   1.00
O807   O     0.31064   0.49512   0.78143   0.00000  Uiso   1.00
O808   O     0.18090   0.49510   0.78143   0.00000  Uiso   1.00
O809   O     0.31910   0.50490   0.88523   0.00000  Uiso   1.00
O810   O     0.44308   0.44324   0.66677   0.00000  Uiso   1.00
C811   C     0.74864   0.39990   0.81775   0.00000  Uiso   1.00
C812   C     0.58900   0.48033   0.77923   0.00000  Uiso   1.00
C813   C     0.88401   0.50089   0.83213   0.00000  Uiso   1.00
C814   C     0.61599   0.49911   0.83453   0.00000  Uiso   1.00
C815   C     0.90325   0.48199   0.77701   0.00000  Uiso   1.00
C816   C     0.59675   0.51801   0.88965   0.00000  Uiso   1.00
C817   C     0.94963   0.48099   0.77682   0.00000  Uiso   1.00
C818   C     0.55037   0.51901   0.88984   0.00000  Uiso   1.00
C819   C     0.97672   0.50025   0.83288   0.00000  Uiso   1.00
C820   C     0.52328   0.49975   0.83379   0.00000  Uiso   1.00
C821   C     0.95721   0.51978   0.88815   0.00000  Uiso   1.00
C822   C     0.75136   0.60010   0.84891   0.00000  Uiso   1.00
C823   C     0.54279   0.48022   0.77851   0.00000  Uiso   1.00
C824   C     0.96936   0.46037   0.72205   0.00000  Uiso   1.00
C825   C     0.53064   0.53963   0.94462   0.00000  Uiso   1.00
C826   C     0.94437   0.38796   0.98050   0.00000  Uiso   1.00
C827   C     0.55563   0.61204   0.68618   0.00000  Uiso   1.00
C828   C     0.51598   0.46107   0.72319   0.00000  Uiso   1.00
C829   C     0.98402   0.53893   0.94347   0.00000  Uiso   1.00
C830   C     0.74798   0.34394   0.80896   0.00000  Uiso   1.00
C831   C     0.75202   0.65606   0.85771   0.00000  Uiso   1.00
C832   C     0.66436   0.49966   0.83389   0.00000  Uiso   1.00
C833   C     0.83564   0.50034   0.83277   0.00000  Uiso   1.00
C834   C     0.91099   0.51967   0.88744   0.00000  Uiso   1.00
Cu835  Cu    0.75500   0.50579   0.89479   0.00000  Uiso   1.00
Cu836  Cu    0.74499   0.49421   0.77187   0.00000  Uiso   1.00
H837   H     0.89605   0.53458   0.93007   0.00000  Uiso   1.00
H838   H     0.78501   0.54076   0.68395   0.00000  Uiso   1.00
H839   H     0.91977   0.37404   0.93976   0.00000  Uiso   1.00
H840   H     0.93483   0.36753   0.68354   0.00000  Uiso   1.00
H841   H     0.97776   0.37660   0.96596   0.00000  Uiso   1.00
H842   H     0.56516   0.63248   0.98313   0.00000  Uiso   1.00
H843   H     0.58023   0.62596   0.72691   0.00000  Uiso   1.00
H844   H     0.52224   0.62339   0.70072   0.00000  Uiso   1.00
H845   H     0.60395   0.46542   0.73660   0.00000  Uiso   1.00
H846   H     0.88195   0.46716   0.73466   0.00000  Uiso   1.00
H847   H     0.61805   0.53284   0.93201   0.00000  Uiso   1.00
H848   H     0.53122   0.44701   0.68063   0.00000  Uiso   1.00
H849   H     0.96878   0.55299   0.98603   0.00000  Uiso   1.00
H850   H     0.74415   0.65342   0.76198   0.00000  Uiso   1.00
H851   H     0.75585   0.34658   0.90468   0.00000  Uiso   1.00
H852   H     0.71498   0.45924   0.98272   0.00000  Uiso   1.00
N853   N     0.73744   0.48547   0.67951   0.00000  Uiso   1.00
N854   N     0.76255   0.51453   0.98716   0.00000  Uiso   1.00
O855   O     0.75325   0.42871   0.87326   0.00000  Uiso   1.00
O856   O     0.55692   0.55676   0.99990   0.00000  Uiso   1.00
O857   O     0.74674   0.57129   0.79341   0.00000  Uiso   1.00
O858   O     0.74480   0.41892   0.76945   0.00000  Uiso   1.00
O859   O     0.75520   0.58108   0.89721   0.00000  Uiso   1.00
O860   O     0.68935   0.50488   0.88524   0.00000  Uiso   1.00
O861   O     0.81064   0.49512   0.78143   0.00000  Uiso   1.00
O862   O     0.68090   0.49510   0.78143   0.00000  Uiso   1.00
O863   O     0.81910   0.50490   0.88523   0.00000  Uiso   1.00
O864   O     0.94308   0.44324   0.66677   0.00000  Uiso   1.00
C865   C     0.24864   0.73323   0.81775   0.00000  Uiso   1.00
C866   C     0.08900   0.81366   0.77923   0.00000  Uiso   1.00
C867   C     0.38401   0.83422   0.83213   0.00000  Uiso   1.00
C868   C     0.11599   0.83245   0.83453   0.00000  Uiso   1.00
C869   C     0.40325   0.81533   0.77701   0.00000  Uiso   1.00
C870   C     0.09675   0.85134   0.88965   0.00000  Uiso   1.00
C871   C     0.44963   0.81432   0.77682   0.00000  Uiso   1.00
C872   C     0.05037   0.85235   0.88984   0.00000  Uiso   1.00
C873   C     0.47672   0.83358   0.83288   0.00000  Uiso   1.00
C874   C     0.02328   0.83309   0.83379   0.00000  Uiso   1.00
C875   C     0.45721   0.85312   0.88815   0.00000  Uiso   1.00
C876   C     0.25136   0.93343   0.84891   0.00000  Uiso   1.00
C877   C     0.04279   0.81355   0.77851   0.00000  Uiso   1.00
C878   C     0.46936   0.79370   0.72205   0.00000  Uiso   1.00
C879   C     0.03064   0.87297   0.94462   0.00000  Uiso   1.00
C880   C     0.44437   0.72129   0.98050   0.00000  Uiso   1.00
C881   C     0.05563   0.94537   0.68618   0.00000  Uiso   1.00
C882   C     0.01598   0.79441   0.72319   0.00000  Uiso   1.00
C883   C     0.48402   0.87226   0.94347   0.00000  Uiso   1.00
C884   C     0.24798   0.67727   0.80896   0.00000  Uiso   1.00
C885   C     0.25202   0.98939   0.85771   0.00000  Uiso   1.00
C886   C     0.16436   0.83299   0.83389   0.00000  Uiso   1.00
C887   C     0.33564   0.83367   0.83277   0.00000  Uiso   1.00
C888   C     0.41099   0.85300   0.88744   0.00000  Uiso   1.00
Cu889  Cu    0.25500   0.83913   0.89479   0.00000  Uiso   1.00
Cu890  Cu    0.24499   0.82754   0.77187   0.00000  Uiso   1.00
H891   H     0.39605   0.86791   0.93007   0.00000  Uiso   1.00
H892   H     0.28501   0.87409   0.68395   0.00000  Uiso   1.00
H893   H     0.41977   0.70737   0.93976   0.00000  Uiso   1.00
H894   H     0.43483   0.70086   0.68354   0.00000  Uiso   1.00
H895   H     0.47776   0.70993   0.96596   0.00000  Uiso   1.00
H896   H     0.06516   0.96581   0.98313   0.00000  Uiso   1.00
H897   H     0.08023   0.95929   0.72691   0.00000  Uiso   1.00
H898   H     0.02224   0.95673   0.70072   0.00000  Uiso   1.00
H899   H     0.10395   0.79875   0.73660   0.00000  Uiso   1.00
H900   H     0.38195   0.80049   0.73466   0.00000  Uiso   1.00
H901   H     0.11805   0.86617   0.93201   0.00000  Uiso   1.00
H902   H     0.03122   0.78035   0.68063   0.00000  Uiso   1.00
H903   H     0.46878   0.88632   0.98603   0.00000  Uiso   1.00
H904   H     0.24415   0.98675   0.76198   0.00000  Uiso   1.00
H905   H     0.25585   0.67992   0.90468   0.00000  Uiso   1.00
H906   H     0.21498   0.79258   0.98272   0.00000  Uiso   1.00
N907   N     0.23744   0.81881   0.67951   0.00000  Uiso   1.00
N908   N     0.26255   0.84786   0.98716   0.00000  Uiso   1.00
O909   O     0.25325   0.76204   0.87326   0.00000  Uiso   1.00
O910   O     0.05692   0.89010   0.99990   0.00000  Uiso   1.00
O911   O     0.24674   0.90462   0.79341   0.00000  Uiso   1.00
O912   O     0.24480   0.75226   0.76945   0.00000  Uiso   1.00
O913   O     0.25520   0.91441   0.89721   0.00000  Uiso   1.00
O914   O     0.18935   0.83821   0.88524   0.00000  Uiso   1.00
O915   O     0.31064   0.82845   0.78143   0.00000  Uiso   1.00
O916   O     0.18090   0.82843   0.78143   0.00000  Uiso   1.00
O917   O     0.31910   0.83824   0.88523   0.00000  Uiso   1.00
O918   O     0.44308   0.77657   0.66677   0.00000  Uiso   1.00
C919   C     0.74864   0.73323   0.81775   0.00000  Uiso   1.00
C920   C     0.58900   0.81366   0.77923   0.00000  Uiso   1.00
C921   C     0.88401   0.83422   0.83213   0.00000  Uiso   1.00
C922   C     0.61599   0.83245   0.83453   0.00000  Uiso   1.00
C923   C     0.90325   0.81533   0.77701   0.00000  Uiso   1.00
C924   C     0.59675   0.85134   0.88965   0.00000  Uiso   1.00
C925   C     0.94963   0.81432   0.77682   0.00000  Uiso   1.00
C926   C     0.55037   0.85235   0.88984   0.00000  Uiso   1.00
C927   C     0.97672   0.83358   0.83288   0.00000  Uiso   1.00
C928   C     0.52328   0.83309   0.83379   0.00000  Uiso   1.00
C929   C     0.95721   0.85312   0.88815   0.00000  Uiso   1.00
C930   C     0.75136   0.93343   0.84891   0.00000  Uiso   1.00
C931   C     0.54279   0.81355   0.77851   0.00000  Uiso   1.00
C932   C     0.96936   0.79370   0.72205   0.00000  Uiso   1.00
C933   C     0.53064   0.87297   0.94462   0.00000  Uiso   1.00
C934   C     0.94437   0.72129   0.98050   0.00000  Uiso   1.00
C935   C     0.55563   0.94537   0.68618   0.00000  Uiso   1.00
C936   C     0.51598   0.79441   0.72319   0.00000  Uiso   1.00
C937   C     0.98402   0.87226   0.94347   0.00000  Uiso   1.00
C938   C     0.74798   0.67727   0.80896   0.00000  Uiso   1.00
C939   C     0.75202   0.98939   0.85771   0.00000  Uiso   1.00
C940   C     0.66436   0.83299   0.83389   0.00000  Uiso   1.00
C941   C     0.83564   0.83367   0.83277   0.00000  Uiso   1.00
C942   C     0.91099   0.85300   0.88744   0.00000  Uiso   1.00
Cu943  Cu    0.75500   0.83913   0.89479   0.00000  Uiso   1.00
Cu944  Cu    0.74499   0.82754   0.77187   0.00000  Uiso   1.00
H945   H     0.89605   0.86791   0.93007   0.00000  Uiso   1.00
H946   H     0.78501   0.87409   0.68395   0.00000  Uiso   1.00
H947   H     0.91977   0.70737   0.93976   0.00000  Uiso   1.00
H948   H     0.93483   0.70086   0.68354   0.00000  Uiso   1.00
H949   H     0.97776   0.70993   0.96596   0.00000  Uiso   1.00
H950   H     0.56516   0.96581   0.98313   0.00000  Uiso   1.00
H951   H     0.58023   0.95929   0.72691   0.00000  Uiso   1.00
H952   H     0.52224   0.95673   0.70072   0.00000  Uiso   1.00
H953   H     0.60395   0.79875   0.73660   0.00000  Uiso   1.00
H954   H     0.88195   0.80049   0.73466   0.00000  Uiso   1.00
H955   H     0.61805   0.86617   0.93201   0.00000  Uiso   1.00
H956   H     0.53122   0.78035   0.68063   0.00000  Uiso   1.00
H957   H     0.96878   0.88632   0.98603   0.00000  Uiso   1.00
H958   H     0.74415   0.98675   0.76198   0.00000  Uiso   1.00
H959   H     0.75585   0.67992   0.90468   0.00000  Uiso   1.00
H960   H     0.71498   0.79258   0.98272   0.00000  Uiso   1.00
N961   N     0.73744   0.81881   0.67951   0.00000  Uiso   1.00
N962   N     0.76255   0.84786   0.98716   0.00000  Uiso   1.00
O963   O     0.75325   0.76204   0.87326   0.00000  Uiso   1.00
O964   O     0.55692   0.89010   0.99990   0.00000  Uiso   1.00
O965   O     0.74674   0.90462   0.79341   0.00000  Uiso   1.00
O966   O     0.74480   0.75226   0.76945   0.00000  Uiso   1.00
O967   O     0.75520   0.91441   0.89721   0.00000  Uiso   1.00
O968   O     0.68935   0.83821   0.88524   0.00000  Uiso   1.00
O969   O     0.81064   0.82845   0.78143   0.00000  Uiso   1.00
O970   O     0.68090   0.82843   0.78143   0.00000  Uiso   1.00
O971   O     0.81910   0.83824   0.88523   0.00000  Uiso   1.00
O972   O     0.94308   0.77657   0.66677   0.00000  Uiso   1.00
loop_
_geom_bond_atom_site_label_1
_geom_bond_atom_site_label_2
_geom_bond_distance
_geom_bond_site_symmetry_2
_ccdc_geom_bond_type
C1     O48     1.283   .     A
C1     O45     1.291   .     A
C1     C20     1.425   .     S
C2     H35     1.085   .     S
C2     C4      1.401   .     A
C2     C13     1.389   .     A
C3     C24     1.401   .     A
C3     C23     1.456   .     S
C3     C5      1.399   .     A
C4     C22     1.456   .     S
C4     C6      1.399   .     A
C5     H36     1.084   .     S
C5     C7      1.397   .     A
C6     H37     1.084   .     S
C6     C8      1.397   .     A
C7     C9      1.417   .     A
C7     C14     1.409   .     A
C8     C15     1.409   .     A
C8     C10     1.417   .     A
C9     C11     1.409   .     A
C9     C64     1.400   .     S
C10    C13     1.409   .     A
C10    C63     1.400   1_455 S
C11    C19     1.400   .     A
C11    C24     1.389   .     A
C12    O49     1.283   .     A
C12    O47     1.291   .     A
C12    C21     1.425   .     S
C13    C18     1.400   .     A
C14    O54     1.385   .     S
C14    C72     1.400   .     S
C15    O46     1.385   .     S
C15    C73     1.400   1_455 S
C16    H31     1.112   .     S
C16    H29     1.109   .     S
C16    H354    1.114   .     S
C16    O378    1.411   .     S
C17    H33     1.109   .     S
C17    H34     1.112   .     S
C17    H680    1.114   1_554 S
C17    O694    1.411   1_554 S
C18    H38     1.084   .     S
C18    C68     1.400   1_455 S
C19    H39     1.084   .     S
C19    C69     1.400   .     S
C20    C237    1.326   1_545 S
C20    H256    1.088   1_545 S
C21    C128    1.326   .     S
C21    H149    1.088   .     S
C22    O50     1.298   .     A
C22    O52     1.292   .     A
C23    O51     1.298   .     A
C23    O53     1.292   .     A
C24    H27     1.085   .     S
Cu25   N44     2.017   .     S
Cu25   O53     1.958   .     S
Cu25   O49     1.948   .     S
Cu25   O45     1.953   .     S
Cu25   O50     1.969   .     S
Cu25   Cu26    2.685   .     S
Cu26   O52     1.958   .     S
Cu26   O48     1.948   .     S
Cu26   O51     1.969   .     S
Cu26   N43     2.017   .     S
Cu26   O47     1.953   .     S
H28    N692    1.029   1_554 S
H30    C664    1.114   1_554 S
H32    C341    1.114   .     S
H40    C128    1.088   .     S
H41    C237    1.088   1_545 S
H42    N367    1.029   .     S
N43    H690    1.029   1_554 S
N43    N692    1.298   1_554 S
N44    N367    1.298   .     S
N44    H352    1.029   .     S
O46    C341    1.411   .     S
O54    C664    1.411   1_554 S
C55    O102    1.283   .     A
C55    O99     1.291   .     A
C55    C74     1.425   .     S
C56    H89     1.085   .     S
C56    C58     1.401   .     A
C56    C67     1.389   .     A
C57    C78     1.401   .     A
C57    C77     1.456   .     S
C57    C59     1.399   .     A
C58    C76     1.456   .     S
C58    C60     1.399   .     A
C59    H90     1.084   .     S
C59    C61     1.397   .     A
C60    H91     1.084   .     S
C60    C62     1.397   .     A
C61    C63     1.417   .     A
C61    C68     1.409   .     A
C62    C69     1.409   .     A
C62    C64     1.417   .     A
C63    C65     1.409   .     A
C63    C10     1.400   1_655 S
C64    C67     1.409   .     A
C65    C73     1.400   .     A
C65    C78     1.389   .     A
C66    O103    1.283   .     A
C66    O101    1.291   .     A
C66    C75     1.425   .     S
C67    C72     1.400   .     A
C68    O108    1.385   .     S
C68    C18     1.400   1_655 S
C69    O100    1.385   .     S
C70    H85     1.112   .     S
C70    H83     1.109   .     S
C70    H408    1.114   .     S
C70    O432    1.411   .     S
C71    H87     1.109   .     S
C71    H88     1.112   .     S
C71    H734    1.114   1_554 S
C71    O748    1.411   1_554 S
C72    H92     1.084   .     S
C73    H93     1.084   .     S
C73    C15     1.400   1_655 S
C74    C291    1.326   1_545 S
C74    H310    1.088   1_545 S
C75    C182    1.326   .     S
C75    H203    1.088   .     S
C76    O104    1.298   .     A
C76    O106    1.292   .     A
C77    O105    1.298   .     A
C77    O107    1.292   .     A
C78    H81     1.085   .     S
Cu79   N98     2.017   .     S
Cu79   O107    1.958   .     S
Cu79   O103    1.948   .     S
Cu79   O99     1.953   .     S
Cu79   O104    1.969   .     S
Cu79   Cu80    2.685   .     S
Cu80   O106    1.958   .     S
Cu80   O102    1.948   .     S
Cu80   O105    1.969   .     S
Cu80   N97     2.017   .     S
Cu80   O101    1.953   .     S
H82    N746    1.029   1_554 S
H84    C718    1.114   1_554 S
H86    C395    1.114   .     S
H94    C182    1.088   .     S
H95    C291    1.088   1_545 S
H96    N421    1.029   .     S
N97    H744    1.029   1_554 S
N97    N746    1.298   1_554 S
N98    N421    1.298   .     S
N98    H406    1.029   .     S
O100   C395    1.411   .     S
O108   C718    1.411   1_554 S
C109   O156    1.283   .     A
C109   O153    1.291   .     A
C109   C128    1.425   .     S
C110   H143    1.085   .     S
C110   C112    1.401   .     A
C110   C121    1.389   .     A
C111   C132    1.401   .     A
C111   C131    1.456   .     S
C111   C113    1.399   .     A
C112   C130    1.456   .     S
C112   C114    1.399   .     A
C113   H144    1.084   .     S
C113   C115    1.397   .     A
C114   H145    1.084   .     S
C114   C116    1.397   .     A
C115   C117    1.417   .     A
C115   C122    1.409   .     A
C116   C123    1.409   .     A
C116   C118    1.417   .     A
C117   C119    1.409   .     A
C117   C172    1.400   .     S
C118   C121    1.409   .     A
C118   C171    1.400   1_455 S
C119   C127    1.400   .     A
C119   C132    1.389   .     A
C120   O157    1.283   .     A
C120   O155    1.291   .     A
C120   C129    1.425   .     S
C121   C126    1.400   .     A
C122   O162    1.385   .     S
C122   C180    1.400   .     S
C123   O154    1.385   .     S
C123   C181    1.400   1_455 S
C124   H139    1.112   .     S
C124   H137    1.109   .     S
C124   H462    1.114   .     S
C124   O486    1.411   .     S
C125   H141    1.109   .     S
C125   H142    1.112   .     S
C125   H788    1.114   1_554 S
C125   O802    1.411   1_554 S
C126   H146    1.084   .     S
C126   C176    1.400   1_455 S
C127   H147    1.084   .     S
C127   C177    1.400   .     S
C129   C236    1.326   .     S
C129   H257    1.088   .     S
C130   O158    1.298   .     A
C130   O160    1.292   .     A
C131   O159    1.298   .     A
C131   O161    1.292   .     A
C132   H135    1.085   .     S
Cu133  N152    2.017   .     S
Cu133  O161    1.958   .     S
Cu133  O157    1.948   .     S
Cu133  O153    1.953   .     S
Cu133  O158    1.969   .     S
Cu133  Cu134   2.685   .     S
Cu134  O160    1.958   .     S
Cu134  O156    1.948   .     S
Cu134  O159    1.969   .     S
Cu134  N151    2.017   .     S
Cu134  O155    1.953   .     S
H136   N800    1.029   1_554 S
H138   C772    1.114   1_554 S
H140   C449    1.114   .     S
H148   C236    1.088   .     S
H150   N475    1.029   .     S
N151   H798    1.029   1_554 S
N151   N800    1.298   1_554 S
N152   N475    1.298   .     S
N152   H460    1.029   .     S
O154   C449    1.411   .     S
O162   C772    1.411   1_554 S
C163   O210    1.283   .     A
C163   O207    1.291   .     A
C163   C182    1.425   .     S
C164   H197    1.085   .     S
C164   C166    1.401   .     A
C164   C175    1.389   .     A
C165   C186    1.401   .     A
C165   C185    1.456   .     S
C165   C167    1.399   .     A
C166   C184    1.456   .     S
C166   C168    1.399   .     A
C167   H198    1.084   .     S
C167   C169    1.397   .     A
C168   H199    1.084   .     S
C168   C170    1.397   .     A
C169   C171    1.417   .     A
C169   C176    1.409   .     A
C170   C177    1.409   .     A
C170   C172    1.417   .     A
C171   C173    1.409   .     A
C171   C118    1.400   1_655 S
C172   C175    1.409   .     A
C173   C181    1.400   .     A
C173   C186    1.389   .     A
C174   O211    1.283   .     A
C174   O209    1.291   .     A
C174   C183    1.425   .     S
C175   C180    1.400   .     A
C176   O216    1.385   .     S
C176   C126    1.400   1_655 S
C177   O208    1.385   .     S
C178   H193    1.112   .     S
C178   H191    1.109   .     S
C178   H516    1.114   .     S
C178   O540    1.411   .     S
C179   H195    1.109   .     S
C179   H196    1.112   .     S
C179   H842    1.114   1_554 S
C179   O856    1.411   1_554 S
C180   H200    1.084   .     S
C181   H201    1.084   .     S
C181   C123    1.400   1_655 S
C183   C290    1.326   .     S
C183   H311    1.088   .     S
C184   O212    1.298   .     A
C184   O214    1.292   .     A
C185   O213    1.298   .     A
C185   O215    1.292   .     A
C186   H189    1.085   .     S
Cu187  N206    2.017   .     S
Cu187  O215    1.958   .     S
Cu187  O211    1.948   .     S
Cu187  O207    1.953   .     S
Cu187  O212    1.969   .     S
Cu187  Cu188   2.685   .     S
Cu188  O214    1.958   .     S
Cu188  O210    1.948   .     S
Cu188  O213    1.969   .     S
Cu188  N205    2.017   .     S
Cu188  O209    1.953   .     S
H190   N854    1.029   1_554 S
H192   C826    1.114   1_554 S
H194   C503    1.114   .     S
H202   C290    1.088   .     S
H204   N529    1.029   .     S
N205   H852    1.029   1_554 S
N205   N854    1.298   1_554 S
N206   N529    1.298   .     S
N206   H514    1.029   .     S
O208   C503    1.411   .     S
O216   C826    1.411   1_554 S
C217   O264    1.283   .     A
C217   O261    1.291   .     A
C217   C236    1.425   .     S
C218   H251    1.085   .     S
C218   C220    1.401   .     A
C218   C229    1.389   .     A
C219   C240    1.401   .     A
C219   C239    1.456   .     S
C219   C221    1.399   .     A
C220   C238    1.456   .     S
C220   C222    1.399   .     A
C221   H252    1.084   .     S
C221   C223    1.397   .     A
C222   H253    1.084   .     S
C222   C224    1.397   .     A
C223   C225    1.417   .     A
C223   C230    1.409   .     A
C224   C231    1.409   .     A
C224   C226    1.417   .     A
C225   C227    1.409   .     A
C225   C280    1.400   .     S
C226   C229    1.409   .     A
C226   C279    1.400   1_455 S
C227   C235    1.400   .     A
C227   C240    1.389   .     A
C228   O265    1.283   .     A
C228   O263    1.291   .     A
C228   C237    1.425   .     S
C229   C234    1.400   .     A
C230   O270    1.385   .     S
C230   C288    1.400   .     S
C231   O262    1.385   .     S
C231   C289    1.400   1_455 S
C232   H247    1.112   .     S
C232   H245    1.109   .     S
C232   H570    1.114   .     S
C232   O594    1.411   .     S
C233   H249    1.109   .     S
C233   H250    1.112   .     S
C233   H896    1.114   1_554 S
C233   O910    1.411   1_554 S
C234   H254    1.084   .     S
C234   C284    1.400   1_455 S
C235   H255    1.084   .     S
C235   C285    1.400   .     S
C237   C20     1.326   1_565 S
C237   H41     1.088   1_565 S
C238   O266    1.298   .     A
C238   O268    1.292   .     A
C239   O267    1.298   .     A
C239   O269    1.292   .     A
C240   H243    1.085   .     S
Cu241  N260    2.017   .     S
Cu241  O269    1.958   .     S
Cu241  O265    1.948   .     S
Cu241  O261    1.953   .     S
Cu241  O266    1.969   .     S
Cu241  Cu242   2.685   .     S
Cu242  O268    1.958   .     S
Cu242  O264    1.948   .     S
Cu242  O267    1.969   .     S
Cu242  N259    2.017   .     S
Cu242  O263    1.953   .     S
H244   N908    1.029   1_554 S
H246   C880    1.114   1_554 S
H248   C557    1.114   .     S
H256   C20     1.088   1_565 S
H258   N583    1.029   .     S
N259   H906    1.029   1_554 S
N259   N908    1.298   1_554 S
N260   N583    1.298   .     S
N260   H568    1.029   .     S
O262   C557    1.411   .     S
O270   C880    1.411   1_554 S
C271   O318    1.283   .     A
C271   O315    1.291   .     A
C271   C290    1.425   .     S
C272   H305    1.085   .     S
C272   C274    1.401   .     A
C272   C283    1.389   .     A
C273   C294    1.401   .     A
C273   C293    1.456   .     S
C273   C275    1.399   .     A
C274   C292    1.456   .     S
C274   C276    1.399   .     A
C275   H306    1.084   .     S
C275   C277    1.397   .     A
C276   H307    1.084   .     S
C276   C278    1.397   .     A
C277   C279    1.417   .     A
C277   C284    1.409   .     A
C278   C285    1.409   .     A
C278   C280    1.417   .     A
C279   C281    1.409   .     A
C279   C226    1.400   1_655 S
C280   C283    1.409   .     A
C281   C289    1.400   .     A
C281   C294    1.389   .     A
C282   O319    1.283   .     A
C282   O317    1.291   .     A
C282   C291    1.425   .     S
C283   C288    1.400   .     A
C284   O324    1.385   .     S
C284   C234    1.400   1_655 S
C285   O316    1.385   .     S
C286   H301    1.112   .     S
C286   H299    1.109   .     S
C286   H624    1.114   .     S
C286   O648    1.411   .     S
C287   H303    1.109   .     S
C287   H304    1.112   .     S
C287   H950    1.114   1_554 S
C287   O964    1.411   1_554 S
C288   H308    1.084   .     S
C289   H309    1.084   .     S
C289   C231    1.400   1_655 S
C291   C74     1.326   1_565 S
C291   H95     1.088   1_565 S
C292   O320    1.298   .     A
C292   O322    1.292   .     A
C293   O321    1.298   .     A
C293   O323    1.292   .     A
C294   H297    1.085   .     S
Cu295  N314    2.017   .     S
Cu295  O323    1.958   .     S
Cu295  O319    1.948   .     S
Cu295  O315    1.953   .     S
Cu295  O320    1.969   .     S
Cu295  Cu296   2.685   .     S
Cu296  O322    1.958   .     S
Cu296  O318    1.948   .     S
Cu296  O321    1.969   .     S
Cu296  N313    2.017   .     S
Cu296  O317    1.953   .     S
H298   N962    1.029   1_554 S
H300   C934    1.114   1_554 S
H302   C611    1.114   .     S
H310   C74     1.088   1_565 S
H312   N637    1.029   .     S
N313   H960    1.029   1_554 S
N313   N962    1.298   1_554 S
N314   N637    1.298   .     S
N314   H622    1.029   .     S
O316   C611    1.411   .     S
O324   C934    1.411   1_554 S
C325   O372    1.283   .     A
C325   O369    1.291   .     A
C325   C344    1.425   .     S
C326   H359    1.085   .     S
C326   C328    1.401   .     A
C326   C337    1.389   .     A
C327   C348    1.401   .     A
C327   C347    1.456   .     S
C327   C329    1.399   .     A
C328   C346    1.456   .     S
C328   C330    1.399   .     A
C329   H360    1.084   .     S
C329   C331    1.397   .     A
C330   H361    1.084   .     S
C330   C332    1.397   .     A
C331   C333    1.417   .     A
C331   C338    1.409   .     A
C332   C339    1.409   .     A
C332   C334    1.417   .     A
C333   C335    1.409   .     A
C333   C388    1.400   .     S
C334   C337    1.409   .     A
C334   C387    1.400   1_455 S
C335   C343    1.400   .     A
C335   C348    1.389   .     A
C336   O373    1.283   .     A
C336   O371    1.291   .     A
C336   C345    1.425   .     S
C337   C342    1.400   .     A
C338   O378    1.385   .     S
C338   C396    1.400   .     S
C339   O370    1.385   .     S
C339   C397    1.400   1_455 S
C340   H355    1.112   .     S
C340   H353    1.109   .     S
C340   H678    1.114   .     S
C340   O702    1.411   .     S
C341   H357    1.109   .     S
C341   H358    1.112   .     S
C342   H362    1.084   .     S
C342   C392    1.400   1_455 S
C343   H363    1.084   .     S
C343   C393    1.400   .     S
C344   C561    1.326   1_545 S
C344   H580    1.088   1_545 S
C345   C452    1.326   .     S
C345   H473    1.088   .     S
C346   O374    1.298   .     A
C346   O376    1.292   .     A
C347   O375    1.298   .     A
C347   O377    1.292   .     A
C348   H351    1.085   .     S
Cu349  N368    2.017   .     S
Cu349  O377    1.958   .     S
Cu349  O373    1.948   .     S
Cu349  O369    1.953   .     S
Cu349  O374    1.969   .     S
Cu349  Cu350   2.685   .     S
Cu350  O376    1.958   .     S
Cu350  O372    1.948   .     S
Cu350  O375    1.969   .     S
Cu350  N367    2.017   .     S
Cu350  O371    1.953   .     S
H356   C665    1.114   .     S
H364   C452    1.088   .     S
H365   C561    1.088   1_545 S
H366   N691    1.029   .     S
N368   N691    1.298   .     S
N368   H676    1.029   .     S
O370   C665    1.411   .     S
C379   O426    1.283   .     A
C379   O423    1.291   .     A
C379   C398    1.425   .     S
C380   H413    1.085   .     S
C380   C382    1.401   .     A
C380   C391    1.389   .     A
C381   C402    1.401   .     A
C381   C401    1.456   .     S
C381   C383    1.399   .     A
C382   C400    1.456   .     S
C382   C384    1.399   .     A
C383   H414    1.084   .     S
C383   C385    1.397   .     A
C384   H415    1.084   .     S
C384   C386    1.397   .     A
C385   C387    1.417   .     A
C385   C392    1.409   .     A
C386   C393    1.409   .     A
C386   C388    1.417   .     A
C387   C389    1.409   .     A
C387   C334    1.400   1_655 S
C388   C391    1.409   .     A
C389   C397    1.400   .     A
C389   C402    1.389   .     A
C390   O427    1.283   .     A
C390   O425    1.291   .     A
C390   C399    1.425   .     S
C391   C396    1.400   .     A
C392   O432    1.385   .     S
C392   C342    1.400   1_655 S
C393   O424    1.385   .     S
C394   H409    1.112   .     S
C394   H407    1.109   .     S
C394   H732    1.114   .     S
C394   O756    1.411   .     S
C395   H411    1.109   .     S
C395   H412    1.112   .     S
C396   H416    1.084   .     S
C397   H417    1.084   .     S
C397   C339    1.400   1_655 S
C398   C615    1.326   1_545 S
C398   H634    1.088   1_545 S
C399   C506    1.326   .     S
C399   H527    1.088   .     S
C400   O428    1.298   .     A
C400   O430    1.292   .     A
C401   O429    1.298   .     A
C401   O431    1.292   .     A
C402   H405    1.085   .     S
Cu403  N422    2.017   .     S
Cu403  O431    1.958   .     S
Cu403  O427    1.948   .     S
Cu403  O423    1.953   .     S
Cu403  O428    1.969   .     S
Cu403  Cu404   2.685   .     S
Cu404  O430    1.958   .     S
Cu404  O426    1.948   .     S
Cu404  O429    1.969   .     S
Cu404  N421    2.017   .     S
Cu404  O425    1.953   .     S
H410   C719    1.114   .     S
H418   C506    1.088   .     S
H419   C615    1.088   1_545 S
H420   N745    1.029   .     S
N422   N745    1.298   .     S
N422   H730    1.029   .     S
O424   C719    1.411   .     S
C433   O480    1.283   .     A
C433   O477    1.291   .     A
C433   C452    1.425   .     S
C434   H467    1.085   .     S
C434   C436    1.401   .     A
C434   C445    1.389   .     A
C435   C456    1.401   .     A
C435   C455    1.456   .     S
C435   C437    1.399   .     A
C436   C454    1.456   .     S
C436   C438    1.399   .     A
C437   H468    1.084   .     S
C437   C439    1.397   .     A
C438   H469    1.084   .     S
C438   C440    1.397   .     A
C439   C441    1.417   .     A
C439   C446    1.409   .     A
C440   C447    1.409   .     A
C440   C442    1.417   .     A
C441   C443    1.409   .     A
C441   C496    1.400   .     S
C442   C445    1.409   .     A
C442   C495    1.400   1_455 S
C443   C451    1.400   .     A
C443   C456    1.389   .     A
C444   O481    1.283   .     A
C444   O479    1.291   .     A
C444   C453    1.425   .     S
C445   C450    1.400   .     A
C446   O486    1.385   .     S
C446   C504    1.400   .     S
C447   O478    1.385   .     S
C447   C505    1.400   1_455 S
C448   H463    1.112   .     S
C448   H461    1.109   .     S
C448   H786    1.114   .     S
C448   O810    1.411   .     S
C449   H465    1.109   .     S
C449   H466    1.112   .     S
C450   H470    1.084   .     S
C450   C500    1.400   1_455 S
C451   H471    1.084   .     S
C451   C501    1.400   .     S
C453   C560    1.326   .     S
C453   H581    1.088   .     S
C454   O482    1.298   .     A
C454   O484    1.292   .     A
C455   O483    1.298   .     A
C455   O485    1.292   .     A
C456   H459    1.085   .     S
Cu457  N476    2.017   .     S
Cu457  O485    1.958   .     S
Cu457  O481    1.948   .     S
Cu457  O477    1.953   .     S
Cu457  O482    1.969   .     S
Cu457  Cu458   2.685   .     S
Cu458  O484    1.958   .     S
Cu458  O480    1.948   .     S
Cu458  O483    1.969   .     S
Cu458  N475    2.017   .     S
Cu458  O479    1.953   .     S
H464   C773    1.114   .     S
H472   C560    1.088   .     S
H474   N799    1.029   .     S
N476   N799    1.298   .     S
N476   H784    1.029   .     S
O478   C773    1.411   .     S
C487   O534    1.283   .     A
C487   O531    1.291   .     A
C487   C506    1.425   .     S
C488   H521    1.085   .     S
C488   C490    1.401   .     A
C488   C499    1.389   .     A
C489   C510    1.401   .     A
C489   C509    1.456   .     S
C489   C491    1.399   .     A
C490   C508    1.456   .     S
C490   C492    1.399   .     A
C491   H522    1.084   .     S
C491   C493    1.397   .     A
C492   H523    1.084   .     S
C492   C494    1.397   .     A
C493   C495    1.417   .     A
C493   C500    1.409   .     A
C494   C501    1.409   .     A
C494   C496    1.417   .     A
C495   C497    1.409   .     A
C495   C442    1.400   1_655 S
C496   C499    1.409   .     A
C497   C505    1.400   .     A
C497   C510    1.389   .     A
C498   O535    1.283   .     A
C498   O533    1.291   .     A
C498   C507    1.425   .     S
C499   C504    1.400   .     A
C500   O540    1.385   .     S
C500   C450    1.400   1_655 S
C501   O532    1.385   .     S
C502   H517    1.112   .     S
C502   H515    1.109   .     S
C502   H840    1.114   .     S
C502   O864    1.411   .     S
C503   H519    1.109   .     S
C503   H520    1.112   .     S
C504   H524    1.084   .     S
C505   H525    1.084   .     S
C505   C447    1.400   1_655 S
C507   C614    1.326   .     S
C507   H635    1.088   .     S
C508   O536    1.298   .     A
C508   O538    1.292   .     A
C509   O537    1.298   .     A
C509   O539    1.292   .     A
C510   H513    1.085   .     S
Cu511  N530    2.017   .     S
Cu511  O539    1.958   .     S
Cu511  O535    1.948   .     S
Cu511  O531    1.953   .     S
Cu511  O536    1.969   .     S
Cu511  Cu512   2.685   .     S
Cu512  O538    1.958   .     S
Cu512  O534    1.948   .     S
Cu512  O537    1.969   .     S
Cu512  N529    2.017   .     S
Cu512  O533    1.953   .     S
H518   C827    1.114   .     S
H526   C614    1.088   .     S
H528   N853    1.029   .     S
N530   N853    1.298   .     S
N530   H838    1.029   .     S
O532   C827    1.411   .     S
C541   O588    1.283   .     A
C541   O585    1.291   .     A
C541   C560    1.425   .     S
C542   H575    1.085   .     S
C542   C544    1.401   .     A
C542   C553    1.389   .     A
C543   C564    1.401   .     A
C543   C563    1.456   .     S
C543   C545    1.399   .     A
C544   C562    1.456   .     S
C544   C546    1.399   .     A
C545   H576    1.084   .     S
C545   C547    1.397   .     A
C546   H577    1.084   .     S
C546   C548    1.397   .     A
C547   C549    1.417   .     A
C547   C554    1.409   .     A
C548   C555    1.409   .     A
C548   C550    1.417   .     A
C549   C551    1.409   .     A
C549   C604    1.400   .     S
C550   C553    1.409   .     A
C550   C603    1.400   1_455 S
C551   C559    1.400   .     A
C551   C564    1.389   .     A
C552   O589    1.283   .     A
C552   O587    1.291   .     A
C552   C561    1.425   .     S
C553   C558    1.400   .     A
C554   O594    1.385   .     S
C554   C612    1.400   .     S
C555   O586    1.385   .     S
C555   C613    1.400   1_455 S
C556   H571    1.112   .     S
C556   H569    1.109   .     S
C556   H894    1.114   .     S
C556   O918    1.411   .     S
C557   H573    1.109   .     S
C557   H574    1.112   .     S
C558   H578    1.084   .     S
C558   C608    1.400   1_455 S
C559   H579    1.084   .     S
C559   C609    1.400   .     S
C561   C344    1.326   1_565 S
C561   H365    1.088   1_565 S
C562   O590    1.298   .     A
C562   O592    1.292   .     A
C563   O591    1.298   .     A
C563   O593    1.292   .     A
C564   H567    1.085   .     S
Cu565  N584    2.017   .     S
Cu565  O593    1.958   .     S
Cu565  O589    1.948   .     S
Cu565  O585    1.953   .     S
Cu565  O590    1.969   .     S
Cu565  Cu566   2.685   .     S
Cu566  O592    1.958   .     S
Cu566  O588    1.948   .     S
Cu566  O591    1.969   .     S
Cu566  N583    2.017   .     S
Cu566  O587    1.953   .     S
H572   C881    1.114   .     S
H580   C344    1.088   1_565 S
H582   N907    1.029   .     S
N584   N907    1.298   .     S
N584   H892    1.029   .     S
O586   C881    1.411   .     S
C595   O642    1.283   .     A
C595   O639    1.291   .     A
C595   C614    1.425   .     S
C596   H629    1.085   .     S
C596   C598    1.401   .     A
C596   C607    1.389   .     A
C597   C618    1.401   .     A
C597   C617    1.456   .     S
C597   C599    1.399   .     A
C598   C616    1.456   .     S
C598   C600    1.399   .     A
C599   H630    1.084   .     S
C599   C601    1.397   .     A
C600   H631    1.084   .     S
C600   C602    1.397   .     A
C601   C603    1.417   .     A
C601   C608    1.409   .     A
C602   C609    1.409   .     A
C602   C604    1.417   .     A
C603   C605    1.409   .     A
C603   C550    1.400   1_655 S
C604   C607    1.409   .     A
C605   C613    1.400   .     A
C605   C618    1.389   .     A
C606   O643    1.283   .     A
C606   O641    1.291   .     A
C606   C615    1.425   .     S
C607   C612    1.400   .     A
C608   O648    1.385   .     S
C608   C558    1.400   1_655 S
C609   O640    1.385   .     S
C610   H625    1.112   .     S
C610   H623    1.109   .     S
C610   H948    1.114   .     S
C610   O972    1.411   .     S
C611   H627    1.109   .     S
C611   H628    1.112   .     S
C612   H632    1.084   .     S
C613   H633    1.084   .     S
C613   C555    1.400   1_655 S
C615   C398    1.326   1_565 S
C615   H419    1.088   1_565 S
C616   O644    1.298   .     A
C616   O646    1.292   .     A
C617   O645    1.298   .     A
C617   O647    1.292   .     A
C618   H621    1.085   .     S
Cu619  N638    2.017   .     S
Cu619  O647    1.958   .     S
Cu619  O643    1.948   .     S
Cu619  O639    1.953   .     S
Cu619  O644    1.969   .     S
Cu619  Cu620   2.685   .     S
Cu620  O646    1.958   .     S
Cu620  O642    1.948   .     S
Cu620  O645    1.969   .     S
Cu620  N637    2.017   .     S
Cu620  O641    1.953   .     S
H626   C935    1.114   .     S
H634   C398    1.088   1_565 S
H636   N961    1.029   .     S
N638   N961    1.298   .     S
N638   H946    1.029   .     S
O640   C935    1.411   .     S
C649   O696    1.283   .     A
C649   O693    1.291   .     A
C649   C668    1.425   .     S
C650   H683    1.085   .     S
C650   C652    1.401   .     A
C650   C661    1.389   .     A
C651   C672    1.401   .     A
C651   C671    1.456   .     S
C651   C653    1.399   .     A
C652   C670    1.456   .     S
C652   C654    1.399   .     A
C653   H684    1.084   .     S
C653   C655    1.397   .     A
C654   H685    1.084   .     S
C654   C656    1.397   .     A
C655   C657    1.417   .     A
C655   C662    1.409   .     A
C656   C663    1.409   .     A
C656   C658    1.417   .     A
C657   C659    1.409   .     A
C657   C712    1.400   .     S
C658   C661    1.409   .     A
C658   C711    1.400   1_455 S
C659   C667    1.400   .     A
C659   C672    1.389   .     A
C660   O697    1.283   .     A
C660   O695    1.291   .     A
C660   C669    1.425   .     S
C661   C666    1.400   .     A
C662   O702    1.385   .     S
C662   C720    1.400   .     S
C663   O694    1.385   .     S
C663   C721    1.400   1_455 S
C664   H679    1.112   .     S
C664   H677    1.109   .     S
C664   H30     1.114   1_556 S
C664   O54     1.411   1_556 S
C665   H681    1.109   .     S
C665   H682    1.112   .     S
C666   H686    1.084   .     S
C666   C716    1.400   1_455 S
C667   H687    1.084   .     S
C667   C717    1.400   .     S
C668   C885    1.326   1_545 S
C668   H904    1.088   1_545 S
C669   C776    1.326   .     S
C669   H797    1.088   .     S
C670   O698    1.298   .     A
C670   O700    1.292   .     A
C671   O699    1.298   .     A
C671   O701    1.292   .     A
C672   H675    1.085   .     S
Cu673  N692    2.017   .     S
Cu673  O701    1.958   .     S
Cu673  O697    1.948   .     S
Cu673  O693    1.953   .     S
Cu673  O698    1.969   .     S
Cu673  Cu674   2.685   .     S
Cu674  O700    1.958   .     S
Cu674  O696    1.948   .     S
Cu674  O699    1.969   .     S
Cu674  N691    2.017   .     S
Cu674  O695    1.953   .     S
H680   C17     1.114   1_556 S
H688   C776    1.088   .     S
H689   C885    1.088   1_545 S
H690   N43     1.029   1_556 S
N692   N43     1.298   1_556 S
N692   H28     1.029   1_556 S
O694   C17     1.411   1_556 S
C703   O750    1.283   .     A
C703   O747    1.291   .     A
C703   C722    1.425   .     S
C704   H737    1.085   .     S
C704   C706    1.401   .     A
C704   C715    1.389   .     A
C705   C726    1.401   .     A
C705   C725    1.456   .     S
C705   C707    1.399   .     A
C706   C724    1.456   .     S
C706   C708    1.399   .     A
C707   H738    1.084   .     S
C707   C709    1.397   .     A
C708   H739    1.084   .     S
C708   C710    1.397   .     A
C709   C711    1.417   .     A
C709   C716    1.409   .     A
C710   C717    1.409   .     A
C710   C712    1.417   .     A
C711   C713    1.409   .     A
C711   C658    1.400   1_655 S
C712   C715    1.409   .     A
C713   C721    1.400   .     A
C713   C726    1.389   .     A
C714   O751    1.283   .     A
C714   O749    1.291   .     A
C714   C723    1.425   .     S
C715   C720    1.400   .     A
C716   O756    1.385   .     S
C716   C666    1.400   1_655 S
C717   O748    1.385   .     S
C718   H733    1.112   .     S
C718   H731    1.109   .     S
C718   H84     1.114   1_556 S
C718   O108    1.411   1_556 S
C719   H735    1.109   .     S
C719   H736    1.112   .     S
C720   H740    1.084   .     S
C721   H741    1.084   .     S
C721   C663    1.400   1_655 S
C722   C939    1.326   1_545 S
C722   H958    1.088   1_545 S
C723   C830    1.326   .     S
C723   H851    1.088   .     S
C724   O752    1.298   .     A
C724   O754    1.292   .     A
C725   O753    1.298   .     A
C725   O755    1.292   .     A
C726   H729    1.085   .     S
Cu727  N746    2.017   .     S
Cu727  O755    1.958   .     S
Cu727  O751    1.948   .     S
Cu727  O747    1.953   .     S
Cu727  O752    1.969   .     S
Cu727  Cu728   2.685   .     S
Cu728  O754    1.958   .     S
Cu728  O750    1.948   .     S
Cu728  O753    1.969   .     S
Cu728  N745    2.017   .     S
Cu728  O749    1.953   .     S
H734   C71     1.114   1_556 S
H742   C830    1.088   .     S
H743   C939    1.088   1_545 S
H744   N97     1.029   1_556 S
N746   N97     1.298   1_556 S
N746   H82     1.029   1_556 S
O748   C71     1.411   1_556 S
C757   O804    1.283   .     A
C757   O801    1.291   .     A
C757   C776    1.425   .     S
C758   H791    1.085   .     S
C758   C760    1.401   .     A
C758   C769    1.389   .     A
C759   C780    1.401   .     A
C759   C779    1.456   .     S
C759   C761    1.399   .     A
C760   C778    1.456   .     S
C760   C762    1.399   .     A
C761   H792    1.084   .     S
C761   C763    1.397   .     A
C762   H793    1.084   .     S
C762   C764    1.397   .     A
C763   C765    1.417   .     A
C763   C770    1.409   .     A
C764   C771    1.409   .     A
C764   C766    1.417   .     A
C765   C767    1.409   .     A
C765   C820    1.400   .     S
C766   C769    1.409   .     A
C766   C819    1.400   1_455 S
C767   C775    1.400   .     A
C767   C780    1.389   .     A
C768   O805    1.283   .     A
C768   O803    1.291   .     A
C768   C777    1.425   .     S
C769   C774    1.400   .     A
C770   O810    1.385   .     S
C770   C828    1.400   .     S
C771   O802    1.385   .     S
C771   C829    1.400   1_455 S
C772   H787    1.112   .     S
C772   H785    1.109   .     S
C772   H138    1.114   1_556 S
C772   O162    1.411   1_556 S
C773   H789    1.109   .     S
C773   H790    1.112   .     S
C774   H794    1.084   .     S
C774   C824    1.400   1_455 S
C775   H795    1.084   .     S
C775   C825    1.400   .     S
C777   C884    1.326   .     S
C777   H905    1.088   .     S
C778   O806    1.298   .     A
C778   O808    1.292   .     A
C779   O807    1.298   .     A
C779   O809    1.292   .     A
C780   H783    1.085   .     S
Cu781  N800    2.017   .     S
Cu781  O809    1.958   .     S
Cu781  O805    1.948   .     S
Cu781  O801    1.953   .     S
Cu781  O806    1.969   .     S
Cu781  Cu782   2.685   .     S
Cu782  O808    1.958   .     S
Cu782  O804    1.948   .     S
Cu782  O807    1.969   .     S
Cu782  N799    2.017   .     S
Cu782  O803    1.953   .     S
H788   C125    1.114   1_556 S
H796   C884    1.088   .     S
H798   N151    1.029   1_556 S
N800   N151    1.298   1_556 S
N800   H136    1.029   1_556 S
O802   C125    1.411   1_556 S
C811   O858    1.283   .     A
C811   O855    1.291   .     A
C811   C830    1.425   .     S
C812   H845    1.085   .     S
C812   C814    1.401   .     A
C812   C823    1.389   .     A
C813   C834    1.401   .     A
C813   C833    1.456   .     S
C813   C815    1.399   .     A
C814   C832    1.456   .     S
C814   C816    1.399   .     A
C815   H846    1.084   .     S
C815   C817    1.397   .     A
C816   H847    1.084   .     S
C816   C818    1.397   .     A
C817   C819    1.417   .     A
C817   C824    1.409   .     A
C818   C825    1.409   .     A
C818   C820    1.417   .     A
C819   C821    1.409   .     A
C819   C766    1.400   1_655 S
C820   C823    1.409   .     A
C821   C829    1.400   .     A
C821   C834    1.389   .     A
C822   O859    1.283   .     A
C822   O857    1.291   .     A
C822   C831    1.425   .     S
C823   C828    1.400   .     A
C824   O864    1.385   .     S
C824   C774    1.400   1_655 S
C825   O856    1.385   .     S
C826   H841    1.112   .     S
C826   H839    1.109   .     S
C826   H192    1.114   1_556 S
C826   O216    1.411   1_556 S
C827   H843    1.109   .     S
C827   H844    1.112   .     S
C828   H848    1.084   .     S
C829   H849    1.084   .     S
C829   C771    1.400   1_655 S
C831   C938    1.326   .     S
C831   H959    1.088   .     S
C832   O860    1.298   .     A
C832   O862    1.292   .     A
C833   O861    1.298   .     A
C833   O863    1.292   .     A
C834   H837    1.085   .     S
Cu835  N854    2.017   .     S
Cu835  O863    1.958   .     S
Cu835  O859    1.948   .     S
Cu835  O855    1.953   .     S
Cu835  O860    1.969   .     S
Cu835  Cu836   2.685   .     S
Cu836  O862    1.958   .     S
Cu836  O858    1.948   .     S
Cu836  O861    1.969   .     S
Cu836  N853    2.017   .     S
Cu836  O857    1.953   .     S
H842   C179    1.114   1_556 S
H850   C938    1.088   .     S
H852   N205    1.029   1_556 S
N854   N205    1.298   1_556 S
N854   H190    1.029   1_556 S
O856   C179    1.411   1_556 S
C865   O912    1.283   .     A
C865   O909    1.291   .     A
C865   C884    1.425   .     S
C866   H899    1.085   .     S
C866   C868    1.401   .     A
C866   C877    1.389   .     A
C867   C888    1.401   .     A
C867   C887    1.456   .     S
C867   C869    1.399   .     A
C868   C886    1.456   .     S
C868   C870    1.399   .     A
C869   H900    1.084   .     S
C869   C871    1.397   .     A
C870   H901    1.084   .     S
C870   C872    1.397   .     A
C871   C873    1.417   .     A
C871   C878    1.409   .     A
C872   C879    1.409   .     A
C872   C874    1.417   .     A
C873   C875    1.409   .     A
C873   C928    1.400   .     S
C874   C877    1.409   .     A
C874   C927    1.400   1_455 S
C875   C883    1.400   .     A
C875   C888    1.389   .     A
C876   O913    1.283   .     A
C876   O911    1.291   .     A
C876   C885    1.425   .     S
C877   C882    1.400   .     A
C878   O918    1.385   .     S
C878   C936    1.400   .     S
C879   O910    1.385   .     S
C879   C937    1.400   1_455 S
C880   H895    1.112   .     S
C880   H893    1.109   .     S
C880   H246    1.114   1_556 S
C880   O270    1.411   1_556 S
C881   H897    1.109   .     S
C881   H898    1.112   .     S
C882   H902    1.084   .     S
C882   C932    1.400   1_455 S
C883   H903    1.084   .     S
C883   C933    1.400   .     S
C885   C668    1.326   1_565 S
C885   H689    1.088   1_565 S
C886   O914    1.298   .     A
C886   O916    1.292   .     A
C887   O915    1.298   .     A
C887   O917    1.292   .     A
C888   H891    1.085   .     S
Cu889  N908    2.017   .     S
Cu889  O917    1.958   .     S
Cu889  O913    1.948   .     S
Cu889  O909    1.953   .     S
Cu889  O914    1.969   .     S
Cu889  Cu890   2.685   .     S
Cu890  O916    1.958   .     S
Cu890  O912    1.948   .     S
Cu890  O915    1.969   .     S
Cu890  N907    2.017   .     S
Cu890  O911    1.953   .     S
H896   C233    1.114   1_556 S
H904   C668    1.088   1_565 S
H906   N259    1.029   1_556 S
N908   N259    1.298   1_556 S
N908   H244    1.029   1_556 S
O910   C233    1.411   1_556 S
C919   O966    1.283   .     A
C919   O963    1.291   .     A
C919   C938    1.425   .     S
C920   H953    1.085   .     S
C920   C922    1.401   .     A
C920   C931    1.389   .     A
C921   C942    1.401   .     A
C921   C941    1.456   .     S
C921   C923    1.399   .     A
C922   C940    1.456   .     S
C922   C924    1.399   .     A
C923   H954    1.084   .     S
C923   C925    1.397   .     A
C924   H955    1.084   .     S
C924   C926    1.397   .     A
C925   C927    1.417   .     A
C925   C932    1.409   .     A
C926   C933    1.409   .     A
C926   C928    1.417   .     A
C927   C929    1.409   .     A
C927   C874    1.400   1_655 S
C928   C931    1.409   .     A
C929   C937    1.400   .     A
C929   C942    1.389   .     A
C930   O967    1.283   .     A
C930   O965    1.291   .     A
C930   C939    1.425   .     S
C931   C936    1.400   .     A
C932   O972    1.385   .     S
C932   C882    1.400   1_655 S
C933   O964    1.385   .     S
C934   H949    1.112   .     S
C934   H947    1.109   .     S
C934   H300    1.114   1_556 S
C934   O324    1.411   1_556 S
C935   H951    1.109   .     S
C935   H952    1.112   .     S
C936   H956    1.084   .     S
C937   H957    1.084   .     S
C937   C879    1.400   1_655 S
C939   C722    1.326   1_565 S
C939   H743    1.088   1_565 S
C940   O968    1.298   .     A
C940   O970    1.292   .     A
C941   O969    1.298   .     A
C941   O971    1.292   .     A
C942   H945    1.085   .     S
Cu943  N962    2.017   .     S
Cu943  O971    1.958   .     S
Cu943  O967    1.948   .     S
Cu943  O963    1.953   .     S
Cu943  O968    1.969   .     S
Cu943  Cu944   2.685   .     S
Cu944  O970    1.958   .     S
Cu944  O966    1.948   .     S
Cu944  O969    1.969   .     S
Cu944  N961    2.017   .     S
Cu944  O965    1.953   .     S
H950   C287    1.114   1_556 S
H958   C722    1.088   1_565 S
H960   N313    1.029   1_556 S
N962   N313    1.298   1_556 S
N962   H298    1.029   1_556 S
O964   C287    1.411   1_556 S
