data_str_m3_o1_o16_pcu_sym.21
_audit_creation_date              2020-01-03
_audit_creation_method            'Materials Studio'
_symmetry_space_group_name_H-M    'P1'
_symmetry_Int_Tables_number       1
_symmetry_cell_setting            triclinic
loop_
_symmetry_equiv_pos_as_xyz
  x,y,z
_cell_length_a                    29.5805
_cell_length_b                    32.2921
_cell_length_c                    26.6667
_cell_angle_alpha                 91.6522
_cell_angle_beta                  71.0904
_cell_angle_gamma                 89.9508
loop_
_atom_site_label
_atom_site_type_symbol
_atom_site_fract_x
_atom_site_fract_y
_atom_site_fract_z
_atom_site_U_iso_or_equiv
_atom_site_adp_type
_atom_site_occupancy
C1     C     0.16823   0.24649   0.24536   0.00000  Uiso   1.00
C2     C     0.12495   0.16345   0.40981   0.00000  Uiso   1.00
C3     C     0.21016   0.31272   0.24566   0.00000  Uiso   1.00
C4     C     0.14049   0.16458   0.35165   0.00000  Uiso   1.00
C5     C     0.20604   0.02139   0.25479   0.00000  Uiso   1.00
C6     C     0.16760   0.04253   0.24750   0.00000  Uiso   1.00
C7     C     0.13288   0.02166   0.23180   0.00000  Uiso   1.00
C8     C     0.13452   0.31241   0.22674   0.00000  Uiso   1.00
C9     C     0.17135   0.29073   0.23813   0.00000  Uiso   1.00
C10    C     0.31752   0.13605   0.22352   0.00000  Uiso   1.00
C11    C     0.03136   0.13528   0.22561   0.00000  Uiso   1.00
C12    C     0.15123   0.16505   0.48732   0.00000  Uiso   1.00
C13    C     0.01566   0.19711   0.27692   0.00000  Uiso   1.00
C14    C     0.30060   0.19586   0.27880   0.00000  Uiso   1.00
C15    C     0.16656   0.08666   0.25038   0.00000  Uiso   1.00
C16    C     0.19294   0.16393   0.14814   0.00000  Uiso   1.00
C17    C     0.26679   0.13685   0.00447   0.00000  Uiso   1.00
C18    C     0.20841   0.15583   0.09020   0.00000  Uiso   1.00
C19    C     0.08134   0.18280   0.44059   0.00000  Uiso   1.00
C20    C     0.07589   0.19767   0.49169   0.00000  Uiso   1.00
C21    C     0.11129   0.19064   0.01406   0.00000  Uiso   1.00
C22    C     0.29613   0.15312   0.07848   0.00000  Uiso   1.00
C23    C     0.15847   0.15123   0.43474   0.00000  Uiso   1.00
C24    C     0.10055   0.29249   0.20550   0.00000  Uiso   1.00
C25    C     0.30376   0.10408   0.19291   0.00000  Uiso   1.00
C26    C     0.03046   0.23096   0.30396   0.00000  Uiso   1.00
C27    C     0.12737   0.13248   0.09216   0.00000  Uiso   1.00
C28    C     0.04155   0.18844   0.42133   0.00000  Uiso   1.00
C29    C     0.25674   0.29476   0.23848   0.00000  Uiso   1.00
C30    C     0.18526   0.15419   0.01148   0.00000  Uiso   1.00
C31    C     0.23072   0.13926   0.48096   0.00000  Uiso   1.00
C32    C     0.23720   0.12392   0.42966   0.00000  Uiso   1.00
C33    C     0.19966   0.12624   0.40883   0.00000  Uiso   1.00
C34    C     0.17281   0.15196   0.06604   0.00000  Uiso   1.00
C35    C     0.25677   0.14943   0.05794   0.00000  Uiso   1.00
F36    F     0.24032   0.04144   0.26974   0.00000  Uiso   1.00
F37    F     0.26839   0.22352   0.31004   0.00000  Uiso   1.00
F38    F     0.31107   0.12238   0.47591   0.00000  Uiso   1.00
F39    F     0.10691   0.20999   0.06137   0.00000  Uiso   1.00
F40    F     0.03691   0.22085   0.01920   0.00000  Uiso   1.00
F41    F     0.20311   0.10249   0.36485   0.00000  Uiso   1.00
H42    H     0.10486   0.03851   0.22273   0.00000  Uiso   1.00
H43    H     0.05506   0.10958   0.20785   0.00000  Uiso   1.00
H44    H     0.26987   0.10772   0.40711   0.00000  Uiso   1.00
N45    N     0.04760   0.16668   0.25002   0.00000  Uiso   1.00
N46    N     0.28573   0.16665   0.25001   0.00000  Uiso   1.00
N47    N     0.32796   0.15636   0.09450   0.00000  Uiso   1.00
N48    N     0.07360   0.27663   0.18811   0.00000  Uiso   1.00
N49    N     0.29329   0.07830   0.16780   0.00000  Uiso   1.00
N50    N     0.04176   0.25851   0.32586   0.00000  Uiso   1.00
N51    N     0.09124   0.11634   0.11104   0.00000  Uiso   1.00
N52    N     0.00880   0.19253   0.40721   0.00000  Uiso   1.00
N53    N     0.29457   0.28130   0.23171   0.00000  Uiso   1.00
O54    O     0.12846   0.22775   0.25001   0.00000  Uiso   1.00
O55    O     0.20490   0.22774   0.25001   0.00000  Uiso   1.00
O56    O     0.10947   0.16666   0.32681   0.00000  Uiso   1.00
O57    O     0.18591   0.16665   0.32681   0.00000  Uiso   1.00
O58    O     0.12843   0.10559   0.25000   0.00000  Uiso   1.00
O59    O     0.20488   0.10558   0.25000   0.00000  Uiso   1.00
O60    O     0.14742   0.16668   0.17319   0.00000  Uiso   1.00
O61    O     0.22387   0.16667   0.17319   0.00000  Uiso   1.00
Zn62   Zn    0.11562   0.16667   0.25000   0.00000  Uiso   1.00
Zn63   Zn    0.21771   0.16666   0.25000   0.00000  Uiso   1.00
C64    C     0.50157   0.24649   0.24536   0.00000  Uiso   1.00
C65    C     0.45828   0.16345   0.40981   0.00000  Uiso   1.00
C66    C     0.54350   0.31272   0.24566   0.00000  Uiso   1.00
C67    C     0.47382   0.16458   0.35165   0.00000  Uiso   1.00
C68    C     0.53937   0.02139   0.25479   0.00000  Uiso   1.00
C69    C     0.50094   0.04253   0.24750   0.00000  Uiso   1.00
C70    C     0.46621   0.02166   0.23180   0.00000  Uiso   1.00
C71    C     0.46785   0.31241   0.22674   0.00000  Uiso   1.00
C72    C     0.50469   0.29073   0.23813   0.00000  Uiso   1.00
C73    C     0.65085   0.13605   0.22352   0.00000  Uiso   1.00
C74    C     0.36470   0.13528   0.22561   0.00000  Uiso   1.00
C75    C     0.48457   0.16505   0.48732   0.00000  Uiso   1.00
C76    C     0.34900   0.19711   0.27692   0.00000  Uiso   1.00
C77    C     0.63393   0.19586   0.27880   0.00000  Uiso   1.00
C78    C     0.49989   0.08666   0.25038   0.00000  Uiso   1.00
C79    C     0.52627   0.16393   0.14814   0.00000  Uiso   1.00
C80    C     0.60012   0.13685   0.00447   0.00000  Uiso   1.00
C81    C     0.54174   0.15583   0.09020   0.00000  Uiso   1.00
C82    C     0.41468   0.18280   0.44059   0.00000  Uiso   1.00
C83    C     0.40922   0.19767   0.49169   0.00000  Uiso   1.00
C84    C     0.44462   0.19064   0.01406   0.00000  Uiso   1.00
C85    C     0.62946   0.15312   0.07848   0.00000  Uiso   1.00
C86    C     0.49180   0.15123   0.43474   0.00000  Uiso   1.00
C87    C     0.43388   0.29249   0.20550   0.00000  Uiso   1.00
C88    C     0.63709   0.10408   0.19291   0.00000  Uiso   1.00
C89    C     0.36380   0.23096   0.30396   0.00000  Uiso   1.00
C90    C     0.46071   0.13248   0.09216   0.00000  Uiso   1.00
C91    C     0.37488   0.18844   0.42133   0.00000  Uiso   1.00
C92    C     0.59007   0.29476   0.23848   0.00000  Uiso   1.00
C93    C     0.51859   0.15419   0.01148   0.00000  Uiso   1.00
C94    C     0.56406   0.13926   0.48096   0.00000  Uiso   1.00
C95    C     0.57053   0.12392   0.42966   0.00000  Uiso   1.00
C96    C     0.53299   0.12624   0.40883   0.00000  Uiso   1.00
C97    C     0.50614   0.15196   0.06604   0.00000  Uiso   1.00
C98    C     0.59010   0.14943   0.05794   0.00000  Uiso   1.00
F99    F     0.57365   0.04144   0.26974   0.00000  Uiso   1.00
F100   F     0.60173   0.22352   0.31004   0.00000  Uiso   1.00
F101   F     0.64441   0.12238   0.47591   0.00000  Uiso   1.00
F102   F     0.44025   0.20999   0.06137   0.00000  Uiso   1.00
F103   F     0.37024   0.22085   0.01920   0.00000  Uiso   1.00
F104   F     0.53644   0.10249   0.36485   0.00000  Uiso   1.00
H105   H     0.43820   0.03851   0.22273   0.00000  Uiso   1.00
H106   H     0.38840   0.10958   0.20785   0.00000  Uiso   1.00
H107   H     0.60321   0.10772   0.40711   0.00000  Uiso   1.00
N108   N     0.38093   0.16668   0.25002   0.00000  Uiso   1.00
N109   N     0.61906   0.16665   0.25001   0.00000  Uiso   1.00
N110   N     0.66129   0.15636   0.09450   0.00000  Uiso   1.00
N111   N     0.40694   0.27663   0.18811   0.00000  Uiso   1.00
N112   N     0.62662   0.07830   0.16780   0.00000  Uiso   1.00
N113   N     0.37509   0.25851   0.32586   0.00000  Uiso   1.00
N114   N     0.42458   0.11634   0.11104   0.00000  Uiso   1.00
N115   N     0.34213   0.19253   0.40721   0.00000  Uiso   1.00
N116   N     0.62790   0.28130   0.23171   0.00000  Uiso   1.00
O117   O     0.46179   0.22775   0.25001   0.00000  Uiso   1.00
O118   O     0.53823   0.22774   0.25001   0.00000  Uiso   1.00
O119   O     0.44280   0.16666   0.32681   0.00000  Uiso   1.00
O120   O     0.51924   0.16665   0.32681   0.00000  Uiso   1.00
O121   O     0.46177   0.10559   0.25000   0.00000  Uiso   1.00
O122   O     0.53821   0.10558   0.25000   0.00000  Uiso   1.00
O123   O     0.48076   0.16668   0.17319   0.00000  Uiso   1.00
O124   O     0.55720   0.16667   0.17319   0.00000  Uiso   1.00
Zn125  Zn    0.44896   0.16667   0.25000   0.00000  Uiso   1.00
Zn126  Zn    0.55104   0.16666   0.25000   0.00000  Uiso   1.00
C127   C     0.83490   0.24649   0.24536   0.00000  Uiso   1.00
C128   C     0.79161   0.16345   0.40981   0.00000  Uiso   1.00
C129   C     0.87683   0.31272   0.24566   0.00000  Uiso   1.00
C130   C     0.80715   0.16458   0.35165   0.00000  Uiso   1.00
C131   C     0.87270   0.02139   0.25479   0.00000  Uiso   1.00
C132   C     0.83427   0.04253   0.24750   0.00000  Uiso   1.00
C133   C     0.79954   0.02166   0.23180   0.00000  Uiso   1.00
C134   C     0.80118   0.31241   0.22674   0.00000  Uiso   1.00
C135   C     0.83802   0.29073   0.23813   0.00000  Uiso   1.00
C136   C     0.98418   0.13605   0.22352   0.00000  Uiso   1.00
C137   C     0.69803   0.13528   0.22561   0.00000  Uiso   1.00
C138   C     0.81790   0.16505   0.48732   0.00000  Uiso   1.00
C139   C     0.68233   0.19711   0.27692   0.00000  Uiso   1.00
C140   C     0.96727   0.19586   0.27880   0.00000  Uiso   1.00
C141   C     0.83322   0.08666   0.25038   0.00000  Uiso   1.00
C142   C     0.85960   0.16393   0.14814   0.00000  Uiso   1.00
C143   C     0.93346   0.13685   0.00447   0.00000  Uiso   1.00
C144   C     0.87508   0.15583   0.09020   0.00000  Uiso   1.00
C145   C     0.74801   0.18280   0.44059   0.00000  Uiso   1.00
C146   C     0.74256   0.19767   0.49169   0.00000  Uiso   1.00
C147   C     0.77796   0.19064   0.01406   0.00000  Uiso   1.00
C148   C     0.96279   0.15312   0.07848   0.00000  Uiso   1.00
C149   C     0.82514   0.15123   0.43474   0.00000  Uiso   1.00
C150   C     0.76722   0.29249   0.20550   0.00000  Uiso   1.00
C151   C     0.97042   0.10408   0.19291   0.00000  Uiso   1.00
C152   C     0.69713   0.23096   0.30396   0.00000  Uiso   1.00
C153   C     0.79404   0.13248   0.09216   0.00000  Uiso   1.00
C154   C     0.70822   0.18844   0.42133   0.00000  Uiso   1.00
C155   C     0.92340   0.29476   0.23848   0.00000  Uiso   1.00
C156   C     0.85193   0.15419   0.01148   0.00000  Uiso   1.00
C157   C     0.89739   0.13926   0.48096   0.00000  Uiso   1.00
C158   C     0.90387   0.12392   0.42966   0.00000  Uiso   1.00
C159   C     0.86632   0.12624   0.40883   0.00000  Uiso   1.00
C160   C     0.83948   0.15196   0.06604   0.00000  Uiso   1.00
C161   C     0.92343   0.14943   0.05794   0.00000  Uiso   1.00
F162   F     0.90699   0.04144   0.26974   0.00000  Uiso   1.00
F163   F     0.93506   0.22352   0.31004   0.00000  Uiso   1.00
F164   F     0.97774   0.12238   0.47591   0.00000  Uiso   1.00
F165   F     0.77358   0.20999   0.06137   0.00000  Uiso   1.00
F166   F     0.70358   0.22085   0.01920   0.00000  Uiso   1.00
F167   F     0.86978   0.10249   0.36485   0.00000  Uiso   1.00
H168   H     0.77153   0.03851   0.22273   0.00000  Uiso   1.00
H169   H     0.72173   0.10958   0.20785   0.00000  Uiso   1.00
H170   H     0.93654   0.10772   0.40711   0.00000  Uiso   1.00
N171   N     0.71426   0.16668   0.25002   0.00000  Uiso   1.00
N172   N     0.95239   0.16665   0.25001   0.00000  Uiso   1.00
N173   N     0.99462   0.15636   0.09450   0.00000  Uiso   1.00
N174   N     0.74027   0.27663   0.18811   0.00000  Uiso   1.00
N175   N     0.95995   0.07830   0.16780   0.00000  Uiso   1.00
N176   N     0.70843   0.25851   0.32586   0.00000  Uiso   1.00
N177   N     0.75791   0.11634   0.11104   0.00000  Uiso   1.00
N178   N     0.67547   0.19253   0.40721   0.00000  Uiso   1.00
N179   N     0.96123   0.28130   0.23171   0.00000  Uiso   1.00
O180   O     0.79512   0.22775   0.25001   0.00000  Uiso   1.00
O181   O     0.87157   0.22774   0.25001   0.00000  Uiso   1.00
O182   O     0.77613   0.16666   0.32681   0.00000  Uiso   1.00
O183   O     0.85258   0.16665   0.32681   0.00000  Uiso   1.00
O184   O     0.79510   0.10559   0.25000   0.00000  Uiso   1.00
O185   O     0.87154   0.10558   0.25000   0.00000  Uiso   1.00
O186   O     0.81409   0.16668   0.17319   0.00000  Uiso   1.00
O187   O     0.89053   0.16667   0.17319   0.00000  Uiso   1.00
Zn188  Zn    0.78229   0.16667   0.25000   0.00000  Uiso   1.00
Zn189  Zn    0.88438   0.16666   0.25000   0.00000  Uiso   1.00
C190   C     0.16823   0.57983   0.24536   0.00000  Uiso   1.00
C191   C     0.12495   0.49678   0.40981   0.00000  Uiso   1.00
C192   C     0.21016   0.64606   0.24566   0.00000  Uiso   1.00
C193   C     0.14049   0.49791   0.35165   0.00000  Uiso   1.00
C194   C     0.20604   0.35473   0.25479   0.00000  Uiso   1.00
C195   C     0.16760   0.37586   0.24750   0.00000  Uiso   1.00
C196   C     0.13288   0.35500   0.23180   0.00000  Uiso   1.00
C197   C     0.13452   0.64574   0.22674   0.00000  Uiso   1.00
C198   C     0.17135   0.62407   0.23813   0.00000  Uiso   1.00
C199   C     0.31752   0.46939   0.22352   0.00000  Uiso   1.00
C200   C     0.03136   0.46862   0.22561   0.00000  Uiso   1.00
C201   C     0.15123   0.49838   0.48732   0.00000  Uiso   1.00
C202   C     0.01566   0.53044   0.27692   0.00000  Uiso   1.00
C203   C     0.30060   0.52920   0.27880   0.00000  Uiso   1.00
C204   C     0.16656   0.42000   0.25038   0.00000  Uiso   1.00
C205   C     0.19294   0.49727   0.14814   0.00000  Uiso   1.00
C206   C     0.26679   0.47019   0.00447   0.00000  Uiso   1.00
C207   C     0.20841   0.48916   0.09020   0.00000  Uiso   1.00
C208   C     0.08134   0.51613   0.44059   0.00000  Uiso   1.00
C209   C     0.07589   0.53100   0.49169   0.00000  Uiso   1.00
C210   C     0.11129   0.52397   0.01406   0.00000  Uiso   1.00
C211   C     0.29613   0.48646   0.07848   0.00000  Uiso   1.00
C212   C     0.15847   0.48456   0.43474   0.00000  Uiso   1.00
C213   C     0.10055   0.62582   0.20550   0.00000  Uiso   1.00
C214   C     0.30376   0.43741   0.19291   0.00000  Uiso   1.00
C215   C     0.03046   0.56430   0.30396   0.00000  Uiso   1.00
C216   C     0.12737   0.46581   0.09216   0.00000  Uiso   1.00
C217   C     0.04155   0.52177   0.42133   0.00000  Uiso   1.00
C218   C     0.25674   0.62809   0.23848   0.00000  Uiso   1.00
C219   C     0.18526   0.48753   0.01148   0.00000  Uiso   1.00
C220   C     0.23072   0.47259   0.48096   0.00000  Uiso   1.00
C221   C     0.23720   0.45725   0.42966   0.00000  Uiso   1.00
C222   C     0.19966   0.45958   0.40883   0.00000  Uiso   1.00
C223   C     0.17281   0.48529   0.06604   0.00000  Uiso   1.00
C224   C     0.25677   0.48276   0.05794   0.00000  Uiso   1.00
F225   F     0.24032   0.37478   0.26974   0.00000  Uiso   1.00
F226   F     0.26839   0.55686   0.31004   0.00000  Uiso   1.00
F227   F     0.31107   0.45571   0.47591   0.00000  Uiso   1.00
F228   F     0.10691   0.54333   0.06137   0.00000  Uiso   1.00
F229   F     0.03691   0.55418   0.01920   0.00000  Uiso   1.00
F230   F     0.20311   0.43583   0.36485   0.00000  Uiso   1.00
H231   H     0.10486   0.37185   0.22273   0.00000  Uiso   1.00
H232   H     0.05506   0.44291   0.20785   0.00000  Uiso   1.00
H233   H     0.26987   0.44105   0.40711   0.00000  Uiso   1.00
N234   N     0.04760   0.50001   0.25002   0.00000  Uiso   1.00
N235   N     0.28573   0.49998   0.25001   0.00000  Uiso   1.00
N236   N     0.32796   0.48969   0.09450   0.00000  Uiso   1.00
N237   N     0.07360   0.60996   0.18811   0.00000  Uiso   1.00
N238   N     0.29329   0.41163   0.16780   0.00000  Uiso   1.00
N239   N     0.04176   0.59184   0.32586   0.00000  Uiso   1.00
N240   N     0.09124   0.44967   0.11104   0.00000  Uiso   1.00
N241   N     0.00880   0.52586   0.40721   0.00000  Uiso   1.00
N242   N     0.29457   0.61463   0.23171   0.00000  Uiso   1.00
O243   O     0.12846   0.56108   0.25001   0.00000  Uiso   1.00
O244   O     0.20490   0.56107   0.25001   0.00000  Uiso   1.00
O245   O     0.10947   0.50000   0.32681   0.00000  Uiso   1.00
O246   O     0.18591   0.49999   0.32681   0.00000  Uiso   1.00
O247   O     0.12843   0.43893   0.25000   0.00000  Uiso   1.00
O248   O     0.20488   0.43892   0.25000   0.00000  Uiso   1.00
O249   O     0.14742   0.50001   0.17319   0.00000  Uiso   1.00
O250   O     0.22387   0.50000   0.17319   0.00000  Uiso   1.00
Zn251  Zn    0.11562   0.50001   0.25000   0.00000  Uiso   1.00
Zn252  Zn    0.21771   0.49999   0.25000   0.00000  Uiso   1.00
C253   C     0.50157   0.57983   0.24536   0.00000  Uiso   1.00
C254   C     0.45828   0.49678   0.40981   0.00000  Uiso   1.00
C255   C     0.54350   0.64606   0.24566   0.00000  Uiso   1.00
C256   C     0.47382   0.49791   0.35165   0.00000  Uiso   1.00
C257   C     0.53937   0.35473   0.25479   0.00000  Uiso   1.00
C258   C     0.50094   0.37586   0.24750   0.00000  Uiso   1.00
C259   C     0.46621   0.35500   0.23180   0.00000  Uiso   1.00
C260   C     0.46785   0.64574   0.22674   0.00000  Uiso   1.00
C261   C     0.50469   0.62407   0.23813   0.00000  Uiso   1.00
C262   C     0.65085   0.46939   0.22352   0.00000  Uiso   1.00
C263   C     0.36470   0.46862   0.22561   0.00000  Uiso   1.00
C264   C     0.48457   0.49838   0.48732   0.00000  Uiso   1.00
C265   C     0.34900   0.53044   0.27692   0.00000  Uiso   1.00
C266   C     0.63393   0.52920   0.27880   0.00000  Uiso   1.00
C267   C     0.49989   0.42000   0.25038   0.00000  Uiso   1.00
C268   C     0.52627   0.49727   0.14814   0.00000  Uiso   1.00
C269   C     0.60012   0.47019   0.00447   0.00000  Uiso   1.00
C270   C     0.54174   0.48916   0.09020   0.00000  Uiso   1.00
C271   C     0.41468   0.51613   0.44059   0.00000  Uiso   1.00
C272   C     0.40922   0.53100   0.49169   0.00000  Uiso   1.00
C273   C     0.44462   0.52397   0.01406   0.00000  Uiso   1.00
C274   C     0.62946   0.48646   0.07848   0.00000  Uiso   1.00
C275   C     0.49180   0.48456   0.43474   0.00000  Uiso   1.00
C276   C     0.43388   0.62582   0.20550   0.00000  Uiso   1.00
C277   C     0.63709   0.43741   0.19291   0.00000  Uiso   1.00
C278   C     0.36380   0.56430   0.30396   0.00000  Uiso   1.00
C279   C     0.46071   0.46581   0.09216   0.00000  Uiso   1.00
C280   C     0.37488   0.52177   0.42133   0.00000  Uiso   1.00
C281   C     0.59007   0.62809   0.23848   0.00000  Uiso   1.00
C282   C     0.51859   0.48753   0.01148   0.00000  Uiso   1.00
C283   C     0.56406   0.47259   0.48096   0.00000  Uiso   1.00
C284   C     0.57053   0.45725   0.42966   0.00000  Uiso   1.00
C285   C     0.53299   0.45958   0.40883   0.00000  Uiso   1.00
C286   C     0.50614   0.48529   0.06604   0.00000  Uiso   1.00
C287   C     0.59010   0.48276   0.05794   0.00000  Uiso   1.00
F288   F     0.57365   0.37478   0.26974   0.00000  Uiso   1.00
F289   F     0.60173   0.55686   0.31004   0.00000  Uiso   1.00
F290   F     0.64441   0.45571   0.47591   0.00000  Uiso   1.00
F291   F     0.44025   0.54333   0.06137   0.00000  Uiso   1.00
F292   F     0.37024   0.55418   0.01920   0.00000  Uiso   1.00
F293   F     0.53644   0.43583   0.36485   0.00000  Uiso   1.00
H294   H     0.43820   0.37185   0.22273   0.00000  Uiso   1.00
H295   H     0.38840   0.44291   0.20785   0.00000  Uiso   1.00
H296   H     0.60321   0.44105   0.40711   0.00000  Uiso   1.00
N297   N     0.38093   0.50001   0.25002   0.00000  Uiso   1.00
N298   N     0.61906   0.49998   0.25001   0.00000  Uiso   1.00
N299   N     0.66129   0.48969   0.09450   0.00000  Uiso   1.00
N300   N     0.40694   0.60996   0.18811   0.00000  Uiso   1.00
N301   N     0.62662   0.41163   0.16780   0.00000  Uiso   1.00
N302   N     0.37509   0.59184   0.32586   0.00000  Uiso   1.00
N303   N     0.42458   0.44967   0.11104   0.00000  Uiso   1.00
N304   N     0.34213   0.52586   0.40721   0.00000  Uiso   1.00
N305   N     0.62790   0.61463   0.23171   0.00000  Uiso   1.00
O306   O     0.46179   0.56108   0.25001   0.00000  Uiso   1.00
O307   O     0.53823   0.56107   0.25001   0.00000  Uiso   1.00
O308   O     0.44280   0.50000   0.32681   0.00000  Uiso   1.00
O309   O     0.51924   0.49999   0.32681   0.00000  Uiso   1.00
O310   O     0.46177   0.43893   0.25000   0.00000  Uiso   1.00
O311   O     0.53821   0.43892   0.25000   0.00000  Uiso   1.00
O312   O     0.48076   0.50001   0.17319   0.00000  Uiso   1.00
O313   O     0.55720   0.50000   0.17319   0.00000  Uiso   1.00
Zn314  Zn    0.44896   0.50001   0.25000   0.00000  Uiso   1.00
Zn315  Zn    0.55104   0.49999   0.25000   0.00000  Uiso   1.00
C316   C     0.83490   0.57983   0.24536   0.00000  Uiso   1.00
C317   C     0.79161   0.49678   0.40981   0.00000  Uiso   1.00
C318   C     0.87683   0.64606   0.24566   0.00000  Uiso   1.00
C319   C     0.80715   0.49791   0.35165   0.00000  Uiso   1.00
C320   C     0.87270   0.35473   0.25479   0.00000  Uiso   1.00
C321   C     0.83427   0.37586   0.24750   0.00000  Uiso   1.00
C322   C     0.79954   0.35500   0.23180   0.00000  Uiso   1.00
C323   C     0.80118   0.64574   0.22674   0.00000  Uiso   1.00
C324   C     0.83802   0.62407   0.23813   0.00000  Uiso   1.00
C325   C     0.98418   0.46939   0.22352   0.00000  Uiso   1.00
C326   C     0.69803   0.46862   0.22561   0.00000  Uiso   1.00
C327   C     0.81790   0.49838   0.48732   0.00000  Uiso   1.00
C328   C     0.68233   0.53044   0.27692   0.00000  Uiso   1.00
C329   C     0.96727   0.52920   0.27880   0.00000  Uiso   1.00
C330   C     0.83322   0.42000   0.25038   0.00000  Uiso   1.00
C331   C     0.85960   0.49727   0.14814   0.00000  Uiso   1.00
C332   C     0.93346   0.47019   0.00447   0.00000  Uiso   1.00
C333   C     0.87508   0.48916   0.09020   0.00000  Uiso   1.00
C334   C     0.74801   0.51613   0.44059   0.00000  Uiso   1.00
C335   C     0.74256   0.53100   0.49169   0.00000  Uiso   1.00
C336   C     0.77796   0.52397   0.01406   0.00000  Uiso   1.00
C337   C     0.96279   0.48646   0.07848   0.00000  Uiso   1.00
C338   C     0.82514   0.48456   0.43474   0.00000  Uiso   1.00
C339   C     0.76722   0.62582   0.20550   0.00000  Uiso   1.00
C340   C     0.97042   0.43741   0.19291   0.00000  Uiso   1.00
C341   C     0.69713   0.56430   0.30396   0.00000  Uiso   1.00
C342   C     0.79404   0.46581   0.09216   0.00000  Uiso   1.00
C343   C     0.70822   0.52177   0.42133   0.00000  Uiso   1.00
C344   C     0.92340   0.62809   0.23848   0.00000  Uiso   1.00
C345   C     0.85193   0.48753   0.01148   0.00000  Uiso   1.00
C346   C     0.89739   0.47259   0.48096   0.00000  Uiso   1.00
C347   C     0.90387   0.45725   0.42966   0.00000  Uiso   1.00
C348   C     0.86632   0.45958   0.40883   0.00000  Uiso   1.00
C349   C     0.83948   0.48529   0.06604   0.00000  Uiso   1.00
C350   C     0.92343   0.48276   0.05794   0.00000  Uiso   1.00
F351   F     0.90699   0.37478   0.26974   0.00000  Uiso   1.00
F352   F     0.93506   0.55686   0.31004   0.00000  Uiso   1.00
F353   F     0.97774   0.45571   0.47591   0.00000  Uiso   1.00
F354   F     0.77358   0.54333   0.06137   0.00000  Uiso   1.00
F355   F     0.70358   0.55418   0.01920   0.00000  Uiso   1.00
F356   F     0.86978   0.43583   0.36485   0.00000  Uiso   1.00
H357   H     0.77153   0.37185   0.22273   0.00000  Uiso   1.00
H358   H     0.72173   0.44291   0.20785   0.00000  Uiso   1.00
H359   H     0.93654   0.44105   0.40711   0.00000  Uiso   1.00
N360   N     0.71426   0.50001   0.25002   0.00000  Uiso   1.00
N361   N     0.95239   0.49998   0.25001   0.00000  Uiso   1.00
N362   N     0.99462   0.48969   0.09450   0.00000  Uiso   1.00
N363   N     0.74027   0.60996   0.18811   0.00000  Uiso   1.00
N364   N     0.95995   0.41163   0.16780   0.00000  Uiso   1.00
N365   N     0.70843   0.59184   0.32586   0.00000  Uiso   1.00
N366   N     0.75791   0.44967   0.11104   0.00000  Uiso   1.00
N367   N     0.67547   0.52586   0.40721   0.00000  Uiso   1.00
N368   N     0.96123   0.61463   0.23171   0.00000  Uiso   1.00
O369   O     0.79512   0.56108   0.25001   0.00000  Uiso   1.00
O370   O     0.87157   0.56107   0.25001   0.00000  Uiso   1.00
O371   O     0.77613   0.50000   0.32681   0.00000  Uiso   1.00
O372   O     0.85258   0.49999   0.32681   0.00000  Uiso   1.00
O373   O     0.79510   0.43893   0.25000   0.00000  Uiso   1.00
O374   O     0.87154   0.43892   0.25000   0.00000  Uiso   1.00
O375   O     0.81409   0.50001   0.17319   0.00000  Uiso   1.00
O376   O     0.89053   0.50000   0.17319   0.00000  Uiso   1.00
Zn377  Zn    0.78229   0.50001   0.25000   0.00000  Uiso   1.00
Zn378  Zn    0.88438   0.49999   0.25000   0.00000  Uiso   1.00
C379   C     0.16823   0.91316   0.24536   0.00000  Uiso   1.00
C380   C     0.12495   0.83011   0.40981   0.00000  Uiso   1.00
C381   C     0.21016   0.97939   0.24566   0.00000  Uiso   1.00
C382   C     0.14049   0.83125   0.35165   0.00000  Uiso   1.00
C383   C     0.20604   0.68806   0.25479   0.00000  Uiso   1.00
C384   C     0.16760   0.70920   0.24750   0.00000  Uiso   1.00
C385   C     0.13288   0.68833   0.23180   0.00000  Uiso   1.00
C386   C     0.13452   0.97907   0.22674   0.00000  Uiso   1.00
C387   C     0.17135   0.95740   0.23813   0.00000  Uiso   1.00
C388   C     0.31752   0.80272   0.22352   0.00000  Uiso   1.00
C389   C     0.03136   0.80195   0.22561   0.00000  Uiso   1.00
C390   C     0.15123   0.83171   0.48732   0.00000  Uiso   1.00
C391   C     0.01566   0.86377   0.27692   0.00000  Uiso   1.00
C392   C     0.30060   0.86253   0.27880   0.00000  Uiso   1.00
C393   C     0.16656   0.75333   0.25038   0.00000  Uiso   1.00
C394   C     0.19294   0.83060   0.14814   0.00000  Uiso   1.00
C395   C     0.26679   0.80352   0.00447   0.00000  Uiso   1.00
C396   C     0.20841   0.82250   0.09020   0.00000  Uiso   1.00
C397   C     0.08134   0.84946   0.44059   0.00000  Uiso   1.00
C398   C     0.07589   0.86433   0.49169   0.00000  Uiso   1.00
C399   C     0.11129   0.85730   0.01406   0.00000  Uiso   1.00
C400   C     0.29613   0.81979   0.07848   0.00000  Uiso   1.00
C401   C     0.15847   0.81789   0.43474   0.00000  Uiso   1.00
C402   C     0.10055   0.95915   0.20550   0.00000  Uiso   1.00
C403   C     0.30376   0.77075   0.19291   0.00000  Uiso   1.00
C404   C     0.03046   0.89763   0.30396   0.00000  Uiso   1.00
C405   C     0.12737   0.79915   0.09216   0.00000  Uiso   1.00
C406   C     0.04155   0.85510   0.42133   0.00000  Uiso   1.00
C407   C     0.25674   0.96143   0.23848   0.00000  Uiso   1.00
C408   C     0.18526   0.82086   0.01148   0.00000  Uiso   1.00
C409   C     0.23072   0.80592   0.48096   0.00000  Uiso   1.00
C410   C     0.23720   0.79059   0.42966   0.00000  Uiso   1.00
C411   C     0.19966   0.79291   0.40883   0.00000  Uiso   1.00
C412   C     0.17281   0.81862   0.06604   0.00000  Uiso   1.00
C413   C     0.25677   0.81609   0.05794   0.00000  Uiso   1.00
F414   F     0.24032   0.70811   0.26974   0.00000  Uiso   1.00
F415   F     0.26839   0.89019   0.31004   0.00000  Uiso   1.00
F416   F     0.31107   0.78904   0.47591   0.00000  Uiso   1.00
F417   F     0.10691   0.87666   0.06137   0.00000  Uiso   1.00
F418   F     0.03691   0.88752   0.01920   0.00000  Uiso   1.00
F419   F     0.20311   0.76916   0.36485   0.00000  Uiso   1.00
H420   H     0.10486   0.70518   0.22273   0.00000  Uiso   1.00
H421   H     0.05506   0.77624   0.20785   0.00000  Uiso   1.00
H422   H     0.26987   0.77438   0.40711   0.00000  Uiso   1.00
N423   N     0.04760   0.83334   0.25002   0.00000  Uiso   1.00
N424   N     0.28573   0.83331   0.25001   0.00000  Uiso   1.00
N425   N     0.32796   0.82302   0.09450   0.00000  Uiso   1.00
N426   N     0.07360   0.94329   0.18811   0.00000  Uiso   1.00
N427   N     0.29329   0.74497   0.16780   0.00000  Uiso   1.00
N428   N     0.04176   0.92517   0.32586   0.00000  Uiso   1.00
N429   N     0.09124   0.78300   0.11104   0.00000  Uiso   1.00
N430   N     0.00880   0.85919   0.40721   0.00000  Uiso   1.00
N431   N     0.29457   0.94797   0.23171   0.00000  Uiso   1.00
O432   O     0.12846   0.89442   0.25001   0.00000  Uiso   1.00
O433   O     0.20490   0.89441   0.25001   0.00000  Uiso   1.00
O434   O     0.10947   0.83333   0.32681   0.00000  Uiso   1.00
O435   O     0.18591   0.83332   0.32681   0.00000  Uiso   1.00
O436   O     0.12843   0.77226   0.25000   0.00000  Uiso   1.00
O437   O     0.20488   0.77225   0.25000   0.00000  Uiso   1.00
O438   O     0.14742   0.83335   0.17319   0.00000  Uiso   1.00
O439   O     0.22387   0.83334   0.17319   0.00000  Uiso   1.00
Zn440  Zn    0.11562   0.83334   0.25000   0.00000  Uiso   1.00
Zn441  Zn    0.21771   0.83333   0.25000   0.00000  Uiso   1.00
C442   C     0.50157   0.91316   0.24536   0.00000  Uiso   1.00
C443   C     0.45828   0.83011   0.40981   0.00000  Uiso   1.00
C444   C     0.54350   0.97939   0.24566   0.00000  Uiso   1.00
C445   C     0.47382   0.83125   0.35165   0.00000  Uiso   1.00
C446   C     0.53937   0.68806   0.25479   0.00000  Uiso   1.00
C447   C     0.50094   0.70920   0.24750   0.00000  Uiso   1.00
C448   C     0.46621   0.68833   0.23180   0.00000  Uiso   1.00
C449   C     0.46785   0.97907   0.22674   0.00000  Uiso   1.00
C450   C     0.50469   0.95740   0.23813   0.00000  Uiso   1.00
C451   C     0.65085   0.80272   0.22352   0.00000  Uiso   1.00
C452   C     0.36470   0.80195   0.22561   0.00000  Uiso   1.00
C453   C     0.48457   0.83171   0.48732   0.00000  Uiso   1.00
C454   C     0.34900   0.86377   0.27692   0.00000  Uiso   1.00
C455   C     0.63393   0.86253   0.27880   0.00000  Uiso   1.00
C456   C     0.49989   0.75333   0.25038   0.00000  Uiso   1.00
C457   C     0.52627   0.83060   0.14814   0.00000  Uiso   1.00
C458   C     0.60012   0.80352   0.00447   0.00000  Uiso   1.00
C459   C     0.54174   0.82250   0.09020   0.00000  Uiso   1.00
C460   C     0.41468   0.84946   0.44059   0.00000  Uiso   1.00
C461   C     0.40922   0.86433   0.49169   0.00000  Uiso   1.00
C462   C     0.44462   0.85730   0.01406   0.00000  Uiso   1.00
C463   C     0.62946   0.81979   0.07848   0.00000  Uiso   1.00
C464   C     0.49180   0.81789   0.43474   0.00000  Uiso   1.00
C465   C     0.43388   0.95915   0.20550   0.00000  Uiso   1.00
C466   C     0.63709   0.77075   0.19291   0.00000  Uiso   1.00
C467   C     0.36380   0.89763   0.30396   0.00000  Uiso   1.00
C468   C     0.46071   0.79915   0.09216   0.00000  Uiso   1.00
C469   C     0.37488   0.85510   0.42133   0.00000  Uiso   1.00
C470   C     0.59007   0.96143   0.23848   0.00000  Uiso   1.00
C471   C     0.51859   0.82086   0.01148   0.00000  Uiso   1.00
C472   C     0.56406   0.80592   0.48096   0.00000  Uiso   1.00
C473   C     0.57053   0.79059   0.42966   0.00000  Uiso   1.00
C474   C     0.53299   0.79291   0.40883   0.00000  Uiso   1.00
C475   C     0.50614   0.81862   0.06604   0.00000  Uiso   1.00
C476   C     0.59010   0.81609   0.05794   0.00000  Uiso   1.00
F477   F     0.57365   0.70811   0.26974   0.00000  Uiso   1.00
F478   F     0.60173   0.89019   0.31004   0.00000  Uiso   1.00
F479   F     0.64441   0.78904   0.47591   0.00000  Uiso   1.00
F480   F     0.44025   0.87666   0.06137   0.00000  Uiso   1.00
F481   F     0.37024   0.88752   0.01920   0.00000  Uiso   1.00
F482   F     0.53644   0.76916   0.36485   0.00000  Uiso   1.00
H483   H     0.43820   0.70518   0.22273   0.00000  Uiso   1.00
H484   H     0.38840   0.77624   0.20785   0.00000  Uiso   1.00
H485   H     0.60321   0.77438   0.40711   0.00000  Uiso   1.00
N486   N     0.38093   0.83334   0.25002   0.00000  Uiso   1.00
N487   N     0.61906   0.83331   0.25001   0.00000  Uiso   1.00
N488   N     0.66129   0.82302   0.09450   0.00000  Uiso   1.00
N489   N     0.40694   0.94329   0.18811   0.00000  Uiso   1.00
N490   N     0.62662   0.74497   0.16780   0.00000  Uiso   1.00
N491   N     0.37509   0.92517   0.32586   0.00000  Uiso   1.00
N492   N     0.42458   0.78300   0.11104   0.00000  Uiso   1.00
N493   N     0.34213   0.85919   0.40721   0.00000  Uiso   1.00
N494   N     0.62790   0.94797   0.23171   0.00000  Uiso   1.00
O495   O     0.46179   0.89442   0.25001   0.00000  Uiso   1.00
O496   O     0.53823   0.89441   0.25001   0.00000  Uiso   1.00
O497   O     0.44280   0.83333   0.32681   0.00000  Uiso   1.00
O498   O     0.51924   0.83332   0.32681   0.00000  Uiso   1.00
O499   O     0.46177   0.77226   0.25000   0.00000  Uiso   1.00
O500   O     0.53821   0.77225   0.25000   0.00000  Uiso   1.00
O501   O     0.48076   0.83335   0.17319   0.00000  Uiso   1.00
O502   O     0.55720   0.83334   0.17319   0.00000  Uiso   1.00
Zn503  Zn    0.44896   0.83334   0.25000   0.00000  Uiso   1.00
Zn504  Zn    0.55104   0.83333   0.25000   0.00000  Uiso   1.00
C505   C     0.83490   0.91316   0.24536   0.00000  Uiso   1.00
C506   C     0.79161   0.83011   0.40981   0.00000  Uiso   1.00
C507   C     0.87683   0.97939   0.24566   0.00000  Uiso   1.00
C508   C     0.80715   0.83125   0.35165   0.00000  Uiso   1.00
C509   C     0.87270   0.68806   0.25479   0.00000  Uiso   1.00
C510   C     0.83427   0.70920   0.24750   0.00000  Uiso   1.00
C511   C     0.79954   0.68833   0.23180   0.00000  Uiso   1.00
C512   C     0.80118   0.97907   0.22674   0.00000  Uiso   1.00
C513   C     0.83802   0.95740   0.23813   0.00000  Uiso   1.00
C514   C     0.98418   0.80272   0.22352   0.00000  Uiso   1.00
C515   C     0.69803   0.80195   0.22561   0.00000  Uiso   1.00
C516   C     0.81790   0.83171   0.48732   0.00000  Uiso   1.00
C517   C     0.68233   0.86377   0.27692   0.00000  Uiso   1.00
C518   C     0.96727   0.86253   0.27880   0.00000  Uiso   1.00
C519   C     0.83322   0.75333   0.25038   0.00000  Uiso   1.00
C520   C     0.85960   0.83060   0.14814   0.00000  Uiso   1.00
C521   C     0.93346   0.80352   0.00447   0.00000  Uiso   1.00
C522   C     0.87508   0.82250   0.09020   0.00000  Uiso   1.00
C523   C     0.74801   0.84946   0.44059   0.00000  Uiso   1.00
C524   C     0.74256   0.86433   0.49169   0.00000  Uiso   1.00
C525   C     0.77796   0.85730   0.01406   0.00000  Uiso   1.00
C526   C     0.96279   0.81979   0.07848   0.00000  Uiso   1.00
C527   C     0.82514   0.81789   0.43474   0.00000  Uiso   1.00
C528   C     0.76722   0.95915   0.20550   0.00000  Uiso   1.00
C529   C     0.97042   0.77075   0.19291   0.00000  Uiso   1.00
C530   C     0.69713   0.89763   0.30396   0.00000  Uiso   1.00
C531   C     0.79404   0.79915   0.09216   0.00000  Uiso   1.00
C532   C     0.70822   0.85510   0.42133   0.00000  Uiso   1.00
C533   C     0.92340   0.96143   0.23848   0.00000  Uiso   1.00
C534   C     0.85193   0.82086   0.01148   0.00000  Uiso   1.00
C535   C     0.89739   0.80592   0.48096   0.00000  Uiso   1.00
C536   C     0.90387   0.79059   0.42966   0.00000  Uiso   1.00
C537   C     0.86632   0.79291   0.40883   0.00000  Uiso   1.00
C538   C     0.83948   0.81862   0.06604   0.00000  Uiso   1.00
C539   C     0.92343   0.81609   0.05794   0.00000  Uiso   1.00
F540   F     0.90699   0.70811   0.26974   0.00000  Uiso   1.00
F541   F     0.93506   0.89019   0.31004   0.00000  Uiso   1.00
F542   F     0.97774   0.78904   0.47591   0.00000  Uiso   1.00
F543   F     0.77358   0.87666   0.06137   0.00000  Uiso   1.00
F544   F     0.70358   0.88752   0.01920   0.00000  Uiso   1.00
F545   F     0.86978   0.76916   0.36485   0.00000  Uiso   1.00
H546   H     0.77153   0.70518   0.22273   0.00000  Uiso   1.00
H547   H     0.72173   0.77624   0.20785   0.00000  Uiso   1.00
H548   H     0.93654   0.77438   0.40711   0.00000  Uiso   1.00
N549   N     0.71426   0.83334   0.25002   0.00000  Uiso   1.00
N550   N     0.95239   0.83331   0.25001   0.00000  Uiso   1.00
N551   N     0.99462   0.82302   0.09450   0.00000  Uiso   1.00
N552   N     0.74027   0.94329   0.18811   0.00000  Uiso   1.00
N553   N     0.95995   0.74497   0.16780   0.00000  Uiso   1.00
N554   N     0.70843   0.92517   0.32586   0.00000  Uiso   1.00
N555   N     0.75791   0.78300   0.11104   0.00000  Uiso   1.00
N556   N     0.67547   0.85919   0.40721   0.00000  Uiso   1.00
N557   N     0.96123   0.94797   0.23171   0.00000  Uiso   1.00
O558   O     0.79512   0.89442   0.25001   0.00000  Uiso   1.00
O559   O     0.87157   0.89441   0.25001   0.00000  Uiso   1.00
O560   O     0.77613   0.83333   0.32681   0.00000  Uiso   1.00
O561   O     0.85258   0.83332   0.32681   0.00000  Uiso   1.00
O562   O     0.79510   0.77226   0.25000   0.00000  Uiso   1.00
O563   O     0.87154   0.77225   0.25000   0.00000  Uiso   1.00
O564   O     0.81409   0.83335   0.17319   0.00000  Uiso   1.00
O565   O     0.89053   0.83334   0.17319   0.00000  Uiso   1.00
Zn566  Zn    0.78229   0.83334   0.25000   0.00000  Uiso   1.00
Zn567  Zn    0.88438   0.83333   0.25000   0.00000  Uiso   1.00
C568   C     0.16823   0.24649   0.74536   0.00000  Uiso   1.00
C569   C     0.12495   0.16345   0.90981   0.00000  Uiso   1.00
C570   C     0.21016   0.31272   0.74566   0.00000  Uiso   1.00
C571   C     0.14049   0.16458   0.85165   0.00000  Uiso   1.00
C572   C     0.20604   0.02139   0.75479   0.00000  Uiso   1.00
C573   C     0.16760   0.04253   0.74750   0.00000  Uiso   1.00
C574   C     0.13288   0.02166   0.73180   0.00000  Uiso   1.00
C575   C     0.13452   0.31241   0.72674   0.00000  Uiso   1.00
C576   C     0.17135   0.29073   0.73813   0.00000  Uiso   1.00
C577   C     0.31752   0.13605   0.72352   0.00000  Uiso   1.00
C578   C     0.03136   0.13528   0.72561   0.00000  Uiso   1.00
C579   C     0.15123   0.16505   0.98732   0.00000  Uiso   1.00
C580   C     0.01566   0.19711   0.77692   0.00000  Uiso   1.00
C581   C     0.30060   0.19586   0.77880   0.00000  Uiso   1.00
C582   C     0.16656   0.08666   0.75038   0.00000  Uiso   1.00
C583   C     0.19294   0.16393   0.64814   0.00000  Uiso   1.00
C584   C     0.26679   0.13685   0.50447   0.00000  Uiso   1.00
C585   C     0.20841   0.15583   0.59020   0.00000  Uiso   1.00
C586   C     0.08134   0.18280   0.94059   0.00000  Uiso   1.00
C587   C     0.07589   0.19767   0.99169   0.00000  Uiso   1.00
C588   C     0.11129   0.19064   0.51406   0.00000  Uiso   1.00
C589   C     0.29613   0.15312   0.57848   0.00000  Uiso   1.00
C590   C     0.15847   0.15123   0.93474   0.00000  Uiso   1.00
C591   C     0.10055   0.29249   0.70550   0.00000  Uiso   1.00
C592   C     0.30376   0.10408   0.69291   0.00000  Uiso   1.00
C593   C     0.03046   0.23096   0.80396   0.00000  Uiso   1.00
C594   C     0.12737   0.13248   0.59216   0.00000  Uiso   1.00
C595   C     0.04155   0.18844   0.92133   0.00000  Uiso   1.00
C596   C     0.25674   0.29476   0.73848   0.00000  Uiso   1.00
C597   C     0.18526   0.15419   0.51148   0.00000  Uiso   1.00
C598   C     0.23072   0.13926   0.98096   0.00000  Uiso   1.00
C599   C     0.23720   0.12392   0.92966   0.00000  Uiso   1.00
C600   C     0.19966   0.12624   0.90883   0.00000  Uiso   1.00
C601   C     0.17281   0.15196   0.56604   0.00000  Uiso   1.00
C602   C     0.25677   0.14943   0.55794   0.00000  Uiso   1.00
F603   F     0.24032   0.04144   0.76974   0.00000  Uiso   1.00
F604   F     0.26839   0.22352   0.81004   0.00000  Uiso   1.00
F605   F     0.31107   0.12238   0.97591   0.00000  Uiso   1.00
F606   F     0.10691   0.20999   0.56137   0.00000  Uiso   1.00
F607   F     0.03691   0.22085   0.51920   0.00000  Uiso   1.00
F608   F     0.20311   0.10249   0.86485   0.00000  Uiso   1.00
H609   H     0.10486   0.03851   0.72273   0.00000  Uiso   1.00
H610   H     0.05506   0.10958   0.70785   0.00000  Uiso   1.00
H611   H     0.26987   0.10772   0.90711   0.00000  Uiso   1.00
N612   N     0.04760   0.16668   0.75002   0.00000  Uiso   1.00
N613   N     0.28573   0.16665   0.75001   0.00000  Uiso   1.00
N614   N     0.32796   0.15636   0.59450   0.00000  Uiso   1.00
N615   N     0.07360   0.27663   0.68811   0.00000  Uiso   1.00
N616   N     0.29329   0.07830   0.66780   0.00000  Uiso   1.00
N617   N     0.04176   0.25851   0.82586   0.00000  Uiso   1.00
N618   N     0.09124   0.11634   0.61104   0.00000  Uiso   1.00
N619   N     0.00880   0.19253   0.90721   0.00000  Uiso   1.00
N620   N     0.29457   0.28130   0.73171   0.00000  Uiso   1.00
O621   O     0.12846   0.22775   0.75001   0.00000  Uiso   1.00
O622   O     0.20490   0.22774   0.75001   0.00000  Uiso   1.00
O623   O     0.10947   0.16666   0.82681   0.00000  Uiso   1.00
O624   O     0.18591   0.16665   0.82681   0.00000  Uiso   1.00
O625   O     0.12843   0.10559   0.75000   0.00000  Uiso   1.00
O626   O     0.20488   0.10558   0.75000   0.00000  Uiso   1.00
O627   O     0.14742   0.16668   0.67319   0.00000  Uiso   1.00
O628   O     0.22387   0.16667   0.67319   0.00000  Uiso   1.00
Zn629  Zn    0.11562   0.16667   0.75000   0.00000  Uiso   1.00
Zn630  Zn    0.21771   0.16666   0.75000   0.00000  Uiso   1.00
C631   C     0.50157   0.24649   0.74536   0.00000  Uiso   1.00
C632   C     0.45828   0.16345   0.90981   0.00000  Uiso   1.00
C633   C     0.54350   0.31272   0.74566   0.00000  Uiso   1.00
C634   C     0.47382   0.16458   0.85165   0.00000  Uiso   1.00
C635   C     0.53937   0.02139   0.75479   0.00000  Uiso   1.00
C636   C     0.50094   0.04253   0.74750   0.00000  Uiso   1.00
C637   C     0.46621   0.02166   0.73180   0.00000  Uiso   1.00
C638   C     0.46785   0.31241   0.72674   0.00000  Uiso   1.00
C639   C     0.50469   0.29073   0.73813   0.00000  Uiso   1.00
C640   C     0.65085   0.13605   0.72352   0.00000  Uiso   1.00
C641   C     0.36470   0.13528   0.72561   0.00000  Uiso   1.00
C642   C     0.48457   0.16505   0.98732   0.00000  Uiso   1.00
C643   C     0.34900   0.19711   0.77692   0.00000  Uiso   1.00
C644   C     0.63393   0.19586   0.77880   0.00000  Uiso   1.00
C645   C     0.49989   0.08666   0.75038   0.00000  Uiso   1.00
C646   C     0.52627   0.16393   0.64814   0.00000  Uiso   1.00
C647   C     0.60012   0.13685   0.50447   0.00000  Uiso   1.00
C648   C     0.54174   0.15583   0.59020   0.00000  Uiso   1.00
C649   C     0.41468   0.18280   0.94059   0.00000  Uiso   1.00
C650   C     0.40922   0.19767   0.99169   0.00000  Uiso   1.00
C651   C     0.44462   0.19064   0.51406   0.00000  Uiso   1.00
C652   C     0.62946   0.15312   0.57848   0.00000  Uiso   1.00
C653   C     0.49180   0.15123   0.93474   0.00000  Uiso   1.00
C654   C     0.43388   0.29249   0.70550   0.00000  Uiso   1.00
C655   C     0.63709   0.10408   0.69291   0.00000  Uiso   1.00
C656   C     0.36380   0.23096   0.80396   0.00000  Uiso   1.00
C657   C     0.46071   0.13248   0.59216   0.00000  Uiso   1.00
C658   C     0.37488   0.18844   0.92133   0.00000  Uiso   1.00
C659   C     0.59007   0.29476   0.73848   0.00000  Uiso   1.00
C660   C     0.51859   0.15419   0.51148   0.00000  Uiso   1.00
C661   C     0.56406   0.13926   0.98096   0.00000  Uiso   1.00
C662   C     0.57053   0.12392   0.92966   0.00000  Uiso   1.00
C663   C     0.53299   0.12624   0.90883   0.00000  Uiso   1.00
C664   C     0.50614   0.15196   0.56604   0.00000  Uiso   1.00
C665   C     0.59010   0.14943   0.55794   0.00000  Uiso   1.00
F666   F     0.57365   0.04144   0.76974   0.00000  Uiso   1.00
F667   F     0.60173   0.22352   0.81004   0.00000  Uiso   1.00
F668   F     0.64441   0.12238   0.97591   0.00000  Uiso   1.00
F669   F     0.44025   0.20999   0.56137   0.00000  Uiso   1.00
F670   F     0.37024   0.22085   0.51920   0.00000  Uiso   1.00
F671   F     0.53644   0.10249   0.86485   0.00000  Uiso   1.00
H672   H     0.43820   0.03851   0.72273   0.00000  Uiso   1.00
H673   H     0.38840   0.10958   0.70785   0.00000  Uiso   1.00
H674   H     0.60321   0.10772   0.90711   0.00000  Uiso   1.00
N675   N     0.38093   0.16668   0.75002   0.00000  Uiso   1.00
N676   N     0.61906   0.16665   0.75001   0.00000  Uiso   1.00
N677   N     0.66129   0.15636   0.59450   0.00000  Uiso   1.00
N678   N     0.40694   0.27663   0.68811   0.00000  Uiso   1.00
N679   N     0.62662   0.07830   0.66780   0.00000  Uiso   1.00
N680   N     0.37509   0.25851   0.82586   0.00000  Uiso   1.00
N681   N     0.42458   0.11634   0.61104   0.00000  Uiso   1.00
N682   N     0.34213   0.19253   0.90721   0.00000  Uiso   1.00
N683   N     0.62790   0.28130   0.73171   0.00000  Uiso   1.00
O684   O     0.46179   0.22775   0.75001   0.00000  Uiso   1.00
O685   O     0.53823   0.22774   0.75001   0.00000  Uiso   1.00
O686   O     0.44280   0.16666   0.82681   0.00000  Uiso   1.00
O687   O     0.51924   0.16665   0.82681   0.00000  Uiso   1.00
O688   O     0.46177   0.10559   0.75000   0.00000  Uiso   1.00
O689   O     0.53821   0.10558   0.75000   0.00000  Uiso   1.00
O690   O     0.48076   0.16668   0.67319   0.00000  Uiso   1.00
O691   O     0.55720   0.16667   0.67319   0.00000  Uiso   1.00
Zn692  Zn    0.44896   0.16667   0.75000   0.00000  Uiso   1.00
Zn693  Zn    0.55104   0.16666   0.75000   0.00000  Uiso   1.00
C694   C     0.83490   0.24649   0.74536   0.00000  Uiso   1.00
C695   C     0.79161   0.16345   0.90981   0.00000  Uiso   1.00
C696   C     0.87683   0.31272   0.74566   0.00000  Uiso   1.00
C697   C     0.80715   0.16458   0.85165   0.00000  Uiso   1.00
C698   C     0.87270   0.02139   0.75479   0.00000  Uiso   1.00
C699   C     0.83427   0.04253   0.74750   0.00000  Uiso   1.00
C700   C     0.79954   0.02166   0.73180   0.00000  Uiso   1.00
C701   C     0.80118   0.31241   0.72674   0.00000  Uiso   1.00
C702   C     0.83802   0.29073   0.73813   0.00000  Uiso   1.00
C703   C     0.98418   0.13605   0.72352   0.00000  Uiso   1.00
C704   C     0.69803   0.13528   0.72561   0.00000  Uiso   1.00
C705   C     0.81790   0.16505   0.98732   0.00000  Uiso   1.00
C706   C     0.68233   0.19711   0.77692   0.00000  Uiso   1.00
C707   C     0.96727   0.19586   0.77880   0.00000  Uiso   1.00
C708   C     0.83322   0.08666   0.75038   0.00000  Uiso   1.00
C709   C     0.85960   0.16393   0.64814   0.00000  Uiso   1.00
C710   C     0.93346   0.13685   0.50447   0.00000  Uiso   1.00
C711   C     0.87508   0.15583   0.59020   0.00000  Uiso   1.00
C712   C     0.74801   0.18280   0.94059   0.00000  Uiso   1.00
C713   C     0.74256   0.19767   0.99169   0.00000  Uiso   1.00
C714   C     0.77796   0.19064   0.51406   0.00000  Uiso   1.00
C715   C     0.96279   0.15312   0.57848   0.00000  Uiso   1.00
C716   C     0.82514   0.15123   0.93474   0.00000  Uiso   1.00
C717   C     0.76722   0.29249   0.70550   0.00000  Uiso   1.00
C718   C     0.97042   0.10408   0.69291   0.00000  Uiso   1.00
C719   C     0.69713   0.23096   0.80396   0.00000  Uiso   1.00
C720   C     0.79404   0.13248   0.59216   0.00000  Uiso   1.00
C721   C     0.70822   0.18844   0.92133   0.00000  Uiso   1.00
C722   C     0.92340   0.29476   0.73848   0.00000  Uiso   1.00
C723   C     0.85193   0.15419   0.51148   0.00000  Uiso   1.00
C724   C     0.89739   0.13926   0.98096   0.00000  Uiso   1.00
C725   C     0.90387   0.12392   0.92966   0.00000  Uiso   1.00
C726   C     0.86632   0.12624   0.90883   0.00000  Uiso   1.00
C727   C     0.83948   0.15196   0.56604   0.00000  Uiso   1.00
C728   C     0.92343   0.14943   0.55794   0.00000  Uiso   1.00
F729   F     0.90699   0.04144   0.76974   0.00000  Uiso   1.00
F730   F     0.93506   0.22352   0.81004   0.00000  Uiso   1.00
F731   F     0.97774   0.12238   0.97591   0.00000  Uiso   1.00
F732   F     0.77358   0.20999   0.56137   0.00000  Uiso   1.00
F733   F     0.70358   0.22085   0.51920   0.00000  Uiso   1.00
F734   F     0.86978   0.10249   0.86485   0.00000  Uiso   1.00
H735   H     0.77153   0.03851   0.72273   0.00000  Uiso   1.00
H736   H     0.72173   0.10958   0.70785   0.00000  Uiso   1.00
H737   H     0.93654   0.10772   0.90711   0.00000  Uiso   1.00
N738   N     0.71426   0.16668   0.75002   0.00000  Uiso   1.00
N739   N     0.95239   0.16665   0.75001   0.00000  Uiso   1.00
N740   N     0.99462   0.15636   0.59450   0.00000  Uiso   1.00
N741   N     0.74027   0.27663   0.68811   0.00000  Uiso   1.00
N742   N     0.95995   0.07830   0.66780   0.00000  Uiso   1.00
N743   N     0.70843   0.25851   0.82586   0.00000  Uiso   1.00
N744   N     0.75791   0.11634   0.61104   0.00000  Uiso   1.00
N745   N     0.67547   0.19253   0.90721   0.00000  Uiso   1.00
N746   N     0.96123   0.28130   0.73171   0.00000  Uiso   1.00
O747   O     0.79512   0.22775   0.75001   0.00000  Uiso   1.00
O748   O     0.87157   0.22774   0.75001   0.00000  Uiso   1.00
O749   O     0.77613   0.16666   0.82681   0.00000  Uiso   1.00
O750   O     0.85258   0.16665   0.82681   0.00000  Uiso   1.00
O751   O     0.79510   0.10559   0.75000   0.00000  Uiso   1.00
O752   O     0.87154   0.10558   0.75000   0.00000  Uiso   1.00
O753   O     0.81409   0.16668   0.67319   0.00000  Uiso   1.00
O754   O     0.89053   0.16667   0.67319   0.00000  Uiso   1.00
Zn755  Zn    0.78229   0.16667   0.75000   0.00000  Uiso   1.00
Zn756  Zn    0.88438   0.16666   0.75000   0.00000  Uiso   1.00
C757   C     0.16823   0.57983   0.74536   0.00000  Uiso   1.00
C758   C     0.12495   0.49678   0.90981   0.00000  Uiso   1.00
C759   C     0.21016   0.64606   0.74566   0.00000  Uiso   1.00
C760   C     0.14049   0.49791   0.85165   0.00000  Uiso   1.00
C761   C     0.20604   0.35473   0.75479   0.00000  Uiso   1.00
C762   C     0.16760   0.37586   0.74750   0.00000  Uiso   1.00
C763   C     0.13288   0.35500   0.73180   0.00000  Uiso   1.00
C764   C     0.13452   0.64574   0.72674   0.00000  Uiso   1.00
C765   C     0.17135   0.62407   0.73813   0.00000  Uiso   1.00
C766   C     0.31752   0.46939   0.72352   0.00000  Uiso   1.00
C767   C     0.03136   0.46862   0.72561   0.00000  Uiso   1.00
C768   C     0.15123   0.49838   0.98732   0.00000  Uiso   1.00
C769   C     0.01566   0.53044   0.77692   0.00000  Uiso   1.00
C770   C     0.30060   0.52920   0.77880   0.00000  Uiso   1.00
C771   C     0.16656   0.42000   0.75038   0.00000  Uiso   1.00
C772   C     0.19294   0.49727   0.64814   0.00000  Uiso   1.00
C773   C     0.26679   0.47019   0.50447   0.00000  Uiso   1.00
C774   C     0.20841   0.48916   0.59020   0.00000  Uiso   1.00
C775   C     0.08134   0.51613   0.94059   0.00000  Uiso   1.00
C776   C     0.07589   0.53100   0.99169   0.00000  Uiso   1.00
C777   C     0.11129   0.52397   0.51406   0.00000  Uiso   1.00
C778   C     0.29613   0.48646   0.57848   0.00000  Uiso   1.00
C779   C     0.15847   0.48456   0.93474   0.00000  Uiso   1.00
C780   C     0.10055   0.62582   0.70550   0.00000  Uiso   1.00
C781   C     0.30376   0.43741   0.69291   0.00000  Uiso   1.00
C782   C     0.03046   0.56430   0.80396   0.00000  Uiso   1.00
C783   C     0.12737   0.46581   0.59216   0.00000  Uiso   1.00
C784   C     0.04155   0.52177   0.92133   0.00000  Uiso   1.00
C785   C     0.25674   0.62809   0.73848   0.00000  Uiso   1.00
C786   C     0.18526   0.48753   0.51148   0.00000  Uiso   1.00
C787   C     0.23072   0.47259   0.98096   0.00000  Uiso   1.00
C788   C     0.23720   0.45725   0.92966   0.00000  Uiso   1.00
C789   C     0.19966   0.45958   0.90883   0.00000  Uiso   1.00
C790   C     0.17281   0.48529   0.56604   0.00000  Uiso   1.00
C791   C     0.25677   0.48276   0.55794   0.00000  Uiso   1.00
F792   F     0.24032   0.37478   0.76974   0.00000  Uiso   1.00
F793   F     0.26839   0.55686   0.81004   0.00000  Uiso   1.00
F794   F     0.31107   0.45571   0.97591   0.00000  Uiso   1.00
F795   F     0.10691   0.54333   0.56137   0.00000  Uiso   1.00
F796   F     0.03691   0.55418   0.51920   0.00000  Uiso   1.00
F797   F     0.20311   0.43583   0.86485   0.00000  Uiso   1.00
H798   H     0.10486   0.37185   0.72273   0.00000  Uiso   1.00
H799   H     0.05506   0.44291   0.70785   0.00000  Uiso   1.00
H800   H     0.26987   0.44105   0.90711   0.00000  Uiso   1.00
N801   N     0.04760   0.50001   0.75002   0.00000  Uiso   1.00
N802   N     0.28573   0.49998   0.75001   0.00000  Uiso   1.00
N803   N     0.32796   0.48969   0.59450   0.00000  Uiso   1.00
N804   N     0.07360   0.60996   0.68811   0.00000  Uiso   1.00
N805   N     0.29329   0.41163   0.66780   0.00000  Uiso   1.00
N806   N     0.04176   0.59184   0.82586   0.00000  Uiso   1.00
N807   N     0.09124   0.44967   0.61104   0.00000  Uiso   1.00
N808   N     0.00880   0.52586   0.90721   0.00000  Uiso   1.00
N809   N     0.29457   0.61463   0.73171   0.00000  Uiso   1.00
O810   O     0.12846   0.56108   0.75001   0.00000  Uiso   1.00
O811   O     0.20490   0.56107   0.75001   0.00000  Uiso   1.00
O812   O     0.10947   0.50000   0.82681   0.00000  Uiso   1.00
O813   O     0.18591   0.49999   0.82681   0.00000  Uiso   1.00
O814   O     0.12843   0.43893   0.75000   0.00000  Uiso   1.00
O815   O     0.20488   0.43892   0.75000   0.00000  Uiso   1.00
O816   O     0.14742   0.50001   0.67319   0.00000  Uiso   1.00
O817   O     0.22387   0.50000   0.67319   0.00000  Uiso   1.00
Zn818  Zn    0.11562   0.50001   0.75000   0.00000  Uiso   1.00
Zn819  Zn    0.21771   0.49999   0.75000   0.00000  Uiso   1.00
C820   C     0.50157   0.57983   0.74536   0.00000  Uiso   1.00
C821   C     0.45828   0.49678   0.90981   0.00000  Uiso   1.00
C822   C     0.54350   0.64606   0.74566   0.00000  Uiso   1.00
C823   C     0.47382   0.49791   0.85165   0.00000  Uiso   1.00
C824   C     0.53937   0.35473   0.75479   0.00000  Uiso   1.00
C825   C     0.50094   0.37586   0.74750   0.00000  Uiso   1.00
C826   C     0.46621   0.35500   0.73180   0.00000  Uiso   1.00
C827   C     0.46785   0.64574   0.72674   0.00000  Uiso   1.00
C828   C     0.50469   0.62407   0.73813   0.00000  Uiso   1.00
C829   C     0.65085   0.46939   0.72352   0.00000  Uiso   1.00
C830   C     0.36470   0.46862   0.72561   0.00000  Uiso   1.00
C831   C     0.48457   0.49838   0.98732   0.00000  Uiso   1.00
C832   C     0.34900   0.53044   0.77692   0.00000  Uiso   1.00
C833   C     0.63393   0.52920   0.77880   0.00000  Uiso   1.00
C834   C     0.49989   0.42000   0.75038   0.00000  Uiso   1.00
C835   C     0.52627   0.49727   0.64814   0.00000  Uiso   1.00
C836   C     0.60012   0.47019   0.50447   0.00000  Uiso   1.00
C837   C     0.54174   0.48916   0.59020   0.00000  Uiso   1.00
C838   C     0.41468   0.51613   0.94059   0.00000  Uiso   1.00
C839   C     0.40922   0.53100   0.99169   0.00000  Uiso   1.00
C840   C     0.44462   0.52397   0.51406   0.00000  Uiso   1.00
C841   C     0.62946   0.48646   0.57848   0.00000  Uiso   1.00
C842   C     0.49180   0.48456   0.93474   0.00000  Uiso   1.00
C843   C     0.43388   0.62582   0.70550   0.00000  Uiso   1.00
C844   C     0.63709   0.43741   0.69291   0.00000  Uiso   1.00
C845   C     0.36380   0.56430   0.80396   0.00000  Uiso   1.00
C846   C     0.46071   0.46581   0.59216   0.00000  Uiso   1.00
C847   C     0.37488   0.52177   0.92133   0.00000  Uiso   1.00
C848   C     0.59007   0.62809   0.73848   0.00000  Uiso   1.00
C849   C     0.51859   0.48753   0.51148   0.00000  Uiso   1.00
C850   C     0.56406   0.47259   0.98096   0.00000  Uiso   1.00
C851   C     0.57053   0.45725   0.92966   0.00000  Uiso   1.00
C852   C     0.53299   0.45958   0.90883   0.00000  Uiso   1.00
C853   C     0.50614   0.48529   0.56604   0.00000  Uiso   1.00
C854   C     0.59010   0.48276   0.55794   0.00000  Uiso   1.00
F855   F     0.57365   0.37478   0.76974   0.00000  Uiso   1.00
F856   F     0.60173   0.55686   0.81004   0.00000  Uiso   1.00
F857   F     0.64441   0.45571   0.97591   0.00000  Uiso   1.00
F858   F     0.44025   0.54333   0.56137   0.00000  Uiso   1.00
F859   F     0.37024   0.55418   0.51920   0.00000  Uiso   1.00
F860   F     0.53644   0.43583   0.86485   0.00000  Uiso   1.00
H861   H     0.43820   0.37185   0.72273   0.00000  Uiso   1.00
H862   H     0.38840   0.44291   0.70785   0.00000  Uiso   1.00
H863   H     0.60321   0.44105   0.90711   0.00000  Uiso   1.00
N864   N     0.38093   0.50001   0.75002   0.00000  Uiso   1.00
N865   N     0.61906   0.49998   0.75001   0.00000  Uiso   1.00
N866   N     0.66129   0.48969   0.59450   0.00000  Uiso   1.00
N867   N     0.40694   0.60996   0.68811   0.00000  Uiso   1.00
N868   N     0.62662   0.41163   0.66780   0.00000  Uiso   1.00
N869   N     0.37509   0.59184   0.82586   0.00000  Uiso   1.00
N870   N     0.42458   0.44967   0.61104   0.00000  Uiso   1.00
N871   N     0.34213   0.52586   0.90721   0.00000  Uiso   1.00
N872   N     0.62790   0.61463   0.73171   0.00000  Uiso   1.00
O873   O     0.46179   0.56108   0.75001   0.00000  Uiso   1.00
O874   O     0.53823   0.56107   0.75001   0.00000  Uiso   1.00
O875   O     0.44280   0.50000   0.82681   0.00000  Uiso   1.00
O876   O     0.51924   0.49999   0.82681   0.00000  Uiso   1.00
O877   O     0.46177   0.43893   0.75000   0.00000  Uiso   1.00
O878   O     0.53821   0.43892   0.75000   0.00000  Uiso   1.00
O879   O     0.48076   0.50001   0.67319   0.00000  Uiso   1.00
O880   O     0.55720   0.50000   0.67319   0.00000  Uiso   1.00
Zn881  Zn    0.44896   0.50001   0.75000   0.00000  Uiso   1.00
Zn882  Zn    0.55104   0.49999   0.75000   0.00000  Uiso   1.00
C883   C     0.83490   0.57983   0.74536   0.00000  Uiso   1.00
C884   C     0.79161   0.49678   0.90981   0.00000  Uiso   1.00
C885   C     0.87683   0.64606   0.74566   0.00000  Uiso   1.00
C886   C     0.80715   0.49791   0.85165   0.00000  Uiso   1.00
C887   C     0.87270   0.35473   0.75479   0.00000  Uiso   1.00
C888   C     0.83427   0.37586   0.74750   0.00000  Uiso   1.00
C889   C     0.79954   0.35500   0.73180   0.00000  Uiso   1.00
C890   C     0.80118   0.64574   0.72674   0.00000  Uiso   1.00
C891   C     0.83802   0.62407   0.73813   0.00000  Uiso   1.00
C892   C     0.98418   0.46939   0.72352   0.00000  Uiso   1.00
C893   C     0.69803   0.46862   0.72561   0.00000  Uiso   1.00
C894   C     0.81790   0.49838   0.98732   0.00000  Uiso   1.00
C895   C     0.68233   0.53044   0.77692   0.00000  Uiso   1.00
C896   C     0.96727   0.52920   0.77880   0.00000  Uiso   1.00
C897   C     0.83322   0.42000   0.75038   0.00000  Uiso   1.00
C898   C     0.85960   0.49727   0.64814   0.00000  Uiso   1.00
C899   C     0.93346   0.47019   0.50447   0.00000  Uiso   1.00
C900   C     0.87508   0.48916   0.59020   0.00000  Uiso   1.00
C901   C     0.74801   0.51613   0.94059   0.00000  Uiso   1.00
C902   C     0.74256   0.53100   0.99169   0.00000  Uiso   1.00
C903   C     0.77796   0.52397   0.51406   0.00000  Uiso   1.00
C904   C     0.96279   0.48646   0.57848   0.00000  Uiso   1.00
C905   C     0.82514   0.48456   0.93474   0.00000  Uiso   1.00
C906   C     0.76722   0.62582   0.70550   0.00000  Uiso   1.00
C907   C     0.97042   0.43741   0.69291   0.00000  Uiso   1.00
C908   C     0.69713   0.56430   0.80396   0.00000  Uiso   1.00
C909   C     0.79404   0.46581   0.59216   0.00000  Uiso   1.00
C910   C     0.70822   0.52177   0.92133   0.00000  Uiso   1.00
C911   C     0.92340   0.62809   0.73848   0.00000  Uiso   1.00
C912   C     0.85193   0.48753   0.51148   0.00000  Uiso   1.00
C913   C     0.89739   0.47259   0.98096   0.00000  Uiso   1.00
C914   C     0.90387   0.45725   0.92966   0.00000  Uiso   1.00
C915   C     0.86632   0.45958   0.90883   0.00000  Uiso   1.00
C916   C     0.83948   0.48529   0.56604   0.00000  Uiso   1.00
C917   C     0.92343   0.48276   0.55794   0.00000  Uiso   1.00
F918   F     0.90699   0.37478   0.76974   0.00000  Uiso   1.00
F919   F     0.93506   0.55686   0.81004   0.00000  Uiso   1.00
F920   F     0.97774   0.45571   0.97591   0.00000  Uiso   1.00
F921   F     0.77358   0.54333   0.56137   0.00000  Uiso   1.00
F922   F     0.70358   0.55418   0.51920   0.00000  Uiso   1.00
F923   F     0.86978   0.43583   0.86485   0.00000  Uiso   1.00
H924   H     0.77153   0.37185   0.72273   0.00000  Uiso   1.00
H925   H     0.72173   0.44291   0.70785   0.00000  Uiso   1.00
H926   H     0.93654   0.44105   0.90711   0.00000  Uiso   1.00
N927   N     0.71426   0.50001   0.75002   0.00000  Uiso   1.00
N928   N     0.95239   0.49998   0.75001   0.00000  Uiso   1.00
N929   N     0.99462   0.48969   0.59450   0.00000  Uiso   1.00
N930   N     0.74027   0.60996   0.68811   0.00000  Uiso   1.00
N931   N     0.95995   0.41163   0.66780   0.00000  Uiso   1.00
N932   N     0.70843   0.59184   0.82586   0.00000  Uiso   1.00
N933   N     0.75791   0.44967   0.61104   0.00000  Uiso   1.00
N934   N     0.67547   0.52586   0.90721   0.00000  Uiso   1.00
N935   N     0.96123   0.61463   0.73171   0.00000  Uiso   1.00
O936   O     0.79512   0.56108   0.75001   0.00000  Uiso   1.00
O937   O     0.87157   0.56107   0.75001   0.00000  Uiso   1.00
O938   O     0.77613   0.50000   0.82681   0.00000  Uiso   1.00
O939   O     0.85258   0.49999   0.82681   0.00000  Uiso   1.00
O940   O     0.79510   0.43893   0.75000   0.00000  Uiso   1.00
O941   O     0.87154   0.43892   0.75000   0.00000  Uiso   1.00
O942   O     0.81409   0.50001   0.67319   0.00000  Uiso   1.00
O943   O     0.89053   0.50000   0.67319   0.00000  Uiso   1.00
Zn944  Zn    0.78229   0.50001   0.75000   0.00000  Uiso   1.00
Zn945  Zn    0.88438   0.49999   0.75000   0.00000  Uiso   1.00
C946   C     0.16823   0.91316   0.74536   0.00000  Uiso   1.00
C947   C     0.12495   0.83011   0.90981   0.00000  Uiso   1.00
C948   C     0.21016   0.97939   0.74566   0.00000  Uiso   1.00
C949   C     0.14049   0.83125   0.85165   0.00000  Uiso   1.00
C950   C     0.20604   0.68806   0.75479   0.00000  Uiso   1.00
C951   C     0.16760   0.70920   0.74750   0.00000  Uiso   1.00
C952   C     0.13288   0.68833   0.73180   0.00000  Uiso   1.00
C953   C     0.13452   0.97907   0.72674   0.00000  Uiso   1.00
C954   C     0.17135   0.95740   0.73813   0.00000  Uiso   1.00
C955   C     0.31752   0.80272   0.72352   0.00000  Uiso   1.00
C956   C     0.03136   0.80195   0.72561   0.00000  Uiso   1.00
C957   C     0.15123   0.83171   0.98732   0.00000  Uiso   1.00
C958   C     0.01566   0.86377   0.77692   0.00000  Uiso   1.00
C959   C     0.30060   0.86253   0.77880   0.00000  Uiso   1.00
C960   C     0.16656   0.75333   0.75038   0.00000  Uiso   1.00
C961   C     0.19294   0.83060   0.64814   0.00000  Uiso   1.00
C962   C     0.26679   0.80352   0.50447   0.00000  Uiso   1.00
C963   C     0.20841   0.82250   0.59020   0.00000  Uiso   1.00
C964   C     0.08134   0.84946   0.94059   0.00000  Uiso   1.00
C965   C     0.07589   0.86433   0.99169   0.00000  Uiso   1.00
C966   C     0.11129   0.85730   0.51406   0.00000  Uiso   1.00
C967   C     0.29613   0.81979   0.57848   0.00000  Uiso   1.00
C968   C     0.15847   0.81789   0.93474   0.00000  Uiso   1.00
C969   C     0.10055   0.95915   0.70550   0.00000  Uiso   1.00
C970   C     0.30376   0.77075   0.69291   0.00000  Uiso   1.00
C971   C     0.03046   0.89763   0.80396   0.00000  Uiso   1.00
C972   C     0.12737   0.79915   0.59216   0.00000  Uiso   1.00
C973   C     0.04155   0.85510   0.92133   0.00000  Uiso   1.00
C974   C     0.25674   0.96143   0.73848   0.00000  Uiso   1.00
C975   C     0.18526   0.82086   0.51148   0.00000  Uiso   1.00
C976   C     0.23072   0.80592   0.98096   0.00000  Uiso   1.00
C977   C     0.23720   0.79059   0.92966   0.00000  Uiso   1.00
C978   C     0.19966   0.79291   0.90883   0.00000  Uiso   1.00
C979   C     0.17281   0.81862   0.56604   0.00000  Uiso   1.00
C980   C     0.25677   0.81609   0.55794   0.00000  Uiso   1.00
F981   F     0.24032   0.70811   0.76974   0.00000  Uiso   1.00
F982   F     0.26839   0.89019   0.81004   0.00000  Uiso   1.00
F983   F     0.31107   0.78904   0.97591   0.00000  Uiso   1.00
F984   F     0.10691   0.87666   0.56137   0.00000  Uiso   1.00
F985   F     0.03691   0.88752   0.51920   0.00000  Uiso   1.00
F986   F     0.20311   0.76916   0.86485   0.00000  Uiso   1.00
H987   H     0.10486   0.70518   0.72273   0.00000  Uiso   1.00
H988   H     0.05506   0.77624   0.70785   0.00000  Uiso   1.00
H989   H     0.26987   0.77438   0.90711   0.00000  Uiso   1.00
N990   N     0.04760   0.83334   0.75002   0.00000  Uiso   1.00
N991   N     0.28573   0.83331   0.75001   0.00000  Uiso   1.00
N992   N     0.32796   0.82302   0.59450   0.00000  Uiso   1.00
N993   N     0.07360   0.94329   0.68811   0.00000  Uiso   1.00
N994   N     0.29329   0.74497   0.66780   0.00000  Uiso   1.00
N995   N     0.04176   0.92517   0.82586   0.00000  Uiso   1.00
N996   N     0.09124   0.78300   0.61104   0.00000  Uiso   1.00
N997   N     0.00880   0.85919   0.90721   0.00000  Uiso   1.00
N998   N     0.29457   0.94797   0.73171   0.00000  Uiso   1.00
O999   O     0.12846   0.89442   0.75001   0.00000  Uiso   1.00
O1000  O     0.20490   0.89441   0.75001   0.00000  Uiso   1.00
O1001  O     0.10947   0.83333   0.82681   0.00000  Uiso   1.00
O1002  O     0.18591   0.83332   0.82681   0.00000  Uiso   1.00
O1003  O     0.12843   0.77226   0.75000   0.00000  Uiso   1.00
O1004  O     0.20488   0.77225   0.75000   0.00000  Uiso   1.00
O1005  O     0.14742   0.83335   0.67319   0.00000  Uiso   1.00
O1006  O     0.22387   0.83334   0.67319   0.00000  Uiso   1.00
Zn1007 Zn    0.11562   0.83334   0.75000   0.00000  Uiso   1.00
Zn1008 Zn    0.21771   0.83333   0.75000   0.00000  Uiso   1.00
C1009  C     0.50157   0.91316   0.74536   0.00000  Uiso   1.00
C1010  C     0.45828   0.83011   0.90981   0.00000  Uiso   1.00
C1011  C     0.54350   0.97939   0.74566   0.00000  Uiso   1.00
C1012  C     0.47382   0.83125   0.85165   0.00000  Uiso   1.00
C1013  C     0.53937   0.68806   0.75479   0.00000  Uiso   1.00
C1014  C     0.50094   0.70920   0.74750   0.00000  Uiso   1.00
C1015  C     0.46621   0.68833   0.73180   0.00000  Uiso   1.00
C1016  C     0.46785   0.97907   0.72674   0.00000  Uiso   1.00
C1017  C     0.50469   0.95740   0.73813   0.00000  Uiso   1.00
C1018  C     0.65085   0.80272   0.72352   0.00000  Uiso   1.00
C1019  C     0.36470   0.80195   0.72561   0.00000  Uiso   1.00
C1020  C     0.48457   0.83171   0.98732   0.00000  Uiso   1.00
C1021  C     0.34900   0.86377   0.77692   0.00000  Uiso   1.00
C1022  C     0.63393   0.86253   0.77880   0.00000  Uiso   1.00
C1023  C     0.49989   0.75333   0.75038   0.00000  Uiso   1.00
C1024  C     0.52627   0.83060   0.64814   0.00000  Uiso   1.00
C1025  C     0.60012   0.80352   0.50447   0.00000  Uiso   1.00
C1026  C     0.54174   0.82250   0.59020   0.00000  Uiso   1.00
C1027  C     0.41468   0.84946   0.94059   0.00000  Uiso   1.00
C1028  C     0.40922   0.86433   0.99169   0.00000  Uiso   1.00
C1029  C     0.44462   0.85730   0.51406   0.00000  Uiso   1.00
C1030  C     0.62946   0.81979   0.57848   0.00000  Uiso   1.00
C1031  C     0.49180   0.81789   0.93474   0.00000  Uiso   1.00
C1032  C     0.43388   0.95915   0.70550   0.00000  Uiso   1.00
C1033  C     0.63709   0.77075   0.69291   0.00000  Uiso   1.00
C1034  C     0.36380   0.89763   0.80396   0.00000  Uiso   1.00
C1035  C     0.46071   0.79915   0.59216   0.00000  Uiso   1.00
C1036  C     0.37488   0.85510   0.92133   0.00000  Uiso   1.00
C1037  C     0.59007   0.96143   0.73848   0.00000  Uiso   1.00
C1038  C     0.51859   0.82086   0.51148   0.00000  Uiso   1.00
C1039  C     0.56406   0.80592   0.98096   0.00000  Uiso   1.00
C1040  C     0.57053   0.79059   0.92966   0.00000  Uiso   1.00
C1041  C     0.53299   0.79291   0.90883   0.00000  Uiso   1.00
C1042  C     0.50614   0.81862   0.56604   0.00000  Uiso   1.00
C1043  C     0.59010   0.81609   0.55794   0.00000  Uiso   1.00
F1044  F     0.57365   0.70811   0.76974   0.00000  Uiso   1.00
F1045  F     0.60173   0.89019   0.81004   0.00000  Uiso   1.00
F1046  F     0.64441   0.78904   0.97591   0.00000  Uiso   1.00
F1047  F     0.44025   0.87666   0.56137   0.00000  Uiso   1.00
F1048  F     0.37024   0.88752   0.51920   0.00000  Uiso   1.00
F1049  F     0.53644   0.76916   0.86485   0.00000  Uiso   1.00
H1050  H     0.43820   0.70518   0.72273   0.00000  Uiso   1.00
H1051  H     0.38840   0.77624   0.70785   0.00000  Uiso   1.00
H1052  H     0.60321   0.77438   0.90711   0.00000  Uiso   1.00
N1053  N     0.38093   0.83334   0.75002   0.00000  Uiso   1.00
N1054  N     0.61906   0.83331   0.75001   0.00000  Uiso   1.00
N1055  N     0.66129   0.82302   0.59450   0.00000  Uiso   1.00
N1056  N     0.40694   0.94329   0.68811   0.00000  Uiso   1.00
N1057  N     0.62662   0.74497   0.66780   0.00000  Uiso   1.00
N1058  N     0.37509   0.92517   0.82586   0.00000  Uiso   1.00
N1059  N     0.42458   0.78300   0.61104   0.00000  Uiso   1.00
N1060  N     0.34213   0.85919   0.90721   0.00000  Uiso   1.00
N1061  N     0.62790   0.94797   0.73171   0.00000  Uiso   1.00
O1062  O     0.46179   0.89442   0.75001   0.00000  Uiso   1.00
O1063  O     0.53823   0.89441   0.75001   0.00000  Uiso   1.00
O1064  O     0.44280   0.83333   0.82681   0.00000  Uiso   1.00
O1065  O     0.51924   0.83332   0.82681   0.00000  Uiso   1.00
O1066  O     0.46177   0.77226   0.75000   0.00000  Uiso   1.00
O1067  O     0.53821   0.77225   0.75000   0.00000  Uiso   1.00
O1068  O     0.48076   0.83335   0.67319   0.00000  Uiso   1.00
O1069  O     0.55720   0.83334   0.67319   0.00000  Uiso   1.00
Zn1070 Zn    0.44896   0.83334   0.75000   0.00000  Uiso   1.00
Zn1071 Zn    0.55104   0.83333   0.75000   0.00000  Uiso   1.00
C1072  C     0.83490   0.91316   0.74536   0.00000  Uiso   1.00
C1073  C     0.79161   0.83011   0.90981   0.00000  Uiso   1.00
C1074  C     0.87683   0.97939   0.74566   0.00000  Uiso   1.00
C1075  C     0.80715   0.83125   0.85165   0.00000  Uiso   1.00
C1076  C     0.87270   0.68806   0.75479   0.00000  Uiso   1.00
C1077  C     0.83427   0.70920   0.74750   0.00000  Uiso   1.00
C1078  C     0.79954   0.68833   0.73180   0.00000  Uiso   1.00
C1079  C     0.80118   0.97907   0.72674   0.00000  Uiso   1.00
C1080  C     0.83802   0.95740   0.73813   0.00000  Uiso   1.00
C1081  C     0.98418   0.80272   0.72352   0.00000  Uiso   1.00
C1082  C     0.69803   0.80195   0.72561   0.00000  Uiso   1.00
C1083  C     0.81790   0.83171   0.98732   0.00000  Uiso   1.00
C1084  C     0.68233   0.86377   0.77692   0.00000  Uiso   1.00
C1085  C     0.96727   0.86253   0.77880   0.00000  Uiso   1.00
C1086  C     0.83322   0.75333   0.75038   0.00000  Uiso   1.00
C1087  C     0.85960   0.83060   0.64814   0.00000  Uiso   1.00
C1088  C     0.93346   0.80352   0.50447   0.00000  Uiso   1.00
C1089  C     0.87508   0.82250   0.59020   0.00000  Uiso   1.00
C1090  C     0.74801   0.84946   0.94059   0.00000  Uiso   1.00
C1091  C     0.74256   0.86433   0.99169   0.00000  Uiso   1.00
C1092  C     0.77796   0.85730   0.51406   0.00000  Uiso   1.00
C1093  C     0.96279   0.81979   0.57848   0.00000  Uiso   1.00
C1094  C     0.82514   0.81789   0.93474   0.00000  Uiso   1.00
C1095  C     0.76722   0.95915   0.70550   0.00000  Uiso   1.00
C1096  C     0.97042   0.77075   0.69291   0.00000  Uiso   1.00
C1097  C     0.69713   0.89763   0.80396   0.00000  Uiso   1.00
C1098  C     0.79404   0.79915   0.59216   0.00000  Uiso   1.00
C1099  C     0.70822   0.85510   0.92133   0.00000  Uiso   1.00
C1100  C     0.92340   0.96143   0.73848   0.00000  Uiso   1.00
C1101  C     0.85193   0.82086   0.51148   0.00000  Uiso   1.00
C1102  C     0.89739   0.80592   0.98096   0.00000  Uiso   1.00
C1103  C     0.90387   0.79059   0.92966   0.00000  Uiso   1.00
C1104  C     0.86632   0.79291   0.90883   0.00000  Uiso   1.00
C1105  C     0.83948   0.81862   0.56604   0.00000  Uiso   1.00
C1106  C     0.92343   0.81609   0.55794   0.00000  Uiso   1.00
F1107  F     0.90699   0.70811   0.76974   0.00000  Uiso   1.00
F1108  F     0.93506   0.89019   0.81004   0.00000  Uiso   1.00
F1109  F     0.97774   0.78904   0.97591   0.00000  Uiso   1.00
F1110  F     0.77358   0.87666   0.56137   0.00000  Uiso   1.00
F1111  F     0.70358   0.88752   0.51920   0.00000  Uiso   1.00
F1112  F     0.86978   0.76916   0.86485   0.00000  Uiso   1.00
H1113  H     0.77153   0.70518   0.72273   0.00000  Uiso   1.00
H1114  H     0.72173   0.77624   0.70785   0.00000  Uiso   1.00
H1115  H     0.93654   0.77438   0.90711   0.00000  Uiso   1.00
N1116  N     0.71426   0.83334   0.75002   0.00000  Uiso   1.00
N1117  N     0.95239   0.83331   0.75001   0.00000  Uiso   1.00
N1118  N     0.99462   0.82302   0.59450   0.00000  Uiso   1.00
N1119  N     0.74027   0.94329   0.68811   0.00000  Uiso   1.00
N1120  N     0.95995   0.74497   0.66780   0.00000  Uiso   1.00
N1121  N     0.70843   0.92517   0.82586   0.00000  Uiso   1.00
N1122  N     0.75791   0.78300   0.61104   0.00000  Uiso   1.00
N1123  N     0.67547   0.85919   0.90721   0.00000  Uiso   1.00
N1124  N     0.96123   0.94797   0.73171   0.00000  Uiso   1.00
O1125  O     0.79512   0.89442   0.75001   0.00000  Uiso   1.00
O1126  O     0.87157   0.89441   0.75001   0.00000  Uiso   1.00
O1127  O     0.77613   0.83333   0.82681   0.00000  Uiso   1.00
O1128  O     0.85258   0.83332   0.82681   0.00000  Uiso   1.00
O1129  O     0.79510   0.77226   0.75000   0.00000  Uiso   1.00
O1130  O     0.87154   0.77225   0.75000   0.00000  Uiso   1.00
O1131  O     0.81409   0.83335   0.67319   0.00000  Uiso   1.00
O1132  O     0.89053   0.83334   0.67319   0.00000  Uiso   1.00
Zn1133 Zn    0.78229   0.83334   0.75000   0.00000  Uiso   1.00
Zn1134 Zn    0.88438   0.83333   0.75000   0.00000  Uiso   1.00
loop_
_geom_bond_atom_site_label_1
_geom_bond_atom_site_label_2
_geom_bond_distance
_geom_bond_site_symmetry_2
_ccdc_geom_bond_type
C1     O54     1.295   .     A
C1     O55     1.284   .     A
C1     C9      1.446   .     S
C2     C4      1.469   .     S
C2     C23     1.422   .     A
C2     C19     1.418   .     A
C3     C9      1.416   .     A
C3     C29     1.447   .     S
C3     C194    1.369   .     S
C4     O57     1.294   .     A
C4     O56     1.297   .     A
C5     C6      1.395   .     A
C5     F36     1.362   .     S
C5     C381    1.369   1_545 S
C6     C7      1.396   .     A
C6     C15     1.425   .     S
C7     H42     1.085   .     S
C7     C386    1.377   1_545 S
C8     C24     1.447   .     S
C8     C9      1.412   .     A
C8     C196    1.377   .     S
C10    C25     1.437   .     S
C10    N46     1.374   .     A
C10    C74     1.415   .     S
C11    H43     1.080   .     S
C11    N45     1.359   .     A
C11    C136    1.415   1_455 S
C12    C23     1.407   .     A
C12    C588    1.416   .     S
C12    C597    1.409   .     S
C13    N45     1.375   .     A
C13    C26     1.438   .     S
C13    C140    1.417   1_455 S
C14    N46     1.361   .     A
C14    F37     1.357   .     S
C14    C76     1.417   .     S
C15    O58     1.285   .     A
C15    O59     1.285   .     A
C16    C18     1.478   .     S
C16    O61     1.298   .     A
C16    O60     1.296   .     A
C17    C35     1.407   .     A
C17    C598    1.405   1_554 S
C17    F605    1.359   1_554 S
C18    C35     1.421   .     A
C18    C34     1.405   .     A
C19    C28     1.442   .     S
C19    C20     1.390   .     A
C20    C588    1.384   .     S
C20    F607    1.359   .     S
C21    F39     1.359   .     S
C21    C587    1.384   1_554 S
C21    C579    1.416   1_554 S
C22    N47     1.157   .     T
C22    C35     1.442   .     S
C23    C33     1.426   .     A
C24    N48     1.157   .     T
C25    N49     1.158   .     T
C26    N50     1.158   .     T
C27    N51     1.155   .     T
C27    C34     1.452   .     S
C28    N52     1.156   .     T
C29    N53     1.156   .     T
C30    C34     1.384   .     A
C30    C579    1.409   1_554 S
C30    C598    1.404   1_554 S
C31    C32     1.394   .     A
C31    C584    1.405   .     S
C31    C597    1.404   .     S
C32    C33     1.396   .     A
C32    H44     1.083   .     S
C33    F41     1.358   .     S
F38    C584    1.359   .     S
F40    C587    1.359   1_554 S
N45    Zn62    2.012   .     S
N46    Zn63    2.012   .     S
O54    Zn62    2.009   .     S
O55    Zn63    2.008   .     S
O56    Zn62    1.997   .     S
O57    Zn63    1.957   .     S
O58    Zn62    2.008   .     S
O59    Zn63    2.009   .     S
O60    Zn62    1.957   .     S
O61    Zn63    1.997   .     S
C64    O117    1.295   .     A
C64    O118    1.284   .     A
C64    C72     1.446   .     S
C65    C67     1.469   .     S
C65    C86     1.422   .     A
C65    C82     1.418   .     A
C66    C72     1.416   .     A
C66    C92     1.447   .     S
C66    C257    1.369   .     S
C67    O120    1.294   .     A
C67    O119    1.297   .     A
C68    C69     1.395   .     A
C68    F99     1.362   .     S
C68    C444    1.369   1_545 S
C69    C70     1.396   .     A
C69    C78     1.425   .     S
C70    H105    1.085   .     S
C70    C449    1.377   1_545 S
C71    C87     1.447   .     S
C71    C72     1.412   .     A
C71    C259    1.377   .     S
C73    C88     1.437   .     S
C73    N109    1.374   .     A
C73    C137    1.415   .     S
C74    H106    1.080   .     S
C74    N108    1.359   .     A
C75    C86     1.407   .     A
C75    C651    1.416   .     S
C75    C660    1.409   .     S
C76    N108    1.375   .     A
C76    C89     1.438   .     S
C77    N109    1.361   .     A
C77    F100    1.357   .     S
C77    C139    1.417   .     S
C78    O121    1.285   .     A
C78    O122    1.285   .     A
C79    C81     1.478   .     S
C79    O124    1.298   .     A
C79    O123    1.296   .     A
C80    C98     1.407   .     A
C80    C661    1.405   1_554 S
C80    F668    1.359   1_554 S
C81    C98     1.421   .     A
C81    C97     1.405   .     A
C82    C91     1.442   .     S
C82    C83     1.390   .     A
C83    C651    1.384   .     S
C83    F670    1.359   .     S
C84    F102    1.359   .     S
C84    C650    1.384   1_554 S
C84    C642    1.416   1_554 S
C85    N110    1.157   .     T
C85    C98     1.442   .     S
C86    C96     1.426   .     A
C87    N111    1.157   .     T
C88    N112    1.158   .     T
C89    N113    1.158   .     T
C90    N114    1.155   .     T
C90    C97     1.452   .     S
C91    N115    1.156   .     T
C92    N116    1.156   .     T
C93    C97     1.384   .     A
C93    C642    1.409   1_554 S
C93    C661    1.404   1_554 S
C94    C95     1.394   .     A
C94    C647    1.405   .     S
C94    C660    1.404   .     S
C95    C96     1.396   .     A
C95    H107    1.083   .     S
C96    F104    1.358   .     S
F101   C647    1.359   .     S
F103   C650    1.359   1_554 S
N108   Zn125   2.012   .     S
N109   Zn126   2.012   .     S
O117   Zn125   2.009   .     S
O118   Zn126   2.008   .     S
O119   Zn125   1.997   .     S
O120   Zn126   1.957   .     S
O121   Zn125   2.008   .     S
O122   Zn126   2.009   .     S
O123   Zn125   1.957   .     S
O124   Zn126   1.997   .     S
C127   O180    1.295   .     A
C127   O181    1.284   .     A
C127   C135    1.446   .     S
C128   C130    1.469   .     S
C128   C149    1.422   .     A
C128   C145    1.418   .     A
C129   C135    1.416   .     A
C129   C155    1.447   .     S
C129   C320    1.369   .     S
C130   O183    1.294   .     A
C130   O182    1.297   .     A
C131   C132    1.395   .     A
C131   F162    1.362   .     S
C131   C507    1.369   1_545 S
C132   C133    1.396   .     A
C132   C141    1.425   .     S
C133   H168    1.085   .     S
C133   C512    1.377   1_545 S
C134   C150    1.447   .     S
C134   C135    1.412   .     A
C134   C322    1.377   .     S
C136   C151    1.437   .     S
C136   N172    1.374   .     A
C136   C11     1.415   1_655 S
C137   H169    1.080   .     S
C137   N171    1.359   .     A
C138   C149    1.407   .     A
C138   C714    1.416   .     S
C138   C723    1.409   .     S
C139   N171    1.375   .     A
C139   C152    1.438   .     S
C140   N172    1.361   .     A
C140   F163    1.357   .     S
C140   C13     1.417   1_655 S
C141   O184    1.285   .     A
C141   O185    1.285   .     A
C142   C144    1.478   .     S
C142   O187    1.298   .     A
C142   O186    1.296   .     A
C143   C161    1.407   .     A
C143   C724    1.405   1_554 S
C143   F731    1.359   1_554 S
C144   C161    1.421   .     A
C144   C160    1.405   .     A
C145   C154    1.442   .     S
C145   C146    1.390   .     A
C146   C714    1.384   .     S
C146   F733    1.359   .     S
C147   F165    1.359   .     S
C147   C713    1.384   1_554 S
C147   C705    1.416   1_554 S
C148   N173    1.157   .     T
C148   C161    1.442   .     S
C149   C159    1.426   .     A
C150   N174    1.157   .     T
C151   N175    1.158   .     T
C152   N176    1.158   .     T
C153   N177    1.155   .     T
C153   C160    1.452   .     S
C154   N178    1.156   .     T
C155   N179    1.156   .     T
C156   C160    1.384   .     A
C156   C705    1.409   1_554 S
C156   C724    1.404   1_554 S
C157   C158    1.394   .     A
C157   C710    1.405   .     S
C157   C723    1.404   .     S
C158   C159    1.396   .     A
C158   H170    1.083   .     S
C159   F167    1.358   .     S
F164   C710    1.359   .     S
F166   C713    1.359   1_554 S
N171   Zn188   2.012   .     S
N172   Zn189   2.012   .     S
O180   Zn188   2.009   .     S
O181   Zn189   2.008   .     S
O182   Zn188   1.997   .     S
O183   Zn189   1.957   .     S
O184   Zn188   2.008   .     S
O185   Zn189   2.009   .     S
O186   Zn188   1.957   .     S
O187   Zn189   1.997   .     S
C190   O243    1.295   .     A
C190   O244    1.284   .     A
C190   C198    1.446   .     S
C191   C193    1.469   .     S
C191   C212    1.422   .     A
C191   C208    1.418   .     A
C192   C198    1.416   .     A
C192   C218    1.447   .     S
C192   C383    1.369   .     S
C193   O246    1.294   .     A
C193   O245    1.297   .     A
C194   C195    1.395   .     A
C194   F225    1.362   .     S
C195   C196    1.396   .     A
C195   C204    1.425   .     S
C196   H231    1.085   .     S
C197   C213    1.447   .     S
C197   C198    1.412   .     A
C197   C385    1.377   .     S
C199   C214    1.437   .     S
C199   N235    1.374   .     A
C199   C263    1.415   .     S
C200   H232    1.080   .     S
C200   N234    1.359   .     A
C200   C325    1.415   1_455 S
C201   C212    1.407   .     A
C201   C777    1.416   .     S
C201   C786    1.409   .     S
C202   N234    1.375   .     A
C202   C215    1.438   .     S
C202   C329    1.417   1_455 S
C203   N235    1.361   .     A
C203   F226    1.357   .     S
C203   C265    1.417   .     S
C204   O247    1.285   .     A
C204   O248    1.285   .     A
C205   C207    1.478   .     S
C205   O250    1.298   .     A
C205   O249    1.296   .     A
C206   C224    1.407   .     A
C206   C787    1.405   1_554 S
C206   F794    1.359   1_554 S
C207   C224    1.421   .     A
C207   C223    1.405   .     A
C208   C217    1.442   .     S
C208   C209    1.390   .     A
C209   C777    1.384   .     S
C209   F796    1.359   .     S
C210   F228    1.359   .     S
C210   C776    1.384   1_554 S
C210   C768    1.416   1_554 S
C211   N236    1.157   .     T
C211   C224    1.442   .     S
C212   C222    1.426   .     A
C213   N237    1.157   .     T
C214   N238    1.158   .     T
C215   N239    1.158   .     T
C216   N240    1.155   .     T
C216   C223    1.452   .     S
C217   N241    1.156   .     T
C218   N242    1.156   .     T
C219   C223    1.384   .     A
C219   C768    1.409   1_554 S
C219   C787    1.404   1_554 S
C220   C221    1.394   .     A
C220   C773    1.405   .     S
C220   C786    1.404   .     S
C221   C222    1.396   .     A
C221   H233    1.083   .     S
C222   F230    1.358   .     S
F227   C773    1.359   .     S
F229   C776    1.359   1_554 S
N234   Zn251   2.012   .     S
N235   Zn252   2.012   .     S
O243   Zn251   2.009   .     S
O244   Zn252   2.008   .     S
O245   Zn251   1.997   .     S
O246   Zn252   1.957   .     S
O247   Zn251   2.008   .     S
O248   Zn252   2.009   .     S
O249   Zn251   1.957   .     S
O250   Zn252   1.997   .     S
C253   O306    1.295   .     A
C253   O307    1.284   .     A
C253   C261    1.446   .     S
C254   C256    1.469   .     S
C254   C275    1.422   .     A
C254   C271    1.418   .     A
C255   C261    1.416   .     A
C255   C281    1.447   .     S
C255   C446    1.369   .     S
C256   O309    1.294   .     A
C256   O308    1.297   .     A
C257   C258    1.395   .     A
C257   F288    1.362   .     S
C258   C259    1.396   .     A
C258   C267    1.425   .     S
C259   H294    1.085   .     S
C260   C276    1.447   .     S
C260   C261    1.412   .     A
C260   C448    1.377   .     S
C262   C277    1.437   .     S
C262   N298    1.374   .     A
C262   C326    1.415   .     S
C263   H295    1.080   .     S
C263   N297    1.359   .     A
C264   C275    1.407   .     A
C264   C840    1.416   .     S
C264   C849    1.409   .     S
C265   N297    1.375   .     A
C265   C278    1.438   .     S
C266   N298    1.361   .     A
C266   F289    1.357   .     S
C266   C328    1.417   .     S
C267   O310    1.285   .     A
C267   O311    1.285   .     A
C268   C270    1.478   .     S
C268   O313    1.298   .     A
C268   O312    1.296   .     A
C269   C287    1.407   .     A
C269   C850    1.405   1_554 S
C269   F857    1.359   1_554 S
C270   C287    1.421   .     A
C270   C286    1.405   .     A
C271   C280    1.442   .     S
C271   C272    1.390   .     A
C272   C840    1.384   .     S
C272   F859    1.359   .     S
C273   F291    1.359   .     S
C273   C839    1.384   1_554 S
C273   C831    1.416   1_554 S
C274   N299    1.157   .     T
C274   C287    1.442   .     S
C275   C285    1.426   .     A
C276   N300    1.157   .     T
C277   N301    1.158   .     T
C278   N302    1.158   .     T
C279   N303    1.155   .     T
C279   C286    1.452   .     S
C280   N304    1.156   .     T
C281   N305    1.156   .     T
C282   C286    1.384   .     A
C282   C831    1.409   1_554 S
C282   C850    1.404   1_554 S
C283   C284    1.394   .     A
C283   C836    1.405   .     S
C283   C849    1.404   .     S
C284   C285    1.396   .     A
C284   H296    1.083   .     S
C285   F293    1.358   .     S
F290   C836    1.359   .     S
F292   C839    1.359   1_554 S
N297   Zn314   2.012   .     S
N298   Zn315   2.012   .     S
O306   Zn314   2.009   .     S
O307   Zn315   2.008   .     S
O308   Zn314   1.997   .     S
O309   Zn315   1.957   .     S
O310   Zn314   2.008   .     S
O311   Zn315   2.009   .     S
O312   Zn314   1.957   .     S
O313   Zn315   1.997   .     S
C316   O369    1.295   .     A
C316   O370    1.284   .     A
C316   C324    1.446   .     S
C317   C319    1.469   .     S
C317   C338    1.422   .     A
C317   C334    1.418   .     A
C318   C324    1.416   .     A
C318   C344    1.447   .     S
C318   C509    1.369   .     S
C319   O372    1.294   .     A
C319   O371    1.297   .     A
C320   C321    1.395   .     A
C320   F351    1.362   .     S
C321   C322    1.396   .     A
C321   C330    1.425   .     S
C322   H357    1.085   .     S
C323   C339    1.447   .     S
C323   C324    1.412   .     A
C323   C511    1.377   .     S
C325   C340    1.437   .     S
C325   N361    1.374   .     A
C325   C200    1.415   1_655 S
C326   H358    1.080   .     S
C326   N360    1.359   .     A
C327   C338    1.407   .     A
C327   C903    1.416   .     S
C327   C912    1.409   .     S
C328   N360    1.375   .     A
C328   C341    1.438   .     S
C329   N361    1.361   .     A
C329   F352    1.357   .     S
C329   C202    1.417   1_655 S
C330   O373    1.285   .     A
C330   O374    1.285   .     A
C331   C333    1.478   .     S
C331   O376    1.298   .     A
C331   O375    1.296   .     A
C332   C350    1.407   .     A
C332   C913    1.405   1_554 S
C332   F920    1.359   1_554 S
C333   C350    1.421   .     A
C333   C349    1.405   .     A
C334   C343    1.442   .     S
C334   C335    1.390   .     A
C335   C903    1.384   .     S
C335   F922    1.359   .     S
C336   F354    1.359   .     S
C336   C902    1.384   1_554 S
C336   C894    1.416   1_554 S
C337   N362    1.157   .     T
C337   C350    1.442   .     S
C338   C348    1.426   .     A
C339   N363    1.157   .     T
C340   N364    1.158   .     T
C341   N365    1.158   .     T
C342   N366    1.155   .     T
C342   C349    1.452   .     S
C343   N367    1.156   .     T
C344   N368    1.156   .     T
C345   C349    1.384   .     A
C345   C894    1.409   1_554 S
C345   C913    1.404   1_554 S
C346   C347    1.394   .     A
C346   C899    1.405   .     S
C346   C912    1.404   .     S
C347   C348    1.396   .     A
C347   H359    1.083   .     S
C348   F356    1.358   .     S
F353   C899    1.359   .     S
F355   C902    1.359   1_554 S
N360   Zn377   2.012   .     S
N361   Zn378   2.012   .     S
O369   Zn377   2.009   .     S
O370   Zn378   2.008   .     S
O371   Zn377   1.997   .     S
O372   Zn378   1.957   .     S
O373   Zn377   2.008   .     S
O374   Zn378   2.009   .     S
O375   Zn377   1.957   .     S
O376   Zn378   1.997   .     S
C379   O432    1.295   .     A
C379   O433    1.284   .     A
C379   C387    1.446   .     S
C380   C382    1.469   .     S
C380   C401    1.422   .     A
C380   C397    1.418   .     A
C381   C387    1.416   .     A
C381   C407    1.447   .     S
C381   C5      1.369   1_565 S
C382   O435    1.294   .     A
C382   O434    1.297   .     A
C383   C384    1.395   .     A
C383   F414    1.362   .     S
C384   C385    1.396   .     A
C384   C393    1.425   .     S
C385   H420    1.085   .     S
C386   C402    1.447   .     S
C386   C387    1.412   .     A
C386   C7      1.377   1_565 S
C388   C403    1.437   .     S
C388   N424    1.374   .     A
C388   C452    1.415   .     S
C389   H421    1.080   .     S
C389   N423    1.359   .     A
C389   C514    1.415   1_455 S
C390   C401    1.407   .     A
C390   C966    1.416   .     S
C390   C975    1.409   .     S
C391   N423    1.375   .     A
C391   C404    1.438   .     S
C391   C518    1.417   1_455 S
C392   N424    1.361   .     A
C392   F415    1.357   .     S
C392   C454    1.417   .     S
C393   O436    1.285   .     A
C393   O437    1.285   .     A
C394   C396    1.478   .     S
C394   O439    1.298   .     A
C394   O438    1.296   .     A
C395   C413    1.407   .     A
C395   C976    1.405   1_554 S
C395   F983    1.359   1_554 S
C396   C413    1.421   .     A
C396   C412    1.405   .     A
C397   C406    1.442   .     S
C397   C398    1.390   .     A
C398   C966    1.384   .     S
C398   F985    1.359   .     S
C399   F417    1.359   .     S
C399   C965    1.384   1_554 S
C399   C957    1.416   1_554 S
C400   N425    1.157   .     T
C400   C413    1.442   .     S
C401   C411    1.426   .     A
C402   N426    1.157   .     T
C403   N427    1.158   .     T
C404   N428    1.158   .     T
C405   N429    1.155   .     T
C405   C412    1.452   .     S
C406   N430    1.156   .     T
C407   N431    1.156   .     T
C408   C412    1.384   .     A
C408   C957    1.409   1_554 S
C408   C976    1.404   1_554 S
C409   C410    1.394   .     A
C409   C962    1.405   .     S
C409   C975    1.404   .     S
C410   C411    1.396   .     A
C410   H422    1.083   .     S
C411   F419    1.358   .     S
F416   C962    1.359   .     S
F418   C965    1.359   1_554 S
N423   Zn440   2.012   .     S
N424   Zn441   2.012   .     S
O432   Zn440   2.009   .     S
O433   Zn441   2.008   .     S
O434   Zn440   1.997   .     S
O435   Zn441   1.957   .     S
O436   Zn440   2.008   .     S
O437   Zn441   2.009   .     S
O438   Zn440   1.957   .     S
O439   Zn441   1.997   .     S
C442   O495    1.295   .     A
C442   O496    1.284   .     A
C442   C450    1.446   .     S
C443   C445    1.469   .     S
C443   C464    1.422   .     A
C443   C460    1.418   .     A
C444   C450    1.416   .     A
C444   C470    1.447   .     S
C444   C68     1.369   1_565 S
C445   O498    1.294   .     A
C445   O497    1.297   .     A
C446   C447    1.395   .     A
C446   F477    1.362   .     S
C447   C448    1.396   .     A
C447   C456    1.425   .     S
C448   H483    1.085   .     S
C449   C465    1.447   .     S
C449   C450    1.412   .     A
C449   C70     1.377   1_565 S
C451   C466    1.437   .     S
C451   N487    1.374   .     A
C451   C515    1.415   .     S
C452   H484    1.080   .     S
C452   N486    1.359   .     A
C453   C464    1.407   .     A
C453   C1029   1.416   .     S
C453   C1038   1.409   .     S
C454   N486    1.375   .     A
C454   C467    1.438   .     S
C455   N487    1.361   .     A
C455   F478    1.357   .     S
C455   C517    1.417   .     S
C456   O499    1.285   .     A
C456   O500    1.285   .     A
C457   C459    1.478   .     S
C457   O502    1.298   .     A
C457   O501    1.296   .     A
C458   C476    1.407   .     A
C458   C1039   1.405   1_554 S
C458   F1046   1.359   1_554 S
C459   C476    1.421   .     A
C459   C475    1.405   .     A
C460   C469    1.442   .     S
C460   C461    1.390   .     A
C461   C1029   1.384   .     S
C461   F1048   1.359   .     S
C462   F480    1.359   .     S
C462   C1028   1.384   1_554 S
C462   C1020   1.416   1_554 S
C463   N488    1.157   .     T
C463   C476    1.442   .     S
C464   C474    1.426   .     A
C465   N489    1.157   .     T
C466   N490    1.158   .     T
C467   N491    1.158   .     T
C468   N492    1.155   .     T
C468   C475    1.452   .     S
C469   N493    1.156   .     T
C470   N494    1.156   .     T
C471   C475    1.384   .     A
C471   C1020   1.409   1_554 S
C471   C1039   1.404   1_554 S
C472   C473    1.394   .     A
C472   C1025   1.405   .     S
C472   C1038   1.404   .     S
C473   C474    1.396   .     A
C473   H485    1.083   .     S
C474   F482    1.358   .     S
F479   C1025   1.359   .     S
F481   C1028   1.359   1_554 S
N486   Zn503   2.012   .     S
N487   Zn504   2.012   .     S
O495   Zn503   2.009   .     S
O496   Zn504   2.008   .     S
O497   Zn503   1.997   .     S
O498   Zn504   1.957   .     S
O499   Zn503   2.008   .     S
O500   Zn504   2.009   .     S
O501   Zn503   1.957   .     S
O502   Zn504   1.997   .     S
C505   O558    1.295   .     A
C505   O559    1.284   .     A
C505   C513    1.446   .     S
C506   C508    1.469   .     S
C506   C527    1.422   .     A
C506   C523    1.418   .     A
C507   C513    1.416   .     A
C507   C533    1.447   .     S
C507   C131    1.369   1_565 S
C508   O561    1.294   .     A
C508   O560    1.297   .     A
C509   C510    1.395   .     A
C509   F540    1.362   .     S
C510   C511    1.396   .     A
C510   C519    1.425   .     S
C511   H546    1.085   .     S
C512   C528    1.447   .     S
C512   C513    1.412   .     A
C512   C133    1.377   1_565 S
C514   C529    1.437   .     S
C514   N550    1.374   .     A
C514   C389    1.415   1_655 S
C515   H547    1.080   .     S
C515   N549    1.359   .     A
C516   C527    1.407   .     A
C516   C1092   1.416   .     S
C516   C1101   1.409   .     S
C517   N549    1.375   .     A
C517   C530    1.438   .     S
C518   N550    1.361   .     A
C518   F541    1.357   .     S
C518   C391    1.417   1_655 S
C519   O562    1.285   .     A
C519   O563    1.285   .     A
C520   C522    1.478   .     S
C520   O565    1.298   .     A
C520   O564    1.296   .     A
C521   C539    1.407   .     A
C521   C1102   1.405   1_554 S
C521   F1109   1.359   1_554 S
C522   C539    1.421   .     A
C522   C538    1.405   .     A
C523   C532    1.442   .     S
C523   C524    1.390   .     A
C524   C1092   1.384   .     S
C524   F1111   1.359   .     S
C525   F543    1.359   .     S
C525   C1091   1.384   1_554 S
C525   C1083   1.416   1_554 S
C526   N551    1.157   .     T
C526   C539    1.442   .     S
C527   C537    1.426   .     A
C528   N552    1.157   .     T
C529   N553    1.158   .     T
C530   N554    1.158   .     T
C531   N555    1.155   .     T
C531   C538    1.452   .     S
C532   N556    1.156   .     T
C533   N557    1.156   .     T
C534   C538    1.384   .     A
C534   C1083   1.409   1_554 S
C534   C1102   1.404   1_554 S
C535   C536    1.394   .     A
C535   C1088   1.405   .     S
C535   C1101   1.404   .     S
C536   C537    1.396   .     A
C536   H548    1.083   .     S
C537   F545    1.358   .     S
F542   C1088   1.359   .     S
F544   C1091   1.359   1_554 S
N549   Zn566   2.012   .     S
N550   Zn567   2.012   .     S
O558   Zn566   2.009   .     S
O559   Zn567   2.008   .     S
O560   Zn566   1.997   .     S
O561   Zn567   1.957   .     S
O562   Zn566   2.008   .     S
O563   Zn567   2.009   .     S
O564   Zn566   1.957   .     S
O565   Zn567   1.997   .     S
C568   O621    1.295   .     A
C568   O622    1.284   .     A
C568   C576    1.446   .     S
C569   C571    1.469   .     S
C569   C590    1.422   .     A
C569   C586    1.418   .     A
C570   C576    1.416   .     A
C570   C596    1.447   .     S
C570   C761    1.369   .     S
C571   O624    1.294   .     A
C571   O623    1.297   .     A
C572   C573    1.395   .     A
C572   F603    1.362   .     S
C572   C948    1.369   1_545 S
C573   C574    1.396   .     A
C573   C582    1.425   .     S
C574   H609    1.085   .     S
C574   C953    1.377   1_545 S
C575   C591    1.447   .     S
C575   C576    1.412   .     A
C575   C763    1.377   .     S
C577   C592    1.437   .     S
C577   N613    1.374   .     A
C577   C641    1.415   .     S
C578   H610    1.080   .     S
C578   N612    1.359   .     A
C578   C703    1.415   1_455 S
C579   C590    1.407   .     A
C579   C21     1.416   1_556 S
C579   C30     1.409   1_556 S
C580   N612    1.375   .     A
C580   C593    1.438   .     S
C580   C707    1.417   1_455 S
C581   N613    1.361   .     A
C581   F604    1.357   .     S
C581   C643    1.417   .     S
C582   O625    1.285   .     A
C582   O626    1.285   .     A
C583   C585    1.478   .     S
C583   O628    1.298   .     A
C583   O627    1.296   .     A
C584   C602    1.407   .     A
C585   C602    1.421   .     A
C585   C601    1.405   .     A
C586   C595    1.442   .     S
C586   C587    1.390   .     A
C587   C21     1.384   1_556 S
C587   F40     1.359   1_556 S
C588   F606    1.359   .     S
C589   N614    1.157   .     T
C589   C602    1.442   .     S
C590   C600    1.426   .     A
C591   N615    1.157   .     T
C592   N616    1.158   .     T
C593   N617    1.158   .     T
C594   N618    1.155   .     T
C594   C601    1.452   .     S
C595   N619    1.156   .     T
C596   N620    1.156   .     T
C597   C601    1.384   .     A
C598   C599    1.394   .     A
C598   C17     1.405   1_556 S
C598   C30     1.404   1_556 S
C599   C600    1.396   .     A
C599   H611    1.083   .     S
C600   F608    1.358   .     S
F605   C17     1.359   1_556 S
N612   Zn629   2.012   .     S
N613   Zn630   2.012   .     S
O621   Zn629   2.009   .     S
O622   Zn630   2.008   .     S
O623   Zn629   1.997   .     S
O624   Zn630   1.957   .     S
O625   Zn629   2.008   .     S
O626   Zn630   2.009   .     S
O627   Zn629   1.957   .     S
O628   Zn630   1.997   .     S
C631   O684    1.295   .     A
C631   O685    1.284   .     A
C631   C639    1.446   .     S
C632   C634    1.469   .     S
C632   C653    1.422   .     A
C632   C649    1.418   .     A
C633   C639    1.416   .     A
C633   C659    1.447   .     S
C633   C824    1.369   .     S
C634   O687    1.294   .     A
C634   O686    1.297   .     A
C635   C636    1.395   .     A
C635   F666    1.362   .     S
C635   C1011   1.369   1_545 S
C636   C637    1.396   .     A
C636   C645    1.425   .     S
C637   H672    1.085   .     S
C637   C1016   1.377   1_545 S
C638   C654    1.447   .     S
C638   C639    1.412   .     A
C638   C826    1.377   .     S
C640   C655    1.437   .     S
C640   N676    1.374   .     A
C640   C704    1.415   .     S
C641   H673    1.080   .     S
C641   N675    1.359   .     A
C642   C653    1.407   .     A
C642   C84     1.416   1_556 S
C642   C93     1.409   1_556 S
C643   N675    1.375   .     A
C643   C656    1.438   .     S
C644   N676    1.361   .     A
C644   F667    1.357   .     S
C644   C706    1.417   .     S
C645   O688    1.285   .     A
C645   O689    1.285   .     A
C646   C648    1.478   .     S
C646   O691    1.298   .     A
C646   O690    1.296   .     A
C647   C665    1.407   .     A
C648   C665    1.421   .     A
C648   C664    1.405   .     A
C649   C658    1.442   .     S
C649   C650    1.390   .     A
C650   C84     1.384   1_556 S
C650   F103    1.359   1_556 S
C651   F669    1.359   .     S
C652   N677    1.157   .     T
C652   C665    1.442   .     S
C653   C663    1.426   .     A
C654   N678    1.157   .     T
C655   N679    1.158   .     T
C656   N680    1.158   .     T
C657   N681    1.155   .     T
C657   C664    1.452   .     S
C658   N682    1.156   .     T
C659   N683    1.156   .     T
C660   C664    1.384   .     A
C661   C662    1.394   .     A
C661   C80     1.405   1_556 S
C661   C93     1.404   1_556 S
C662   C663    1.396   .     A
C662   H674    1.083   .     S
C663   F671    1.358   .     S
F668   C80     1.359   1_556 S
N675   Zn692   2.012   .     S
N676   Zn693   2.012   .     S
O684   Zn692   2.009   .     S
O685   Zn693   2.008   .     S
O686   Zn692   1.997   .     S
O687   Zn693   1.957   .     S
O688   Zn692   2.008   .     S
O689   Zn693   2.009   .     S
O690   Zn692   1.957   .     S
O691   Zn693   1.997   .     S
C694   O747    1.295   .     A
C694   O748    1.284   .     A
C694   C702    1.446   .     S
C695   C697    1.469   .     S
C695   C716    1.422   .     A
C695   C712    1.418   .     A
C696   C702    1.416   .     A
C696   C722    1.447   .     S
C696   C887    1.369   .     S
C697   O750    1.294   .     A
C697   O749    1.297   .     A
C698   C699    1.395   .     A
C698   F729    1.362   .     S
C698   C1074   1.369   1_545 S
C699   C700    1.396   .     A
C699   C708    1.425   .     S
C700   H735    1.085   .     S
C700   C1079   1.377   1_545 S
C701   C717    1.447   .     S
C701   C702    1.412   .     A
C701   C889    1.377   .     S
C703   C718    1.437   .     S
C703   N739    1.374   .     A
C703   C578    1.415   1_655 S
C704   H736    1.080   .     S
C704   N738    1.359   .     A
C705   C716    1.407   .     A
C705   C147    1.416   1_556 S
C705   C156    1.409   1_556 S
C706   N738    1.375   .     A
C706   C719    1.438   .     S
C707   N739    1.361   .     A
C707   F730    1.357   .     S
C707   C580    1.417   1_655 S
C708   O751    1.285   .     A
C708   O752    1.285   .     A
C709   C711    1.478   .     S
C709   O754    1.298   .     A
C709   O753    1.296   .     A
C710   C728    1.407   .     A
C711   C728    1.421   .     A
C711   C727    1.405   .     A
C712   C721    1.442   .     S
C712   C713    1.390   .     A
C713   C147    1.384   1_556 S
C713   F166    1.359   1_556 S
C714   F732    1.359   .     S
C715   N740    1.157   .     T
C715   C728    1.442   .     S
C716   C726    1.426   .     A
C717   N741    1.157   .     T
C718   N742    1.158   .     T
C719   N743    1.158   .     T
C720   N744    1.155   .     T
C720   C727    1.452   .     S
C721   N745    1.156   .     T
C722   N746    1.156   .     T
C723   C727    1.384   .     A
C724   C725    1.394   .     A
C724   C143    1.405   1_556 S
C724   C156    1.404   1_556 S
C725   C726    1.396   .     A
C725   H737    1.083   .     S
C726   F734    1.358   .     S
F731   C143    1.359   1_556 S
N738   Zn755   2.012   .     S
N739   Zn756   2.012   .     S
O747   Zn755   2.009   .     S
O748   Zn756   2.008   .     S
O749   Zn755   1.997   .     S
O750   Zn756   1.957   .     S
O751   Zn755   2.008   .     S
O752   Zn756   2.009   .     S
O753   Zn755   1.957   .     S
O754   Zn756   1.997   .     S
C757   O810    1.295   .     A
C757   O811    1.284   .     A
C757   C765    1.446   .     S
C758   C760    1.469   .     S
C758   C779    1.422   .     A
C758   C775    1.418   .     A
C759   C765    1.416   .     A
C759   C785    1.447   .     S
C759   C950    1.369   .     S
C760   O813    1.294   .     A
C760   O812    1.297   .     A
C761   C762    1.395   .     A
C761   F792    1.362   .     S
C762   C763    1.396   .     A
C762   C771    1.425   .     S
C763   H798    1.085   .     S
C764   C780    1.447   .     S
C764   C765    1.412   .     A
C764   C952    1.377   .     S
C766   C781    1.437   .     S
C766   N802    1.374   .     A
C766   C830    1.415   .     S
C767   H799    1.080   .     S
C767   N801    1.359   .     A
C767   C892    1.415   1_455 S
C768   C779    1.407   .     A
C768   C210    1.416   1_556 S
C768   C219    1.409   1_556 S
C769   N801    1.375   .     A
C769   C782    1.438   .     S
C769   C896    1.417   1_455 S
C770   N802    1.361   .     A
C770   F793    1.357   .     S
C770   C832    1.417   .     S
C771   O814    1.285   .     A
C771   O815    1.285   .     A
C772   C774    1.478   .     S
C772   O817    1.298   .     A
C772   O816    1.296   .     A
C773   C791    1.407   .     A
C774   C791    1.421   .     A
C774   C790    1.405   .     A
C775   C784    1.442   .     S
C775   C776    1.390   .     A
C776   C210    1.384   1_556 S
C776   F229    1.359   1_556 S
C777   F795    1.359   .     S
C778   N803    1.157   .     T
C778   C791    1.442   .     S
C779   C789    1.426   .     A
C780   N804    1.157   .     T
C781   N805    1.158   .     T
C782   N806    1.158   .     T
C783   N807    1.155   .     T
C783   C790    1.452   .     S
C784   N808    1.156   .     T
C785   N809    1.156   .     T
C786   C790    1.384   .     A
C787   C788    1.394   .     A
C787   C206    1.405   1_556 S
C787   C219    1.404   1_556 S
C788   C789    1.396   .     A
C788   H800    1.083   .     S
C789   F797    1.358   .     S
F794   C206    1.359   1_556 S
N801   Zn818   2.012   .     S
N802   Zn819   2.012   .     S
O810   Zn818   2.009   .     S
O811   Zn819   2.008   .     S
O812   Zn818   1.997   .     S
O813   Zn819   1.957   .     S
O814   Zn818   2.008   .     S
O815   Zn819   2.009   .     S
O816   Zn818   1.957   .     S
O817   Zn819   1.997   .     S
C820   O873    1.295   .     A
C820   O874    1.284   .     A
C820   C828    1.446   .     S
C821   C823    1.469   .     S
C821   C842    1.422   .     A
C821   C838    1.418   .     A
C822   C828    1.416   .     A
C822   C848    1.447   .     S
C822   C1013   1.369   .     S
C823   O876    1.294   .     A
C823   O875    1.297   .     A
C824   C825    1.395   .     A
C824   F855    1.362   .     S
C825   C826    1.396   .     A
C825   C834    1.425   .     S
C826   H861    1.085   .     S
C827   C843    1.447   .     S
C827   C828    1.412   .     A
C827   C1015   1.377   .     S
C829   C844    1.437   .     S
C829   N865    1.374   .     A
C829   C893    1.415   .     S
C830   H862    1.080   .     S
C830   N864    1.359   .     A
C831   C842    1.407   .     A
C831   C273    1.416   1_556 S
C831   C282    1.409   1_556 S
C832   N864    1.375   .     A
C832   C845    1.438   .     S
C833   N865    1.361   .     A
C833   F856    1.357   .     S
C833   C895    1.417   .     S
C834   O877    1.285   .     A
C834   O878    1.285   .     A
C835   C837    1.478   .     S
C835   O880    1.298   .     A
C835   O879    1.296   .     A
C836   C854    1.407   .     A
C837   C854    1.421   .     A
C837   C853    1.405   .     A
C838   C847    1.442   .     S
C838   C839    1.390   .     A
C839   C273    1.384   1_556 S
C839   F292    1.359   1_556 S
C840   F858    1.359   .     S
C841   N866    1.157   .     T
C841   C854    1.442   .     S
C842   C852    1.426   .     A
C843   N867    1.157   .     T
C844   N868    1.158   .     T
C845   N869    1.158   .     T
C846   N870    1.155   .     T
C846   C853    1.452   .     S
C847   N871    1.156   .     T
C848   N872    1.156   .     T
C849   C853    1.384   .     A
C850   C851    1.394   .     A
C850   C269    1.405   1_556 S
C850   C282    1.404   1_556 S
C851   C852    1.396   .     A
C851   H863    1.083   .     S
C852   F860    1.358   .     S
F857   C269    1.359   1_556 S
N864   Zn881   2.012   .     S
N865   Zn882   2.012   .     S
O873   Zn881   2.009   .     S
O874   Zn882   2.008   .     S
O875   Zn881   1.997   .     S
O876   Zn882   1.957   .     S
O877   Zn881   2.008   .     S
O878   Zn882   2.009   .     S
O879   Zn881   1.957   .     S
O880   Zn882   1.997   .     S
C883   O936    1.295   .     A
C883   O937    1.284   .     A
C883   C891    1.446   .     S
C884   C886    1.469   .     S
C884   C905    1.422   .     A
C884   C901    1.418   .     A
C885   C891    1.416   .     A
C885   C911    1.447   .     S
C885   C1076   1.369   .     S
C886   O939    1.294   .     A
C886   O938    1.297   .     A
C887   C888    1.395   .     A
C887   F918    1.362   .     S
C888   C889    1.396   .     A
C888   C897    1.425   .     S
C889   H924    1.085   .     S
C890   C906    1.447   .     S
C890   C891    1.412   .     A
C890   C1078   1.377   .     S
C892   C907    1.437   .     S
C892   N928    1.374   .     A
C892   C767    1.415   1_655 S
C893   H925    1.080   .     S
C893   N927    1.359   .     A
C894   C905    1.407   .     A
C894   C336    1.416   1_556 S
C894   C345    1.409   1_556 S
C895   N927    1.375   .     A
C895   C908    1.438   .     S
C896   N928    1.361   .     A
C896   F919    1.357   .     S
C896   C769    1.417   1_655 S
C897   O940    1.285   .     A
C897   O941    1.285   .     A
C898   C900    1.478   .     S
C898   O943    1.298   .     A
C898   O942    1.296   .     A
C899   C917    1.407   .     A
C900   C917    1.421   .     A
C900   C916    1.405   .     A
C901   C910    1.442   .     S
C901   C902    1.390   .     A
C902   C336    1.384   1_556 S
C902   F355    1.359   1_556 S
C903   F921    1.359   .     S
C904   N929    1.157   .     T
C904   C917    1.442   .     S
C905   C915    1.426   .     A
C906   N930    1.157   .     T
C907   N931    1.158   .     T
C908   N932    1.158   .     T
C909   N933    1.155   .     T
C909   C916    1.452   .     S
C910   N934    1.156   .     T
C911   N935    1.156   .     T
C912   C916    1.384   .     A
C913   C914    1.394   .     A
C913   C332    1.405   1_556 S
C913   C345    1.404   1_556 S
C914   C915    1.396   .     A
C914   H926    1.083   .     S
C915   F923    1.358   .     S
F920   C332    1.359   1_556 S
N927   Zn944   2.012   .     S
N928   Zn945   2.012   .     S
O936   Zn944   2.009   .     S
O937   Zn945   2.008   .     S
O938   Zn944   1.997   .     S
O939   Zn945   1.957   .     S
O940   Zn944   2.008   .     S
O941   Zn945   2.009   .     S
O942   Zn944   1.957   .     S
O943   Zn945   1.997   .     S
C946   O999    1.295   .     A
C946   O1000   1.284   .     A
C946   C954    1.446   .     S
C947   C949    1.469   .     S
C947   C968    1.422   .     A
C947   C964    1.418   .     A
C948   C954    1.416   .     A
C948   C974    1.447   .     S
C948   C572    1.369   1_565 S
C949   O1002   1.294   .     A
C949   O1001   1.297   .     A
C950   C951    1.395   .     A
C950   F981    1.362   .     S
C951   C952    1.396   .     A
C951   C960    1.425   .     S
C952   H987    1.085   .     S
C953   C969    1.447   .     S
C953   C954    1.412   .     A
C953   C574    1.377   1_565 S
C955   C970    1.437   .     S
C955   N991    1.374   .     A
C955   C1019   1.415   .     S
C956   H988    1.080   .     S
C956   N990    1.359   .     A
C956   C1081   1.415   1_455 S
C957   C968    1.407   .     A
C957   C399    1.416   1_556 S
C957   C408    1.409   1_556 S
C958   N990    1.375   .     A
C958   C971    1.438   .     S
C958   C1085   1.417   1_455 S
C959   N991    1.361   .     A
C959   F982    1.357   .     S
C959   C1021   1.417   .     S
C960   O1003   1.285   .     A
C960   O1004   1.285   .     A
C961   C963    1.478   .     S
C961   O1006   1.298   .     A
C961   O1005   1.296   .     A
C962   C980    1.407   .     A
C963   C980    1.421   .     A
C963   C979    1.405   .     A
C964   C973    1.442   .     S
C964   C965    1.390   .     A
C965   C399    1.384   1_556 S
C965   F418    1.359   1_556 S
C966   F984    1.359   .     S
C967   N992    1.157   .     T
C967   C980    1.442   .     S
C968   C978    1.426   .     A
C969   N993    1.157   .     T
C970   N994    1.158   .     T
C971   N995    1.158   .     T
C972   N996    1.155   .     T
C972   C979    1.452   .     S
C973   N997    1.156   .     T
C974   N998    1.156   .     T
C975   C979    1.384   .     A
C976   C977    1.394   .     A
C976   C395    1.405   1_556 S
C976   C408    1.404   1_556 S
C977   C978    1.396   .     A
C977   H989    1.083   .     S
C978   F986    1.358   .     S
F983   C395    1.359   1_556 S
N990   Zn1007  2.012   .     S
N991   Zn1008  2.012   .     S
O999   Zn1007  2.009   .     S
O1000  Zn1008  2.008   .     S
O1001  Zn1007  1.997   .     S
O1002  Zn1008  1.957   .     S
O1003  Zn1007  2.008   .     S
O1004  Zn1008  2.009   .     S
O1005  Zn1007  1.957   .     S
O1006  Zn1008  1.997   .     S
C1009  O1062   1.295   .     A
C1009  O1063   1.284   .     A
C1009  C1017   1.446   .     S
C1010  C1012   1.469   .     S
C1010  C1031   1.422   .     A
C1010  C1027   1.418   .     A
C1011  C1017   1.416   .     A
C1011  C1037   1.447   .     S
C1011  C635    1.369   1_565 S
C1012  O1065   1.294   .     A
C1012  O1064   1.297   .     A
C1013  C1014   1.395   .     A
C1013  F1044   1.362   .     S
C1014  C1015   1.396   .     A
C1014  C1023   1.425   .     S
C1015  H1050   1.085   .     S
C1016  C1032   1.447   .     S
C1016  C1017   1.412   .     A
C1016  C637    1.377   1_565 S
C1018  C1033   1.437   .     S
C1018  N1054   1.374   .     A
C1018  C1082   1.415   .     S
C1019  H1051   1.080   .     S
C1019  N1053   1.359   .     A
C1020  C1031   1.407   .     A
C1020  C462    1.416   1_556 S
C1020  C471    1.409   1_556 S
C1021  N1053   1.375   .     A
C1021  C1034   1.438   .     S
C1022  N1054   1.361   .     A
C1022  F1045   1.357   .     S
C1022  C1084   1.417   .     S
C1023  O1066   1.285   .     A
C1023  O1067   1.285   .     A
C1024  C1026   1.478   .     S
C1024  O1069   1.298   .     A
C1024  O1068   1.296   .     A
C1025  C1043   1.407   .     A
C1026  C1043   1.421   .     A
C1026  C1042   1.405   .     A
C1027  C1036   1.442   .     S
C1027  C1028   1.390   .     A
C1028  C462    1.384   1_556 S
C1028  F481    1.359   1_556 S
C1029  F1047   1.359   .     S
C1030  N1055   1.157   .     T
C1030  C1043   1.442   .     S
C1031  C1041   1.426   .     A
C1032  N1056   1.157   .     T
C1033  N1057   1.158   .     T
C1034  N1058   1.158   .     T
C1035  N1059   1.155   .     T
C1035  C1042   1.452   .     S
C1036  N1060   1.156   .     T
C1037  N1061   1.156   .     T
C1038  C1042   1.384   .     A
C1039  C1040   1.394   .     A
C1039  C458    1.405   1_556 S
C1039  C471    1.404   1_556 S
C1040  C1041   1.396   .     A
C1040  H1052   1.083   .     S
C1041  F1049   1.358   .     S
F1046  C458    1.359   1_556 S
N1053  Zn1070  2.012   .     S
N1054  Zn1071  2.012   .     S
O1062  Zn1070  2.009   .     S
O1063  Zn1071  2.008   .     S
O1064  Zn1070  1.997   .     S
O1065  Zn1071  1.957   .     S
O1066  Zn1070  2.008   .     S
O1067  Zn1071  2.009   .     S
O1068  Zn1070  1.957   .     S
O1069  Zn1071  1.997   .     S
C1072  O1125   1.295   .     A
C1072  O1126   1.284   .     A
C1072  C1080   1.446   .     S
C1073  C1075   1.469   .     S
C1073  C1094   1.422   .     A
C1073  C1090   1.418   .     A
C1074  C1080   1.416   .     A
C1074  C1100   1.447   .     S
C1074  C698    1.369   1_565 S
C1075  O1128   1.294   .     A
C1075  O1127   1.297   .     A
C1076  C1077   1.395   .     A
C1076  F1107   1.362   .     S
C1077  C1078   1.396   .     A
C1077  C1086   1.425   .     S
C1078  H1113   1.085   .     S
C1079  C1095   1.447   .     S
C1079  C1080   1.412   .     A
C1079  C700    1.377   1_565 S
C1081  C1096   1.437   .     S
C1081  N1117   1.374   .     A
C1081  C956    1.415   1_655 S
C1082  H1114   1.080   .     S
C1082  N1116   1.359   .     A
C1083  C1094   1.407   .     A
C1083  C525    1.416   1_556 S
C1083  C534    1.409   1_556 S
C1084  N1116   1.375   .     A
C1084  C1097   1.438   .     S
C1085  N1117   1.361   .     A
C1085  F1108   1.357   .     S
C1085  C958    1.417   1_655 S
C1086  O1129   1.285   .     A
C1086  O1130   1.285   .     A
C1087  C1089   1.478   .     S
C1087  O1132   1.298   .     A
C1087  O1131   1.296   .     A
C1088  C1106   1.407   .     A
C1089  C1106   1.421   .     A
C1089  C1105   1.405   .     A
C1090  C1099   1.442   .     S
C1090  C1091   1.390   .     A
C1091  C525    1.384   1_556 S
C1091  F544    1.359   1_556 S
C1092  F1110   1.359   .     S
C1093  N1118   1.157   .     T
C1093  C1106   1.442   .     S
C1094  C1104   1.426   .     A
C1095  N1119   1.157   .     T
C1096  N1120   1.158   .     T
C1097  N1121   1.158   .     T
C1098  N1122   1.155   .     T
C1098  C1105   1.452   .     S
C1099  N1123   1.156   .     T
C1100  N1124   1.156   .     T
C1101  C1105   1.384   .     A
C1102  C1103   1.394   .     A
C1102  C521    1.405   1_556 S
C1102  C534    1.404   1_556 S
C1103  C1104   1.396   .     A
C1103  H1115   1.083   .     S
C1104  F1112   1.358   .     S
F1109  C521    1.359   1_556 S
N1116  Zn1133  2.012   .     S
N1117  Zn1134  2.012   .     S
O1125  Zn1133  2.009   .     S
O1126  Zn1134  2.008   .     S
O1127  Zn1133  1.997   .     S
O1128  Zn1134  1.957   .     S
O1129  Zn1133  2.008   .     S
O1130  Zn1134  2.009   .     S
O1131  Zn1133  1.957   .     S
O1132  Zn1134  1.997   .     S
