data_str_m2_o1_o17_pcu_sym.175
_audit_creation_date              2020-01-03
_audit_creation_method            'Materials Studio'
_symmetry_space_group_name_H-M    'P1'
_symmetry_Int_Tables_number       1
_symmetry_cell_setting            triclinic
loop_
_symmetry_equiv_pos_as_xyz
  x,y,z
_cell_length_a                    32.3874
_cell_length_b                    28.5158
_cell_length_c                    30.1631
_cell_angle_alpha                 89.6024
_cell_angle_beta                  91.2610
_cell_angle_gamma                 90.0592
loop_
_atom_site_label
_atom_site_type_symbol
_atom_site_fract_x
_atom_site_fract_y
_atom_site_fract_z
_atom_site_U_iso_or_equiv
_atom_site_adp_type
_atom_site_occupancy
O1     O     0.10655   0.20625   0.24999   0.00000  Uiso   1.00
O2     O     0.22679   0.12709   0.25000   0.00000  Uiso   1.00
O3     O     0.22679   0.20625   0.25000   0.00000  Uiso   1.00
O4     O     0.10655   0.12709   0.24999   0.00000  Uiso   1.00
C5     C     0.08740   0.16659   0.25040   0.00000  Uiso   1.00
C6     C     0.24593   0.16674   0.24960   0.00000  Uiso   1.00
O7     O     0.16666   0.20627   0.18513   0.00000  Uiso   1.00
O8     O     0.16668   0.12707   0.31487   0.00000  Uiso   1.00
O9     O     0.16668   0.20627   0.31487   0.00000  Uiso   1.00
O10    O     0.16666   0.12707   0.18513   0.00000  Uiso   1.00
C11    C     0.16479   0.16684   0.16445   0.00000  Uiso   1.00
C12    C     0.16854   0.16649   0.33555   0.00000  Uiso   1.00
Cu13   Cu    0.16667   0.21355   0.25000   0.00000  Uiso   1.00
Cu14   Cu    0.16667   0.11978   0.25000   0.00000  Uiso   1.00
C15    C     0.20118   0.14242   0.40857   0.00000  Uiso   1.00
C16    C     0.13215   0.19089   0.09143   0.00000  Uiso   1.00
C17    C     0.17006   0.16651   0.38389   0.00000  Uiso   1.00
C18    C     0.16327   0.16681   0.11612   0.00000  Uiso   1.00
C19    C     0.13883   0.19058   0.40521   0.00000  Uiso   1.00
C20    C     0.19449   0.14271   0.09480   0.00000  Uiso   1.00
C21    C     0.13655   0.18906   0.45119   0.00000  Uiso   1.00
C22    C     0.19676   0.14421   0.04881   0.00000  Uiso   1.00
C23    C     0.16805   0.16707   0.47668   0.00000  Uiso   1.00
C24    C     0.16527   0.16618   0.02332   0.00000  Uiso   1.00
C25    C     0.20235   0.14636   0.45561   0.00000  Uiso   1.00
C26    C     0.13097   0.18689   0.04439   0.00000  Uiso   1.00
C27    C     0.10195   0.20730   0.47167   0.00000  Uiso   1.00
C28    C     0.23136   0.12594   0.02834   0.00000  Uiso   1.00
C29    C     0.09737   0.20362   0.01737   0.00000  Uiso   1.00
C30    C     0.23593   0.12960   0.48264   0.00000  Uiso   1.00
H31    H     0.07682   0.22180   0.45165   0.00000  Uiso   1.00
H32    H     0.25648   0.11145   0.04837   0.00000  Uiso   1.00
C33    C     0.02093   0.13066   0.22853   0.00000  Uiso   1.00
C34    C     0.31241   0.20269   0.27144   0.00000  Uiso   1.00
C35    C     0.31153   0.13105   0.22782   0.00000  Uiso   1.00
C36    C     0.02180   0.20229   0.27215   0.00000  Uiso   1.00
C37    C     0.29052   0.16699   0.24936   0.00000  Uiso   1.00
C38    C     0.04282   0.16635   0.25062   0.00000  Uiso   1.00
C39    C     0.13859   0.02494   0.22467   0.00000  Uiso   1.00
C40    C     0.19474   0.30839   0.27533   0.00000  Uiso   1.00
C41    C     0.19476   0.02470   0.27522   0.00000  Uiso   1.00
C42    C     0.13858   0.30864   0.22478   0.00000  Uiso   1.00
H43    H     0.11615   0.04374   0.20429   0.00000  Uiso   1.00
H44    H     0.21719   0.28959   0.29570   0.00000  Uiso   1.00
H45    H     0.21723   0.04346   0.29514   0.00000  Uiso   1.00
H46    H     0.11612   0.28988   0.20484   0.00000  Uiso   1.00
N47    N     0.16667   0.28402   0.25000   0.00000  Uiso   1.00
N48    N     0.16667   0.04931   0.25000   0.00000  Uiso   1.00
C49    C     0.22893   0.10909   0.38597   0.00000  Uiso   1.00
C50    C     0.22634   0.06086   0.39560   0.00000  Uiso   1.00
C51    C     0.25514   0.02967   0.37853   0.00000  Uiso   1.00
C52    C     0.28663   0.04635   0.35168   0.00000  Uiso   1.00
C53    C     0.28891   0.09410   0.34126   0.00000  Uiso   1.00
C54    C     0.25980   0.12536   0.35773   0.00000  Uiso   1.00
H55    H     0.20269   0.04769   0.41728   0.00000  Uiso   1.00
H56    H     0.25329   0.32600   0.38649   0.00000  Uiso   1.00
H57    H     0.30923   0.02230   0.33893   0.00000  Uiso   1.00
H58    H     0.31377   0.10693   0.32114   0.00000  Uiso   1.00
H59    H     0.26251   0.16244   0.35036   0.00000  Uiso   1.00
C60    C     0.10444   0.22430   0.11398   0.00000  Uiso   1.00
C61    C     0.07360   0.20814   0.14232   0.00000  Uiso   1.00
C62    C     0.04455   0.23949   0.15876   0.00000  Uiso   1.00
C63    C     0.04685   0.28720   0.14821   0.00000  Uiso   1.00
C64    C     0.07830   0.30376   0.12125   0.00000  Uiso   1.00
C65    C     0.10704   0.27249   0.10421   0.00000  Uiso   1.00
H66    H     0.07088   0.17109   0.14979   0.00000  Uiso   1.00
H67    H     0.01974   0.22676   0.17899   0.00000  Uiso   1.00
H68    H     0.02430   0.31132   0.16095   0.00000  Uiso   1.00
H69    H     0.08016   0.00740   0.11319   0.00000  Uiso   1.00
H70    H     0.13067   0.28557   0.08246   0.00000  Uiso   1.00
F71    F     0.10868   0.21252   0.38067   0.00000  Uiso   1.00
F72    F     0.22464   0.12079   0.11935   0.00000  Uiso   1.00
C73    C     0.05486   0.20978   0.03373   0.00000  Uiso   1.00
C74    C     0.03331   0.25197   0.02626   0.00000  Uiso   1.00
C75    C     0.32600   0.25668   0.04033   0.00000  Uiso   1.00
C76    C     0.30654   0.21931   0.06168   0.00000  Uiso   1.00
C77    C     0.32759   0.17706   0.06867   0.00000  Uiso   1.00
C78    C     0.03466   0.17198   0.05412   0.00000  Uiso   1.00
H79    H     0.04809   0.28123   0.00988   0.00000  Uiso   1.00
H80    H     0.30964   0.28934   0.03477   0.00000  Uiso   1.00
H81    H     0.27516   0.22305   0.07277   0.00000  Uiso   1.00
H82    H     0.31272   0.14827   0.08555   0.00000  Uiso   1.00
H83    H     0.05041   0.13883   0.05924   0.00000  Uiso   1.00
C84    C     0.27844   0.12336   0.46630   0.00000  Uiso   1.00
C85    C     0.29874   0.16116   0.44601   0.00000  Uiso   1.00
C86    C     0.00581   0.15599   0.43148   0.00000  Uiso   1.00
C87    C     0.02677   0.11368   0.43841   0.00000  Uiso   1.00
C88    C     0.00721   0.07631   0.45968   0.00000  Uiso   1.00
C89    C     0.29990   0.08109   0.47372   0.00000  Uiso   1.00
H90    H     0.28306   0.19437   0.44094   0.00000  Uiso   1.00
H91    H     0.02075   0.18478   0.41465   0.00000  Uiso   1.00
H92    H     0.05815   0.10987   0.42734   0.00000  Uiso   1.00
H93    H     0.02350   0.04359   0.46519   0.00000  Uiso   1.00
H94    H     0.28504   0.05184   0.49003   0.00000  Uiso   1.00
F95    F     0.04080   0.09626   0.20652   0.00000  Uiso   1.00
F96    F     0.29253   0.23709   0.29345   0.00000  Uiso   1.00
F97    F     0.29076   0.09683   0.20547   0.00000  Uiso   1.00
F98    F     0.04258   0.23650   0.29450   0.00000  Uiso   1.00
O99    O     0.43988   0.20625   0.24999   0.00000  Uiso   1.00
O100   O     0.56012   0.12709   0.25000   0.00000  Uiso   1.00
O101   O     0.56012   0.20625   0.25000   0.00000  Uiso   1.00
O102   O     0.43988   0.12709   0.24999   0.00000  Uiso   1.00
C103   C     0.42073   0.16659   0.25040   0.00000  Uiso   1.00
C104   C     0.57927   0.16674   0.24960   0.00000  Uiso   1.00
O105   O     0.49999   0.20627   0.18513   0.00000  Uiso   1.00
O106   O     0.50001   0.12707   0.31487   0.00000  Uiso   1.00
O107   O     0.50001   0.20627   0.31487   0.00000  Uiso   1.00
O108   O     0.49999   0.12707   0.18513   0.00000  Uiso   1.00
C109   C     0.49813   0.16684   0.16445   0.00000  Uiso   1.00
C110   C     0.50187   0.16649   0.33555   0.00000  Uiso   1.00
Cu111  Cu    0.50000   0.21355   0.25000   0.00000  Uiso   1.00
Cu112  Cu    0.50000   0.11978   0.25000   0.00000  Uiso   1.00
C113   C     0.53451   0.14242   0.40857   0.00000  Uiso   1.00
C114   C     0.46549   0.19089   0.09143   0.00000  Uiso   1.00
C115   C     0.50339   0.16651   0.38389   0.00000  Uiso   1.00
C116   C     0.49661   0.16681   0.11612   0.00000  Uiso   1.00
C117   C     0.47217   0.19058   0.40521   0.00000  Uiso   1.00
C118   C     0.52782   0.14271   0.09480   0.00000  Uiso   1.00
C119   C     0.46989   0.18906   0.45119   0.00000  Uiso   1.00
C120   C     0.53010   0.14421   0.04881   0.00000  Uiso   1.00
C121   C     0.50138   0.16707   0.47668   0.00000  Uiso   1.00
C122   C     0.49860   0.16618   0.02332   0.00000  Uiso   1.00
C123   C     0.53568   0.14636   0.45561   0.00000  Uiso   1.00
C124   C     0.46431   0.18689   0.04439   0.00000  Uiso   1.00
C125   C     0.43528   0.20730   0.47167   0.00000  Uiso   1.00
C126   C     0.56469   0.12594   0.02834   0.00000  Uiso   1.00
C127   C     0.43071   0.20362   0.01737   0.00000  Uiso   1.00
C128   C     0.56927   0.12960   0.48264   0.00000  Uiso   1.00
H129   H     0.41016   0.22180   0.45165   0.00000  Uiso   1.00
H130   H     0.58982   0.11145   0.04837   0.00000  Uiso   1.00
C131   C     0.35426   0.13066   0.22853   0.00000  Uiso   1.00
C132   C     0.64574   0.20269   0.27144   0.00000  Uiso   1.00
C133   C     0.64486   0.13105   0.22782   0.00000  Uiso   1.00
C134   C     0.35513   0.20229   0.27215   0.00000  Uiso   1.00
C135   C     0.62385   0.16699   0.24936   0.00000  Uiso   1.00
C136   C     0.37615   0.16635   0.25062   0.00000  Uiso   1.00
C137   C     0.47193   0.02494   0.22467   0.00000  Uiso   1.00
C138   C     0.52807   0.30839   0.27533   0.00000  Uiso   1.00
C139   C     0.52809   0.02470   0.27522   0.00000  Uiso   1.00
C140   C     0.47191   0.30864   0.22478   0.00000  Uiso   1.00
H141   H     0.44948   0.04374   0.20429   0.00000  Uiso   1.00
H142   H     0.55052   0.28959   0.29570   0.00000  Uiso   1.00
H143   H     0.55056   0.04346   0.29514   0.00000  Uiso   1.00
H144   H     0.44945   0.28988   0.20484   0.00000  Uiso   1.00
N145   N     0.50000   0.28402   0.25000   0.00000  Uiso   1.00
N146   N     0.50000   0.04931   0.25000   0.00000  Uiso   1.00
C147   C     0.56227   0.10909   0.38597   0.00000  Uiso   1.00
C148   C     0.55968   0.06086   0.39560   0.00000  Uiso   1.00
C149   C     0.58847   0.02967   0.37853   0.00000  Uiso   1.00
C150   C     0.61996   0.04635   0.35168   0.00000  Uiso   1.00
C151   C     0.62225   0.09410   0.34126   0.00000  Uiso   1.00
C152   C     0.59314   0.12536   0.35773   0.00000  Uiso   1.00
H153   H     0.53602   0.04769   0.41728   0.00000  Uiso   1.00
H154   H     0.58662   0.32600   0.38649   0.00000  Uiso   1.00
H155   H     0.64256   0.02230   0.33893   0.00000  Uiso   1.00
H156   H     0.64710   0.10693   0.32114   0.00000  Uiso   1.00
H157   H     0.59584   0.16244   0.35036   0.00000  Uiso   1.00
C158   C     0.43778   0.22430   0.11398   0.00000  Uiso   1.00
C159   C     0.40694   0.20814   0.14232   0.00000  Uiso   1.00
C160   C     0.37789   0.23949   0.15876   0.00000  Uiso   1.00
C161   C     0.38019   0.28720   0.14821   0.00000  Uiso   1.00
C162   C     0.41164   0.30376   0.12125   0.00000  Uiso   1.00
C163   C     0.44038   0.27249   0.10421   0.00000  Uiso   1.00
H164   H     0.40422   0.17109   0.14979   0.00000  Uiso   1.00
H165   H     0.35308   0.22676   0.17899   0.00000  Uiso   1.00
H166   H     0.35764   0.31132   0.16095   0.00000  Uiso   1.00
H167   H     0.41350   0.00740   0.11319   0.00000  Uiso   1.00
H168   H     0.46400   0.28557   0.08246   0.00000  Uiso   1.00
F169   F     0.44201   0.21252   0.38067   0.00000  Uiso   1.00
F170   F     0.55797   0.12079   0.11935   0.00000  Uiso   1.00
C171   C     0.38819   0.20978   0.03373   0.00000  Uiso   1.00
C172   C     0.36664   0.25197   0.02626   0.00000  Uiso   1.00
C173   C     0.65933   0.25668   0.04033   0.00000  Uiso   1.00
C174   C     0.63988   0.21931   0.06168   0.00000  Uiso   1.00
C175   C     0.66092   0.17706   0.06867   0.00000  Uiso   1.00
C176   C     0.36799   0.17198   0.05412   0.00000  Uiso   1.00
H177   H     0.38142   0.28123   0.00988   0.00000  Uiso   1.00
H178   H     0.64297   0.28934   0.03477   0.00000  Uiso   1.00
H179   H     0.60850   0.22305   0.07277   0.00000  Uiso   1.00
H180   H     0.64606   0.14827   0.08555   0.00000  Uiso   1.00
H181   H     0.38374   0.13883   0.05924   0.00000  Uiso   1.00
C182   C     0.61177   0.12336   0.46630   0.00000  Uiso   1.00
C183   C     0.63208   0.16116   0.44601   0.00000  Uiso   1.00
C184   C     0.33914   0.15599   0.43148   0.00000  Uiso   1.00
C185   C     0.36010   0.11368   0.43841   0.00000  Uiso   1.00
C186   C     0.34054   0.07631   0.45968   0.00000  Uiso   1.00
C187   C     0.63323   0.08109   0.47372   0.00000  Uiso   1.00
H188   H     0.61640   0.19437   0.44094   0.00000  Uiso   1.00
H189   H     0.35408   0.18478   0.41465   0.00000  Uiso   1.00
H190   H     0.39148   0.10987   0.42734   0.00000  Uiso   1.00
H191   H     0.35683   0.04359   0.46519   0.00000  Uiso   1.00
H192   H     0.61837   0.05184   0.49003   0.00000  Uiso   1.00
F193   F     0.37414   0.09626   0.20652   0.00000  Uiso   1.00
F194   F     0.62586   0.23709   0.29345   0.00000  Uiso   1.00
F195   F     0.62409   0.09683   0.20547   0.00000  Uiso   1.00
F196   F     0.37591   0.23650   0.29450   0.00000  Uiso   1.00
O197   O     0.77321   0.20625   0.24999   0.00000  Uiso   1.00
O198   O     0.89345   0.12709   0.25000   0.00000  Uiso   1.00
O199   O     0.89345   0.20625   0.25000   0.00000  Uiso   1.00
O200   O     0.77321   0.12709   0.24999   0.00000  Uiso   1.00
C201   C     0.75407   0.16659   0.25040   0.00000  Uiso   1.00
C202   C     0.91260   0.16674   0.24960   0.00000  Uiso   1.00
O203   O     0.83332   0.20627   0.18513   0.00000  Uiso   1.00
O204   O     0.83334   0.12707   0.31487   0.00000  Uiso   1.00
O205   O     0.83334   0.20627   0.31487   0.00000  Uiso   1.00
O206   O     0.83332   0.12707   0.18513   0.00000  Uiso   1.00
C207   C     0.83146   0.16684   0.16445   0.00000  Uiso   1.00
C208   C     0.83521   0.16649   0.33555   0.00000  Uiso   1.00
Cu209  Cu    0.83333   0.21355   0.25000   0.00000  Uiso   1.00
Cu210  Cu    0.83333   0.11978   0.25000   0.00000  Uiso   1.00
C211   C     0.86784   0.14242   0.40857   0.00000  Uiso   1.00
C212   C     0.79882   0.19089   0.09143   0.00000  Uiso   1.00
C213   C     0.83673   0.16651   0.38389   0.00000  Uiso   1.00
C214   C     0.82994   0.16681   0.11612   0.00000  Uiso   1.00
C215   C     0.80550   0.19058   0.40521   0.00000  Uiso   1.00
C216   C     0.86116   0.14271   0.09480   0.00000  Uiso   1.00
C217   C     0.80322   0.18906   0.45119   0.00000  Uiso   1.00
C218   C     0.86343   0.14421   0.04881   0.00000  Uiso   1.00
C219   C     0.83471   0.16707   0.47668   0.00000  Uiso   1.00
C220   C     0.83194   0.16618   0.02332   0.00000  Uiso   1.00
C221   C     0.86901   0.14636   0.45561   0.00000  Uiso   1.00
C222   C     0.79764   0.18689   0.04439   0.00000  Uiso   1.00
C223   C     0.76861   0.20730   0.47167   0.00000  Uiso   1.00
C224   C     0.89803   0.12594   0.02834   0.00000  Uiso   1.00
C225   C     0.76404   0.20362   0.01737   0.00000  Uiso   1.00
C226   C     0.90260   0.12960   0.48264   0.00000  Uiso   1.00
H227   H     0.74349   0.22180   0.45165   0.00000  Uiso   1.00
H228   H     0.92315   0.11145   0.04837   0.00000  Uiso   1.00
C229   C     0.68759   0.13066   0.22853   0.00000  Uiso   1.00
C230   C     0.97907   0.20269   0.27144   0.00000  Uiso   1.00
C231   C     0.97820   0.13105   0.22782   0.00000  Uiso   1.00
C232   C     0.68847   0.20229   0.27215   0.00000  Uiso   1.00
C233   C     0.95718   0.16699   0.24936   0.00000  Uiso   1.00
C234   C     0.70948   0.16635   0.25062   0.00000  Uiso   1.00
C235   C     0.80526   0.02494   0.22467   0.00000  Uiso   1.00
C236   C     0.86141   0.30839   0.27533   0.00000  Uiso   1.00
C237   C     0.86142   0.02470   0.27522   0.00000  Uiso   1.00
C238   C     0.80525   0.30864   0.22478   0.00000  Uiso   1.00
H239   H     0.78282   0.04374   0.20429   0.00000  Uiso   1.00
H240   H     0.88385   0.28959   0.29570   0.00000  Uiso   1.00
H241   H     0.88389   0.04346   0.29514   0.00000  Uiso   1.00
H242   H     0.78278   0.28988   0.20484   0.00000  Uiso   1.00
N243   N     0.83333   0.28402   0.25000   0.00000  Uiso   1.00
N244   N     0.83333   0.04931   0.25000   0.00000  Uiso   1.00
C245   C     0.89560   0.10909   0.38597   0.00000  Uiso   1.00
C246   C     0.89301   0.06086   0.39560   0.00000  Uiso   1.00
C247   C     0.92180   0.02967   0.37853   0.00000  Uiso   1.00
C248   C     0.95330   0.04635   0.35168   0.00000  Uiso   1.00
C249   C     0.95558   0.09410   0.34126   0.00000  Uiso   1.00
C250   C     0.92647   0.12536   0.35773   0.00000  Uiso   1.00
H251   H     0.86936   0.04769   0.41728   0.00000  Uiso   1.00
H252   H     0.91996   0.32600   0.38649   0.00000  Uiso   1.00
H253   H     0.97590   0.02230   0.33893   0.00000  Uiso   1.00
H254   H     0.98043   0.10693   0.32114   0.00000  Uiso   1.00
H255   H     0.92918   0.16244   0.35036   0.00000  Uiso   1.00
C256   C     0.77111   0.22430   0.11398   0.00000  Uiso   1.00
C257   C     0.74027   0.20814   0.14232   0.00000  Uiso   1.00
C258   C     0.71122   0.23949   0.15876   0.00000  Uiso   1.00
C259   C     0.71352   0.28720   0.14821   0.00000  Uiso   1.00
C260   C     0.74497   0.30376   0.12125   0.00000  Uiso   1.00
C261   C     0.77371   0.27249   0.10421   0.00000  Uiso   1.00
H262   H     0.73755   0.17109   0.14979   0.00000  Uiso   1.00
H263   H     0.68641   0.22676   0.17899   0.00000  Uiso   1.00
H264   H     0.69097   0.31132   0.16095   0.00000  Uiso   1.00
H265   H     0.74683   0.00740   0.11319   0.00000  Uiso   1.00
H266   H     0.79733   0.28557   0.08246   0.00000  Uiso   1.00
F267   F     0.77535   0.21252   0.38067   0.00000  Uiso   1.00
F268   F     0.89131   0.12079   0.11935   0.00000  Uiso   1.00
C269   C     0.72153   0.20978   0.03373   0.00000  Uiso   1.00
C270   C     0.69998   0.25197   0.02626   0.00000  Uiso   1.00
C271   C     0.99267   0.25668   0.04033   0.00000  Uiso   1.00
C272   C     0.97321   0.21931   0.06168   0.00000  Uiso   1.00
C273   C     0.99426   0.17706   0.06867   0.00000  Uiso   1.00
C274   C     0.70132   0.17198   0.05412   0.00000  Uiso   1.00
H275   H     0.71476   0.28123   0.00988   0.00000  Uiso   1.00
H276   H     0.97630   0.28934   0.03477   0.00000  Uiso   1.00
H277   H     0.94183   0.22305   0.07277   0.00000  Uiso   1.00
H278   H     0.97939   0.14827   0.08555   0.00000  Uiso   1.00
H279   H     0.71708   0.13883   0.05924   0.00000  Uiso   1.00
C280   C     0.94511   0.12336   0.46630   0.00000  Uiso   1.00
C281   C     0.96541   0.16116   0.44601   0.00000  Uiso   1.00
C282   C     0.67248   0.15599   0.43148   0.00000  Uiso   1.00
C283   C     0.69343   0.11368   0.43841   0.00000  Uiso   1.00
C284   C     0.67388   0.07631   0.45968   0.00000  Uiso   1.00
C285   C     0.96657   0.08109   0.47372   0.00000  Uiso   1.00
H286   H     0.94973   0.19437   0.44094   0.00000  Uiso   1.00
H287   H     0.68741   0.18478   0.41465   0.00000  Uiso   1.00
H288   H     0.72481   0.10987   0.42734   0.00000  Uiso   1.00
H289   H     0.69017   0.04359   0.46519   0.00000  Uiso   1.00
H290   H     0.95170   0.05184   0.49003   0.00000  Uiso   1.00
F291   F     0.70747   0.09626   0.20652   0.00000  Uiso   1.00
F292   F     0.95920   0.23709   0.29345   0.00000  Uiso   1.00
F293   F     0.95742   0.09683   0.20547   0.00000  Uiso   1.00
F294   F     0.70924   0.23650   0.29450   0.00000  Uiso   1.00
O295   O     0.10655   0.53958   0.24999   0.00000  Uiso   1.00
O296   O     0.22679   0.46042   0.25000   0.00000  Uiso   1.00
O297   O     0.22679   0.53958   0.25000   0.00000  Uiso   1.00
O298   O     0.10655   0.46042   0.24999   0.00000  Uiso   1.00
C299   C     0.08740   0.49993   0.25040   0.00000  Uiso   1.00
C300   C     0.24593   0.50007   0.24960   0.00000  Uiso   1.00
O301   O     0.16666   0.53960   0.18513   0.00000  Uiso   1.00
O302   O     0.16668   0.46040   0.31487   0.00000  Uiso   1.00
O303   O     0.16668   0.53960   0.31487   0.00000  Uiso   1.00
O304   O     0.16666   0.46040   0.18513   0.00000  Uiso   1.00
C305   C     0.16479   0.50017   0.16445   0.00000  Uiso   1.00
C306   C     0.16854   0.49982   0.33555   0.00000  Uiso   1.00
Cu307  Cu    0.16667   0.54689   0.25000   0.00000  Uiso   1.00
Cu308  Cu    0.16667   0.45311   0.25000   0.00000  Uiso   1.00
C309   C     0.20118   0.47575   0.40857   0.00000  Uiso   1.00
C310   C     0.13215   0.52422   0.09143   0.00000  Uiso   1.00
C311   C     0.17006   0.49984   0.38389   0.00000  Uiso   1.00
C312   C     0.16327   0.50015   0.11612   0.00000  Uiso   1.00
C313   C     0.13883   0.52391   0.40521   0.00000  Uiso   1.00
C314   C     0.19449   0.47605   0.09480   0.00000  Uiso   1.00
C315   C     0.13655   0.52239   0.45119   0.00000  Uiso   1.00
C316   C     0.19676   0.47754   0.04881   0.00000  Uiso   1.00
C317   C     0.16805   0.50041   0.47668   0.00000  Uiso   1.00
C318   C     0.16527   0.49951   0.02332   0.00000  Uiso   1.00
C319   C     0.20235   0.47970   0.45561   0.00000  Uiso   1.00
C320   C     0.13097   0.52023   0.04439   0.00000  Uiso   1.00
C321   C     0.10195   0.54064   0.47167   0.00000  Uiso   1.00
C322   C     0.23136   0.45928   0.02834   0.00000  Uiso   1.00
C323   C     0.09737   0.53696   0.01737   0.00000  Uiso   1.00
C324   C     0.23593   0.46293   0.48264   0.00000  Uiso   1.00
H325   H     0.07682   0.55513   0.45165   0.00000  Uiso   1.00
H326   H     0.25648   0.44478   0.04837   0.00000  Uiso   1.00
C327   C     0.02093   0.46399   0.22853   0.00000  Uiso   1.00
C328   C     0.31241   0.53602   0.27144   0.00000  Uiso   1.00
C329   C     0.31153   0.46438   0.22782   0.00000  Uiso   1.00
C330   C     0.02180   0.53563   0.27215   0.00000  Uiso   1.00
C331   C     0.29052   0.50032   0.24936   0.00000  Uiso   1.00
C332   C     0.04282   0.49968   0.25062   0.00000  Uiso   1.00
C333   C     0.13859   0.35827   0.22467   0.00000  Uiso   1.00
C334   C     0.19474   0.64173   0.27533   0.00000  Uiso   1.00
C335   C     0.19476   0.35803   0.27522   0.00000  Uiso   1.00
C336   C     0.13858   0.64197   0.22478   0.00000  Uiso   1.00
H337   H     0.11615   0.37707   0.20429   0.00000  Uiso   1.00
H338   H     0.21719   0.62293   0.29570   0.00000  Uiso   1.00
H339   H     0.21723   0.37679   0.29514   0.00000  Uiso   1.00
H340   H     0.11612   0.62321   0.20484   0.00000  Uiso   1.00
N341   N     0.16667   0.61736   0.25000   0.00000  Uiso   1.00
N342   N     0.16667   0.38264   0.25000   0.00000  Uiso   1.00
C343   C     0.22893   0.44243   0.38597   0.00000  Uiso   1.00
C344   C     0.22634   0.39419   0.39560   0.00000  Uiso   1.00
C345   C     0.25514   0.36300   0.37853   0.00000  Uiso   1.00
C346   C     0.28663   0.37969   0.35168   0.00000  Uiso   1.00
C347   C     0.28891   0.42743   0.34126   0.00000  Uiso   1.00
C348   C     0.25980   0.45870   0.35773   0.00000  Uiso   1.00
H349   H     0.20269   0.38102   0.41728   0.00000  Uiso   1.00
H350   H     0.25329   0.65933   0.38649   0.00000  Uiso   1.00
H351   H     0.30923   0.35563   0.33893   0.00000  Uiso   1.00
H352   H     0.31377   0.44026   0.32114   0.00000  Uiso   1.00
H353   H     0.26251   0.49578   0.35036   0.00000  Uiso   1.00
C354   C     0.10444   0.55763   0.11398   0.00000  Uiso   1.00
C355   C     0.07360   0.54147   0.14232   0.00000  Uiso   1.00
C356   C     0.04455   0.57282   0.15876   0.00000  Uiso   1.00
C357   C     0.04685   0.62053   0.14821   0.00000  Uiso   1.00
C358   C     0.07830   0.63709   0.12125   0.00000  Uiso   1.00
C359   C     0.10704   0.60582   0.10421   0.00000  Uiso   1.00
H360   H     0.07088   0.50442   0.14979   0.00000  Uiso   1.00
H361   H     0.01974   0.56009   0.17899   0.00000  Uiso   1.00
H362   H     0.02430   0.64465   0.16095   0.00000  Uiso   1.00
H363   H     0.08016   0.34074   0.11319   0.00000  Uiso   1.00
H364   H     0.13067   0.61891   0.08246   0.00000  Uiso   1.00
F365   F     0.10868   0.54585   0.38067   0.00000  Uiso   1.00
F366   F     0.22464   0.45412   0.11935   0.00000  Uiso   1.00
C367   C     0.05486   0.54312   0.03373   0.00000  Uiso   1.00
C368   C     0.03331   0.58531   0.02626   0.00000  Uiso   1.00
C369   C     0.32600   0.59001   0.04033   0.00000  Uiso   1.00
C370   C     0.30654   0.55264   0.06168   0.00000  Uiso   1.00
C371   C     0.32759   0.51039   0.06867   0.00000  Uiso   1.00
C372   C     0.03466   0.50532   0.05412   0.00000  Uiso   1.00
H373   H     0.04809   0.61456   0.00988   0.00000  Uiso   1.00
H374   H     0.30964   0.62267   0.03477   0.00000  Uiso   1.00
H375   H     0.27516   0.55638   0.07277   0.00000  Uiso   1.00
H376   H     0.31272   0.48160   0.08555   0.00000  Uiso   1.00
H377   H     0.05041   0.47217   0.05924   0.00000  Uiso   1.00
C378   C     0.27844   0.45670   0.46630   0.00000  Uiso   1.00
C379   C     0.29874   0.49449   0.44601   0.00000  Uiso   1.00
C380   C     0.00581   0.48933   0.43148   0.00000  Uiso   1.00
C381   C     0.02677   0.44701   0.43841   0.00000  Uiso   1.00
C382   C     0.00721   0.40965   0.45968   0.00000  Uiso   1.00
C383   C     0.29990   0.41443   0.47372   0.00000  Uiso   1.00
H384   H     0.28306   0.52770   0.44094   0.00000  Uiso   1.00
H385   H     0.02075   0.51811   0.41465   0.00000  Uiso   1.00
H386   H     0.05815   0.44321   0.42734   0.00000  Uiso   1.00
H387   H     0.02350   0.37692   0.46519   0.00000  Uiso   1.00
H388   H     0.28504   0.38518   0.49003   0.00000  Uiso   1.00
F389   F     0.04080   0.42959   0.20652   0.00000  Uiso   1.00
F390   F     0.29253   0.57042   0.29345   0.00000  Uiso   1.00
F391   F     0.29076   0.43017   0.20547   0.00000  Uiso   1.00
F392   F     0.04258   0.56984   0.29450   0.00000  Uiso   1.00
O393   O     0.43988   0.53958   0.24999   0.00000  Uiso   1.00
O394   O     0.56012   0.46042   0.25000   0.00000  Uiso   1.00
O395   O     0.56012   0.53958   0.25000   0.00000  Uiso   1.00
O396   O     0.43988   0.46042   0.24999   0.00000  Uiso   1.00
C397   C     0.42073   0.49993   0.25040   0.00000  Uiso   1.00
C398   C     0.57927   0.50007   0.24960   0.00000  Uiso   1.00
O399   O     0.49999   0.53960   0.18513   0.00000  Uiso   1.00
O400   O     0.50001   0.46040   0.31487   0.00000  Uiso   1.00
O401   O     0.50001   0.53960   0.31487   0.00000  Uiso   1.00
O402   O     0.49999   0.46040   0.18513   0.00000  Uiso   1.00
C403   C     0.49813   0.50017   0.16445   0.00000  Uiso   1.00
C404   C     0.50187   0.49982   0.33555   0.00000  Uiso   1.00
Cu405  Cu    0.50000   0.54689   0.25000   0.00000  Uiso   1.00
Cu406  Cu    0.50000   0.45311   0.25000   0.00000  Uiso   1.00
C407   C     0.53451   0.47575   0.40857   0.00000  Uiso   1.00
C408   C     0.46549   0.52422   0.09143   0.00000  Uiso   1.00
C409   C     0.50339   0.49984   0.38389   0.00000  Uiso   1.00
C410   C     0.49661   0.50015   0.11612   0.00000  Uiso   1.00
C411   C     0.47217   0.52391   0.40521   0.00000  Uiso   1.00
C412   C     0.52782   0.47605   0.09480   0.00000  Uiso   1.00
C413   C     0.46989   0.52239   0.45119   0.00000  Uiso   1.00
C414   C     0.53010   0.47754   0.04881   0.00000  Uiso   1.00
C415   C     0.50138   0.50041   0.47668   0.00000  Uiso   1.00
C416   C     0.49860   0.49951   0.02332   0.00000  Uiso   1.00
C417   C     0.53568   0.47970   0.45561   0.00000  Uiso   1.00
C418   C     0.46431   0.52023   0.04439   0.00000  Uiso   1.00
C419   C     0.43528   0.54064   0.47167   0.00000  Uiso   1.00
C420   C     0.56469   0.45928   0.02834   0.00000  Uiso   1.00
C421   C     0.43071   0.53696   0.01737   0.00000  Uiso   1.00
C422   C     0.56927   0.46293   0.48264   0.00000  Uiso   1.00
H423   H     0.41016   0.55513   0.45165   0.00000  Uiso   1.00
H424   H     0.58982   0.44478   0.04837   0.00000  Uiso   1.00
C425   C     0.35426   0.46399   0.22853   0.00000  Uiso   1.00
C426   C     0.64574   0.53602   0.27144   0.00000  Uiso   1.00
C427   C     0.64486   0.46438   0.22782   0.00000  Uiso   1.00
C428   C     0.35513   0.53563   0.27215   0.00000  Uiso   1.00
C429   C     0.62385   0.50032   0.24936   0.00000  Uiso   1.00
C430   C     0.37615   0.49968   0.25062   0.00000  Uiso   1.00
C431   C     0.47193   0.35827   0.22467   0.00000  Uiso   1.00
C432   C     0.52807   0.64173   0.27533   0.00000  Uiso   1.00
C433   C     0.52809   0.35803   0.27522   0.00000  Uiso   1.00
C434   C     0.47191   0.64197   0.22478   0.00000  Uiso   1.00
H435   H     0.44948   0.37707   0.20429   0.00000  Uiso   1.00
H436   H     0.55052   0.62293   0.29570   0.00000  Uiso   1.00
H437   H     0.55056   0.37679   0.29514   0.00000  Uiso   1.00
H438   H     0.44945   0.62321   0.20484   0.00000  Uiso   1.00
N439   N     0.50000   0.61736   0.25000   0.00000  Uiso   1.00
N440   N     0.50000   0.38264   0.25000   0.00000  Uiso   1.00
C441   C     0.56227   0.44243   0.38597   0.00000  Uiso   1.00
C442   C     0.55968   0.39419   0.39560   0.00000  Uiso   1.00
C443   C     0.58847   0.36300   0.37853   0.00000  Uiso   1.00
C444   C     0.61996   0.37969   0.35168   0.00000  Uiso   1.00
C445   C     0.62225   0.42743   0.34126   0.00000  Uiso   1.00
C446   C     0.59314   0.45870   0.35773   0.00000  Uiso   1.00
H447   H     0.53602   0.38102   0.41728   0.00000  Uiso   1.00
H448   H     0.58662   0.65933   0.38649   0.00000  Uiso   1.00
H449   H     0.64256   0.35563   0.33893   0.00000  Uiso   1.00
H450   H     0.64710   0.44026   0.32114   0.00000  Uiso   1.00
H451   H     0.59584   0.49578   0.35036   0.00000  Uiso   1.00
C452   C     0.43778   0.55763   0.11398   0.00000  Uiso   1.00
C453   C     0.40694   0.54147   0.14232   0.00000  Uiso   1.00
C454   C     0.37789   0.57282   0.15876   0.00000  Uiso   1.00
C455   C     0.38019   0.62053   0.14821   0.00000  Uiso   1.00
C456   C     0.41164   0.63709   0.12125   0.00000  Uiso   1.00
C457   C     0.44038   0.60582   0.10421   0.00000  Uiso   1.00
H458   H     0.40422   0.50442   0.14979   0.00000  Uiso   1.00
H459   H     0.35308   0.56009   0.17899   0.00000  Uiso   1.00
H460   H     0.35764   0.64465   0.16095   0.00000  Uiso   1.00
H461   H     0.41350   0.34074   0.11319   0.00000  Uiso   1.00
H462   H     0.46400   0.61891   0.08246   0.00000  Uiso   1.00
F463   F     0.44201   0.54585   0.38067   0.00000  Uiso   1.00
F464   F     0.55797   0.45412   0.11935   0.00000  Uiso   1.00
C465   C     0.38819   0.54312   0.03373   0.00000  Uiso   1.00
C466   C     0.36664   0.58531   0.02626   0.00000  Uiso   1.00
C467   C     0.65933   0.59001   0.04033   0.00000  Uiso   1.00
C468   C     0.63988   0.55264   0.06168   0.00000  Uiso   1.00
C469   C     0.66092   0.51039   0.06867   0.00000  Uiso   1.00
C470   C     0.36799   0.50532   0.05412   0.00000  Uiso   1.00
H471   H     0.38142   0.61456   0.00988   0.00000  Uiso   1.00
H472   H     0.64297   0.62267   0.03477   0.00000  Uiso   1.00
H473   H     0.60850   0.55638   0.07277   0.00000  Uiso   1.00
H474   H     0.64606   0.48160   0.08555   0.00000  Uiso   1.00
H475   H     0.38374   0.47217   0.05924   0.00000  Uiso   1.00
C476   C     0.61177   0.45670   0.46630   0.00000  Uiso   1.00
C477   C     0.63208   0.49449   0.44601   0.00000  Uiso   1.00
C478   C     0.33914   0.48933   0.43148   0.00000  Uiso   1.00
C479   C     0.36010   0.44701   0.43841   0.00000  Uiso   1.00
C480   C     0.34054   0.40965   0.45968   0.00000  Uiso   1.00
C481   C     0.63323   0.41443   0.47372   0.00000  Uiso   1.00
H482   H     0.61640   0.52770   0.44094   0.00000  Uiso   1.00
H483   H     0.35408   0.51811   0.41465   0.00000  Uiso   1.00
H484   H     0.39148   0.44321   0.42734   0.00000  Uiso   1.00
H485   H     0.35683   0.37692   0.46519   0.00000  Uiso   1.00
H486   H     0.61837   0.38518   0.49003   0.00000  Uiso   1.00
F487   F     0.37414   0.42959   0.20652   0.00000  Uiso   1.00
F488   F     0.62586   0.57042   0.29345   0.00000  Uiso   1.00
F489   F     0.62409   0.43017   0.20547   0.00000  Uiso   1.00
F490   F     0.37591   0.56984   0.29450   0.00000  Uiso   1.00
O491   O     0.77321   0.53958   0.24999   0.00000  Uiso   1.00
O492   O     0.89345   0.46042   0.25000   0.00000  Uiso   1.00
O493   O     0.89345   0.53958   0.25000   0.00000  Uiso   1.00
O494   O     0.77321   0.46042   0.24999   0.00000  Uiso   1.00
C495   C     0.75407   0.49993   0.25040   0.00000  Uiso   1.00
C496   C     0.91260   0.50007   0.24960   0.00000  Uiso   1.00
O497   O     0.83332   0.53960   0.18513   0.00000  Uiso   1.00
O498   O     0.83334   0.46040   0.31487   0.00000  Uiso   1.00
O499   O     0.83334   0.53960   0.31487   0.00000  Uiso   1.00
O500   O     0.83332   0.46040   0.18513   0.00000  Uiso   1.00
C501   C     0.83146   0.50017   0.16445   0.00000  Uiso   1.00
C502   C     0.83521   0.49982   0.33555   0.00000  Uiso   1.00
Cu503  Cu    0.83333   0.54689   0.25000   0.00000  Uiso   1.00
Cu504  Cu    0.83333   0.45311   0.25000   0.00000  Uiso   1.00
C505   C     0.86784   0.47575   0.40857   0.00000  Uiso   1.00
C506   C     0.79882   0.52422   0.09143   0.00000  Uiso   1.00
C507   C     0.83673   0.49984   0.38389   0.00000  Uiso   1.00
C508   C     0.82994   0.50015   0.11612   0.00000  Uiso   1.00
C509   C     0.80550   0.52391   0.40521   0.00000  Uiso   1.00
C510   C     0.86116   0.47605   0.09480   0.00000  Uiso   1.00
C511   C     0.80322   0.52239   0.45119   0.00000  Uiso   1.00
C512   C     0.86343   0.47754   0.04881   0.00000  Uiso   1.00
C513   C     0.83471   0.50041   0.47668   0.00000  Uiso   1.00
C514   C     0.83194   0.49951   0.02332   0.00000  Uiso   1.00
C515   C     0.86901   0.47970   0.45561   0.00000  Uiso   1.00
C516   C     0.79764   0.52023   0.04439   0.00000  Uiso   1.00
C517   C     0.76861   0.54064   0.47167   0.00000  Uiso   1.00
C518   C     0.89803   0.45928   0.02834   0.00000  Uiso   1.00
C519   C     0.76404   0.53696   0.01737   0.00000  Uiso   1.00
C520   C     0.90260   0.46293   0.48264   0.00000  Uiso   1.00
H521   H     0.74349   0.55513   0.45165   0.00000  Uiso   1.00
H522   H     0.92315   0.44478   0.04837   0.00000  Uiso   1.00
C523   C     0.68759   0.46399   0.22853   0.00000  Uiso   1.00
C524   C     0.97907   0.53602   0.27144   0.00000  Uiso   1.00
C525   C     0.97820   0.46438   0.22782   0.00000  Uiso   1.00
C526   C     0.68847   0.53563   0.27215   0.00000  Uiso   1.00
C527   C     0.95718   0.50032   0.24936   0.00000  Uiso   1.00
C528   C     0.70948   0.49968   0.25062   0.00000  Uiso   1.00
C529   C     0.80526   0.35827   0.22467   0.00000  Uiso   1.00
C530   C     0.86141   0.64173   0.27533   0.00000  Uiso   1.00
C531   C     0.86142   0.35803   0.27522   0.00000  Uiso   1.00
C532   C     0.80525   0.64197   0.22478   0.00000  Uiso   1.00
H533   H     0.78282   0.37707   0.20429   0.00000  Uiso   1.00
H534   H     0.88385   0.62293   0.29570   0.00000  Uiso   1.00
H535   H     0.88389   0.37679   0.29514   0.00000  Uiso   1.00
H536   H     0.78278   0.62321   0.20484   0.00000  Uiso   1.00
N537   N     0.83333   0.61736   0.25000   0.00000  Uiso   1.00
N538   N     0.83333   0.38264   0.25000   0.00000  Uiso   1.00
C539   C     0.89560   0.44243   0.38597   0.00000  Uiso   1.00
C540   C     0.89301   0.39419   0.39560   0.00000  Uiso   1.00
C541   C     0.92180   0.36300   0.37853   0.00000  Uiso   1.00
C542   C     0.95330   0.37969   0.35168   0.00000  Uiso   1.00
C543   C     0.95558   0.42743   0.34126   0.00000  Uiso   1.00
C544   C     0.92647   0.45870   0.35773   0.00000  Uiso   1.00
H545   H     0.86936   0.38102   0.41728   0.00000  Uiso   1.00
H546   H     0.91996   0.65933   0.38649   0.00000  Uiso   1.00
H547   H     0.97590   0.35563   0.33893   0.00000  Uiso   1.00
H548   H     0.98043   0.44026   0.32114   0.00000  Uiso   1.00
H549   H     0.92918   0.49578   0.35036   0.00000  Uiso   1.00
C550   C     0.77111   0.55763   0.11398   0.00000  Uiso   1.00
C551   C     0.74027   0.54147   0.14232   0.00000  Uiso   1.00
C552   C     0.71122   0.57282   0.15876   0.00000  Uiso   1.00
C553   C     0.71352   0.62053   0.14821   0.00000  Uiso   1.00
C554   C     0.74497   0.63709   0.12125   0.00000  Uiso   1.00
C555   C     0.77371   0.60582   0.10421   0.00000  Uiso   1.00
H556   H     0.73755   0.50442   0.14979   0.00000  Uiso   1.00
H557   H     0.68641   0.56009   0.17899   0.00000  Uiso   1.00
H558   H     0.69097   0.64465   0.16095   0.00000  Uiso   1.00
H559   H     0.74683   0.34074   0.11319   0.00000  Uiso   1.00
H560   H     0.79733   0.61891   0.08246   0.00000  Uiso   1.00
F561   F     0.77535   0.54585   0.38067   0.00000  Uiso   1.00
F562   F     0.89131   0.45412   0.11935   0.00000  Uiso   1.00
C563   C     0.72153   0.54312   0.03373   0.00000  Uiso   1.00
C564   C     0.69998   0.58531   0.02626   0.00000  Uiso   1.00
C565   C     0.99267   0.59001   0.04033   0.00000  Uiso   1.00
C566   C     0.97321   0.55264   0.06168   0.00000  Uiso   1.00
C567   C     0.99426   0.51039   0.06867   0.00000  Uiso   1.00
C568   C     0.70132   0.50532   0.05412   0.00000  Uiso   1.00
H569   H     0.71476   0.61456   0.00988   0.00000  Uiso   1.00
H570   H     0.97630   0.62267   0.03477   0.00000  Uiso   1.00
H571   H     0.94183   0.55638   0.07277   0.00000  Uiso   1.00
H572   H     0.97939   0.48160   0.08555   0.00000  Uiso   1.00
H573   H     0.71708   0.47217   0.05924   0.00000  Uiso   1.00
C574   C     0.94511   0.45670   0.46630   0.00000  Uiso   1.00
C575   C     0.96541   0.49449   0.44601   0.00000  Uiso   1.00
C576   C     0.67248   0.48933   0.43148   0.00000  Uiso   1.00
C577   C     0.69343   0.44701   0.43841   0.00000  Uiso   1.00
C578   C     0.67388   0.40965   0.45968   0.00000  Uiso   1.00
C579   C     0.96657   0.41443   0.47372   0.00000  Uiso   1.00
H580   H     0.94973   0.52770   0.44094   0.00000  Uiso   1.00
H581   H     0.68741   0.51811   0.41465   0.00000  Uiso   1.00
H582   H     0.72481   0.44321   0.42734   0.00000  Uiso   1.00
H583   H     0.69017   0.37692   0.46519   0.00000  Uiso   1.00
H584   H     0.95170   0.38518   0.49003   0.00000  Uiso   1.00
F585   F     0.70747   0.42959   0.20652   0.00000  Uiso   1.00
F586   F     0.95920   0.57042   0.29345   0.00000  Uiso   1.00
F587   F     0.95742   0.43017   0.20547   0.00000  Uiso   1.00
F588   F     0.70924   0.56984   0.29450   0.00000  Uiso   1.00
O589   O     0.10655   0.87291   0.24999   0.00000  Uiso   1.00
O590   O     0.22679   0.79375   0.25000   0.00000  Uiso   1.00
O591   O     0.22679   0.87291   0.25000   0.00000  Uiso   1.00
O592   O     0.10655   0.79375   0.24999   0.00000  Uiso   1.00
C593   C     0.08740   0.83326   0.25040   0.00000  Uiso   1.00
C594   C     0.24593   0.83341   0.24960   0.00000  Uiso   1.00
O595   O     0.16666   0.87293   0.18513   0.00000  Uiso   1.00
O596   O     0.16668   0.79373   0.31487   0.00000  Uiso   1.00
O597   O     0.16668   0.87293   0.31487   0.00000  Uiso   1.00
O598   O     0.16666   0.79373   0.18513   0.00000  Uiso   1.00
C599   C     0.16479   0.83351   0.16445   0.00000  Uiso   1.00
C600   C     0.16854   0.83316   0.33555   0.00000  Uiso   1.00
Cu601  Cu    0.16667   0.88022   0.25000   0.00000  Uiso   1.00
Cu602  Cu    0.16667   0.78645   0.25000   0.00000  Uiso   1.00
C603   C     0.20118   0.80909   0.40857   0.00000  Uiso   1.00
C604   C     0.13215   0.85755   0.09143   0.00000  Uiso   1.00
C605   C     0.17006   0.83317   0.38389   0.00000  Uiso   1.00
C606   C     0.16327   0.83348   0.11612   0.00000  Uiso   1.00
C607   C     0.13883   0.85725   0.40521   0.00000  Uiso   1.00
C608   C     0.19449   0.80938   0.09480   0.00000  Uiso   1.00
C609   C     0.13655   0.85573   0.45119   0.00000  Uiso   1.00
C610   C     0.19676   0.81087   0.04881   0.00000  Uiso   1.00
C611   C     0.16805   0.83374   0.47668   0.00000  Uiso   1.00
C612   C     0.16527   0.83285   0.02332   0.00000  Uiso   1.00
C613   C     0.20235   0.81303   0.45561   0.00000  Uiso   1.00
C614   C     0.13097   0.85356   0.04439   0.00000  Uiso   1.00
C615   C     0.10195   0.87397   0.47167   0.00000  Uiso   1.00
C616   C     0.23136   0.79261   0.02834   0.00000  Uiso   1.00
C617   C     0.09737   0.87029   0.01737   0.00000  Uiso   1.00
C618   C     0.23593   0.79627   0.48264   0.00000  Uiso   1.00
H619   H     0.07682   0.88846   0.45165   0.00000  Uiso   1.00
H620   H     0.25648   0.77812   0.04837   0.00000  Uiso   1.00
C621   C     0.02093   0.79732   0.22853   0.00000  Uiso   1.00
C622   C     0.31241   0.86936   0.27144   0.00000  Uiso   1.00
C623   C     0.31153   0.79771   0.22782   0.00000  Uiso   1.00
C624   C     0.02180   0.86896   0.27215   0.00000  Uiso   1.00
C625   C     0.29052   0.83366   0.24936   0.00000  Uiso   1.00
C626   C     0.04282   0.83302   0.25062   0.00000  Uiso   1.00
C627   C     0.13859   0.69161   0.22467   0.00000  Uiso   1.00
C628   C     0.19474   0.97506   0.27533   0.00000  Uiso   1.00
C629   C     0.19476   0.69136   0.27522   0.00000  Uiso   1.00
C630   C     0.13858   0.97530   0.22478   0.00000  Uiso   1.00
H631   H     0.11615   0.71041   0.20429   0.00000  Uiso   1.00
H632   H     0.21719   0.95626   0.29570   0.00000  Uiso   1.00
H633   H     0.21723   0.71012   0.29514   0.00000  Uiso   1.00
H634   H     0.11612   0.95654   0.20484   0.00000  Uiso   1.00
N635   N     0.16667   0.95069   0.25000   0.00000  Uiso   1.00
N636   N     0.16667   0.71598   0.25000   0.00000  Uiso   1.00
C637   C     0.22893   0.77576   0.38597   0.00000  Uiso   1.00
C638   C     0.22634   0.72753   0.39560   0.00000  Uiso   1.00
C639   C     0.25514   0.69634   0.37853   0.00000  Uiso   1.00
C640   C     0.28663   0.71302   0.35168   0.00000  Uiso   1.00
C641   C     0.28891   0.76076   0.34126   0.00000  Uiso   1.00
C642   C     0.25980   0.79203   0.35773   0.00000  Uiso   1.00
H643   H     0.20269   0.71436   0.41728   0.00000  Uiso   1.00
H644   H     0.25329   0.99266   0.38649   0.00000  Uiso   1.00
H645   H     0.30923   0.68896   0.33893   0.00000  Uiso   1.00
H646   H     0.31377   0.77359   0.32114   0.00000  Uiso   1.00
H647   H     0.26251   0.82911   0.35036   0.00000  Uiso   1.00
C648   C     0.10444   0.89096   0.11398   0.00000  Uiso   1.00
C649   C     0.07360   0.87481   0.14232   0.00000  Uiso   1.00
C650   C     0.04455   0.90616   0.15876   0.00000  Uiso   1.00
C651   C     0.04685   0.95386   0.14821   0.00000  Uiso   1.00
C652   C     0.07830   0.97043   0.12125   0.00000  Uiso   1.00
C653   C     0.10704   0.93916   0.10421   0.00000  Uiso   1.00
H654   H     0.07088   0.83776   0.14979   0.00000  Uiso   1.00
H655   H     0.01974   0.89342   0.17899   0.00000  Uiso   1.00
H656   H     0.02430   0.97798   0.16095   0.00000  Uiso   1.00
H657   H     0.08016   0.67407   0.11319   0.00000  Uiso   1.00
H658   H     0.13067   0.95224   0.08246   0.00000  Uiso   1.00
F659   F     0.10868   0.87918   0.38067   0.00000  Uiso   1.00
F660   F     0.22464   0.78745   0.11935   0.00000  Uiso   1.00
C661   C     0.05486   0.87645   0.03373   0.00000  Uiso   1.00
C662   C     0.03331   0.91864   0.02626   0.00000  Uiso   1.00
C663   C     0.32600   0.92334   0.04033   0.00000  Uiso   1.00
C664   C     0.30654   0.88597   0.06168   0.00000  Uiso   1.00
C665   C     0.32759   0.84373   0.06867   0.00000  Uiso   1.00
C666   C     0.03466   0.83865   0.05412   0.00000  Uiso   1.00
H667   H     0.04809   0.94790   0.00988   0.00000  Uiso   1.00
H668   H     0.30964   0.95601   0.03477   0.00000  Uiso   1.00
H669   H     0.27516   0.88971   0.07277   0.00000  Uiso   1.00
H670   H     0.31272   0.81494   0.08555   0.00000  Uiso   1.00
H671   H     0.05041   0.80550   0.05924   0.00000  Uiso   1.00
C672   C     0.27844   0.79003   0.46630   0.00000  Uiso   1.00
C673   C     0.29874   0.82782   0.44601   0.00000  Uiso   1.00
C674   C     0.00581   0.82266   0.43148   0.00000  Uiso   1.00
C675   C     0.02677   0.78034   0.43841   0.00000  Uiso   1.00
C676   C     0.00721   0.74298   0.45968   0.00000  Uiso   1.00
C677   C     0.29990   0.74776   0.47372   0.00000  Uiso   1.00
H678   H     0.28306   0.86103   0.44094   0.00000  Uiso   1.00
H679   H     0.02075   0.85144   0.41465   0.00000  Uiso   1.00
H680   H     0.05815   0.77654   0.42734   0.00000  Uiso   1.00
H681   H     0.02350   0.71025   0.46519   0.00000  Uiso   1.00
H682   H     0.28504   0.71851   0.49003   0.00000  Uiso   1.00
F683   F     0.04080   0.76293   0.20652   0.00000  Uiso   1.00
F684   F     0.29253   0.90376   0.29345   0.00000  Uiso   1.00
F685   F     0.29076   0.76350   0.20547   0.00000  Uiso   1.00
F686   F     0.04258   0.90317   0.29450   0.00000  Uiso   1.00
O687   O     0.43988   0.87291   0.24999   0.00000  Uiso   1.00
O688   O     0.56012   0.79375   0.25000   0.00000  Uiso   1.00
O689   O     0.56012   0.87291   0.25000   0.00000  Uiso   1.00
O690   O     0.43988   0.79375   0.24999   0.00000  Uiso   1.00
C691   C     0.42073   0.83326   0.25040   0.00000  Uiso   1.00
C692   C     0.57927   0.83341   0.24960   0.00000  Uiso   1.00
O693   O     0.49999   0.87293   0.18513   0.00000  Uiso   1.00
O694   O     0.50001   0.79373   0.31487   0.00000  Uiso   1.00
O695   O     0.50001   0.87293   0.31487   0.00000  Uiso   1.00
O696   O     0.49999   0.79373   0.18513   0.00000  Uiso   1.00
C697   C     0.49813   0.83351   0.16445   0.00000  Uiso   1.00
C698   C     0.50187   0.83316   0.33555   0.00000  Uiso   1.00
Cu699  Cu    0.50000   0.88022   0.25000   0.00000  Uiso   1.00
Cu700  Cu    0.50000   0.78645   0.25000   0.00000  Uiso   1.00
C701   C     0.53451   0.80909   0.40857   0.00000  Uiso   1.00
C702   C     0.46549   0.85755   0.09143   0.00000  Uiso   1.00
C703   C     0.50339   0.83317   0.38389   0.00000  Uiso   1.00
C704   C     0.49661   0.83348   0.11612   0.00000  Uiso   1.00
C705   C     0.47217   0.85725   0.40521   0.00000  Uiso   1.00
C706   C     0.52782   0.80938   0.09480   0.00000  Uiso   1.00
C707   C     0.46989   0.85573   0.45119   0.00000  Uiso   1.00
C708   C     0.53010   0.81087   0.04881   0.00000  Uiso   1.00
C709   C     0.50138   0.83374   0.47668   0.00000  Uiso   1.00
C710   C     0.49860   0.83285   0.02332   0.00000  Uiso   1.00
C711   C     0.53568   0.81303   0.45561   0.00000  Uiso   1.00
C712   C     0.46431   0.85356   0.04439   0.00000  Uiso   1.00
C713   C     0.43528   0.87397   0.47167   0.00000  Uiso   1.00
C714   C     0.56469   0.79261   0.02834   0.00000  Uiso   1.00
C715   C     0.43071   0.87029   0.01737   0.00000  Uiso   1.00
C716   C     0.56927   0.79627   0.48264   0.00000  Uiso   1.00
H717   H     0.41016   0.88846   0.45165   0.00000  Uiso   1.00
H718   H     0.58982   0.77812   0.04837   0.00000  Uiso   1.00
C719   C     0.35426   0.79732   0.22853   0.00000  Uiso   1.00
C720   C     0.64574   0.86936   0.27144   0.00000  Uiso   1.00
C721   C     0.64486   0.79771   0.22782   0.00000  Uiso   1.00
C722   C     0.35513   0.86896   0.27215   0.00000  Uiso   1.00
C723   C     0.62385   0.83366   0.24936   0.00000  Uiso   1.00
C724   C     0.37615   0.83302   0.25062   0.00000  Uiso   1.00
C725   C     0.47193   0.69161   0.22467   0.00000  Uiso   1.00
C726   C     0.52807   0.97506   0.27533   0.00000  Uiso   1.00
C727   C     0.52809   0.69136   0.27522   0.00000  Uiso   1.00
C728   C     0.47191   0.97530   0.22478   0.00000  Uiso   1.00
H729   H     0.44948   0.71041   0.20429   0.00000  Uiso   1.00
H730   H     0.55052   0.95626   0.29570   0.00000  Uiso   1.00
H731   H     0.55056   0.71012   0.29514   0.00000  Uiso   1.00
H732   H     0.44945   0.95654   0.20484   0.00000  Uiso   1.00
N733   N     0.50000   0.95069   0.25000   0.00000  Uiso   1.00
N734   N     0.50000   0.71598   0.25000   0.00000  Uiso   1.00
C735   C     0.56227   0.77576   0.38597   0.00000  Uiso   1.00
C736   C     0.55968   0.72753   0.39560   0.00000  Uiso   1.00
C737   C     0.58847   0.69634   0.37853   0.00000  Uiso   1.00
C738   C     0.61996   0.71302   0.35168   0.00000  Uiso   1.00
C739   C     0.62225   0.76076   0.34126   0.00000  Uiso   1.00
C740   C     0.59314   0.79203   0.35773   0.00000  Uiso   1.00
H741   H     0.53602   0.71436   0.41728   0.00000  Uiso   1.00
H742   H     0.58662   0.99266   0.38649   0.00000  Uiso   1.00
H743   H     0.64256   0.68896   0.33893   0.00000  Uiso   1.00
H744   H     0.64710   0.77359   0.32114   0.00000  Uiso   1.00
H745   H     0.59584   0.82911   0.35036   0.00000  Uiso   1.00
C746   C     0.43778   0.89096   0.11398   0.00000  Uiso   1.00
C747   C     0.40694   0.87481   0.14232   0.00000  Uiso   1.00
C748   C     0.37789   0.90616   0.15876   0.00000  Uiso   1.00
C749   C     0.38019   0.95386   0.14821   0.00000  Uiso   1.00
C750   C     0.41164   0.97043   0.12125   0.00000  Uiso   1.00
C751   C     0.44038   0.93916   0.10421   0.00000  Uiso   1.00
H752   H     0.40422   0.83776   0.14979   0.00000  Uiso   1.00
H753   H     0.35308   0.89342   0.17899   0.00000  Uiso   1.00
H754   H     0.35764   0.97798   0.16095   0.00000  Uiso   1.00
H755   H     0.41350   0.67407   0.11319   0.00000  Uiso   1.00
H756   H     0.46400   0.95224   0.08246   0.00000  Uiso   1.00
F757   F     0.44201   0.87918   0.38067   0.00000  Uiso   1.00
F758   F     0.55797   0.78745   0.11935   0.00000  Uiso   1.00
C759   C     0.38819   0.87645   0.03373   0.00000  Uiso   1.00
C760   C     0.36664   0.91864   0.02626   0.00000  Uiso   1.00
C761   C     0.65933   0.92334   0.04033   0.00000  Uiso   1.00
C762   C     0.63988   0.88597   0.06168   0.00000  Uiso   1.00
C763   C     0.66092   0.84373   0.06867   0.00000  Uiso   1.00
C764   C     0.36799   0.83865   0.05412   0.00000  Uiso   1.00
H765   H     0.38142   0.94790   0.00988   0.00000  Uiso   1.00
H766   H     0.64297   0.95601   0.03477   0.00000  Uiso   1.00
H767   H     0.60850   0.88971   0.07277   0.00000  Uiso   1.00
H768   H     0.64606   0.81494   0.08555   0.00000  Uiso   1.00
H769   H     0.38374   0.80550   0.05924   0.00000  Uiso   1.00
C770   C     0.61177   0.79003   0.46630   0.00000  Uiso   1.00
C771   C     0.63208   0.82782   0.44601   0.00000  Uiso   1.00
C772   C     0.33914   0.82266   0.43148   0.00000  Uiso   1.00
C773   C     0.36010   0.78034   0.43841   0.00000  Uiso   1.00
C774   C     0.34054   0.74298   0.45968   0.00000  Uiso   1.00
C775   C     0.63323   0.74776   0.47372   0.00000  Uiso   1.00
H776   H     0.61640   0.86103   0.44094   0.00000  Uiso   1.00
H777   H     0.35408   0.85144   0.41465   0.00000  Uiso   1.00
H778   H     0.39148   0.77654   0.42734   0.00000  Uiso   1.00
H779   H     0.35683   0.71025   0.46519   0.00000  Uiso   1.00
H780   H     0.61837   0.71851   0.49003   0.00000  Uiso   1.00
F781   F     0.37414   0.76293   0.20652   0.00000  Uiso   1.00
F782   F     0.62586   0.90376   0.29345   0.00000  Uiso   1.00
F783   F     0.62409   0.76350   0.20547   0.00000  Uiso   1.00
F784   F     0.37591   0.90317   0.29450   0.00000  Uiso   1.00
O785   O     0.77321   0.87291   0.24999   0.00000  Uiso   1.00
O786   O     0.89345   0.79375   0.25000   0.00000  Uiso   1.00
O787   O     0.89345   0.87291   0.25000   0.00000  Uiso   1.00
O788   O     0.77321   0.79375   0.24999   0.00000  Uiso   1.00
C789   C     0.75407   0.83326   0.25040   0.00000  Uiso   1.00
C790   C     0.91260   0.83341   0.24960   0.00000  Uiso   1.00
O791   O     0.83332   0.87293   0.18513   0.00000  Uiso   1.00
O792   O     0.83334   0.79373   0.31487   0.00000  Uiso   1.00
O793   O     0.83334   0.87293   0.31487   0.00000  Uiso   1.00
O794   O     0.83332   0.79373   0.18513   0.00000  Uiso   1.00
C795   C     0.83146   0.83351   0.16445   0.00000  Uiso   1.00
C796   C     0.83521   0.83316   0.33555   0.00000  Uiso   1.00
Cu797  Cu    0.83333   0.88022   0.25000   0.00000  Uiso   1.00
Cu798  Cu    0.83333   0.78645   0.25000   0.00000  Uiso   1.00
C799   C     0.86784   0.80909   0.40857   0.00000  Uiso   1.00
C800   C     0.79882   0.85755   0.09143   0.00000  Uiso   1.00
C801   C     0.83673   0.83317   0.38389   0.00000  Uiso   1.00
C802   C     0.82994   0.83348   0.11612   0.00000  Uiso   1.00
C803   C     0.80550   0.85725   0.40521   0.00000  Uiso   1.00
C804   C     0.86116   0.80938   0.09480   0.00000  Uiso   1.00
C805   C     0.80322   0.85573   0.45119   0.00000  Uiso   1.00
C806   C     0.86343   0.81087   0.04881   0.00000  Uiso   1.00
C807   C     0.83471   0.83374   0.47668   0.00000  Uiso   1.00
C808   C     0.83194   0.83285   0.02332   0.00000  Uiso   1.00
C809   C     0.86901   0.81303   0.45561   0.00000  Uiso   1.00
C810   C     0.79764   0.85356   0.04439   0.00000  Uiso   1.00
C811   C     0.76861   0.87397   0.47167   0.00000  Uiso   1.00
C812   C     0.89803   0.79261   0.02834   0.00000  Uiso   1.00
C813   C     0.76404   0.87029   0.01737   0.00000  Uiso   1.00
C814   C     0.90260   0.79627   0.48264   0.00000  Uiso   1.00
H815   H     0.74349   0.88846   0.45165   0.00000  Uiso   1.00
H816   H     0.92315   0.77812   0.04837   0.00000  Uiso   1.00
C817   C     0.68759   0.79732   0.22853   0.00000  Uiso   1.00
C818   C     0.97907   0.86936   0.27144   0.00000  Uiso   1.00
C819   C     0.97820   0.79771   0.22782   0.00000  Uiso   1.00
C820   C     0.68847   0.86896   0.27215   0.00000  Uiso   1.00
C821   C     0.95718   0.83366   0.24936   0.00000  Uiso   1.00
C822   C     0.70948   0.83302   0.25062   0.00000  Uiso   1.00
C823   C     0.80526   0.69161   0.22467   0.00000  Uiso   1.00
C824   C     0.86141   0.97506   0.27533   0.00000  Uiso   1.00
C825   C     0.86142   0.69136   0.27522   0.00000  Uiso   1.00
C826   C     0.80525   0.97530   0.22478   0.00000  Uiso   1.00
H827   H     0.78282   0.71041   0.20429   0.00000  Uiso   1.00
H828   H     0.88385   0.95626   0.29570   0.00000  Uiso   1.00
H829   H     0.88389   0.71012   0.29514   0.00000  Uiso   1.00
H830   H     0.78278   0.95654   0.20484   0.00000  Uiso   1.00
N831   N     0.83333   0.95069   0.25000   0.00000  Uiso   1.00
N832   N     0.83333   0.71598   0.25000   0.00000  Uiso   1.00
C833   C     0.89560   0.77576   0.38597   0.00000  Uiso   1.00
C834   C     0.89301   0.72753   0.39560   0.00000  Uiso   1.00
C835   C     0.92180   0.69634   0.37853   0.00000  Uiso   1.00
C836   C     0.95330   0.71302   0.35168   0.00000  Uiso   1.00
C837   C     0.95558   0.76076   0.34126   0.00000  Uiso   1.00
C838   C     0.92647   0.79203   0.35773   0.00000  Uiso   1.00
H839   H     0.86936   0.71436   0.41728   0.00000  Uiso   1.00
H840   H     0.91996   0.99266   0.38649   0.00000  Uiso   1.00
H841   H     0.97590   0.68896   0.33893   0.00000  Uiso   1.00
H842   H     0.98043   0.77359   0.32114   0.00000  Uiso   1.00
H843   H     0.92918   0.82911   0.35036   0.00000  Uiso   1.00
C844   C     0.77111   0.89096   0.11398   0.00000  Uiso   1.00
C845   C     0.74027   0.87481   0.14232   0.00000  Uiso   1.00
C846   C     0.71122   0.90616   0.15876   0.00000  Uiso   1.00
C847   C     0.71352   0.95386   0.14821   0.00000  Uiso   1.00
C848   C     0.74497   0.97043   0.12125   0.00000  Uiso   1.00
C849   C     0.77371   0.93916   0.10421   0.00000  Uiso   1.00
H850   H     0.73755   0.83776   0.14979   0.00000  Uiso   1.00
H851   H     0.68641   0.89342   0.17899   0.00000  Uiso   1.00
H852   H     0.69097   0.97798   0.16095   0.00000  Uiso   1.00
H853   H     0.74683   0.67407   0.11319   0.00000  Uiso   1.00
H854   H     0.79733   0.95224   0.08246   0.00000  Uiso   1.00
F855   F     0.77535   0.87918   0.38067   0.00000  Uiso   1.00
F856   F     0.89131   0.78745   0.11935   0.00000  Uiso   1.00
C857   C     0.72153   0.87645   0.03373   0.00000  Uiso   1.00
C858   C     0.69998   0.91864   0.02626   0.00000  Uiso   1.00
C859   C     0.99267   0.92334   0.04033   0.00000  Uiso   1.00
C860   C     0.97321   0.88597   0.06168   0.00000  Uiso   1.00
C861   C     0.99426   0.84373   0.06867   0.00000  Uiso   1.00
C862   C     0.70132   0.83865   0.05412   0.00000  Uiso   1.00
H863   H     0.71476   0.94790   0.00988   0.00000  Uiso   1.00
H864   H     0.97630   0.95601   0.03477   0.00000  Uiso   1.00
H865   H     0.94183   0.88971   0.07277   0.00000  Uiso   1.00
H866   H     0.97939   0.81494   0.08555   0.00000  Uiso   1.00
H867   H     0.71708   0.80550   0.05924   0.00000  Uiso   1.00
C868   C     0.94511   0.79003   0.46630   0.00000  Uiso   1.00
C869   C     0.96541   0.82782   0.44601   0.00000  Uiso   1.00
C870   C     0.67248   0.82266   0.43148   0.00000  Uiso   1.00
C871   C     0.69343   0.78034   0.43841   0.00000  Uiso   1.00
C872   C     0.67388   0.74298   0.45968   0.00000  Uiso   1.00
C873   C     0.96657   0.74776   0.47372   0.00000  Uiso   1.00
H874   H     0.94973   0.86103   0.44094   0.00000  Uiso   1.00
H875   H     0.68741   0.85144   0.41465   0.00000  Uiso   1.00
H876   H     0.72481   0.77654   0.42734   0.00000  Uiso   1.00
H877   H     0.69017   0.71025   0.46519   0.00000  Uiso   1.00
H878   H     0.95170   0.71851   0.49003   0.00000  Uiso   1.00
F879   F     0.70747   0.76293   0.20652   0.00000  Uiso   1.00
F880   F     0.95920   0.90376   0.29345   0.00000  Uiso   1.00
F881   F     0.95742   0.76350   0.20547   0.00000  Uiso   1.00
F882   F     0.70924   0.90317   0.29450   0.00000  Uiso   1.00
O883   O     0.10655   0.20625   0.74999   0.00000  Uiso   1.00
O884   O     0.22679   0.12709   0.75000   0.00000  Uiso   1.00
O885   O     0.22679   0.20625   0.75000   0.00000  Uiso   1.00
O886   O     0.10655   0.12709   0.74999   0.00000  Uiso   1.00
C887   C     0.08740   0.16659   0.75040   0.00000  Uiso   1.00
C888   C     0.24593   0.16674   0.74960   0.00000  Uiso   1.00
O889   O     0.16666   0.20627   0.68513   0.00000  Uiso   1.00
O890   O     0.16668   0.12707   0.81487   0.00000  Uiso   1.00
O891   O     0.16668   0.20627   0.81487   0.00000  Uiso   1.00
O892   O     0.16666   0.12707   0.68513   0.00000  Uiso   1.00
C893   C     0.16479   0.16684   0.66445   0.00000  Uiso   1.00
C894   C     0.16854   0.16649   0.83555   0.00000  Uiso   1.00
Cu895  Cu    0.16667   0.21355   0.75000   0.00000  Uiso   1.00
Cu896  Cu    0.16667   0.11978   0.75000   0.00000  Uiso   1.00
C897   C     0.20118   0.14242   0.90857   0.00000  Uiso   1.00
C898   C     0.13215   0.19089   0.59143   0.00000  Uiso   1.00
C899   C     0.17006   0.16651   0.88389   0.00000  Uiso   1.00
C900   C     0.16327   0.16681   0.61612   0.00000  Uiso   1.00
C901   C     0.13883   0.19058   0.90521   0.00000  Uiso   1.00
C902   C     0.19449   0.14271   0.59480   0.00000  Uiso   1.00
C903   C     0.13655   0.18906   0.95119   0.00000  Uiso   1.00
C904   C     0.19676   0.14421   0.54881   0.00000  Uiso   1.00
C905   C     0.16805   0.16707   0.97668   0.00000  Uiso   1.00
C906   C     0.16527   0.16618   0.52332   0.00000  Uiso   1.00
C907   C     0.20235   0.14636   0.95561   0.00000  Uiso   1.00
C908   C     0.13097   0.18689   0.54439   0.00000  Uiso   1.00
C909   C     0.10195   0.20730   0.97167   0.00000  Uiso   1.00
C910   C     0.23136   0.12594   0.52834   0.00000  Uiso   1.00
C911   C     0.09737   0.20362   0.51737   0.00000  Uiso   1.00
C912   C     0.23593   0.12960   0.98264   0.00000  Uiso   1.00
H913   H     0.07682   0.22180   0.95165   0.00000  Uiso   1.00
H914   H     0.25648   0.11145   0.54837   0.00000  Uiso   1.00
C915   C     0.02093   0.13066   0.72853   0.00000  Uiso   1.00
C916   C     0.31241   0.20269   0.77144   0.00000  Uiso   1.00
C917   C     0.31153   0.13105   0.72782   0.00000  Uiso   1.00
C918   C     0.02180   0.20229   0.77215   0.00000  Uiso   1.00
C919   C     0.29052   0.16699   0.74936   0.00000  Uiso   1.00
C920   C     0.04282   0.16635   0.75062   0.00000  Uiso   1.00
C921   C     0.13859   0.02494   0.72467   0.00000  Uiso   1.00
C922   C     0.19474   0.30839   0.77533   0.00000  Uiso   1.00
C923   C     0.19476   0.02470   0.77522   0.00000  Uiso   1.00
C924   C     0.13858   0.30864   0.72478   0.00000  Uiso   1.00
H925   H     0.11615   0.04374   0.70429   0.00000  Uiso   1.00
H926   H     0.21719   0.28959   0.79570   0.00000  Uiso   1.00
H927   H     0.21723   0.04346   0.79514   0.00000  Uiso   1.00
H928   H     0.11612   0.28988   0.70484   0.00000  Uiso   1.00
N929   N     0.16667   0.28402   0.75000   0.00000  Uiso   1.00
N930   N     0.16667   0.04931   0.75000   0.00000  Uiso   1.00
C931   C     0.22893   0.10909   0.88597   0.00000  Uiso   1.00
C932   C     0.22634   0.06086   0.89560   0.00000  Uiso   1.00
C933   C     0.25514   0.02967   0.87853   0.00000  Uiso   1.00
C934   C     0.28663   0.04635   0.85168   0.00000  Uiso   1.00
C935   C     0.28891   0.09410   0.84126   0.00000  Uiso   1.00
C936   C     0.25980   0.12536   0.85773   0.00000  Uiso   1.00
H937   H     0.20269   0.04769   0.91728   0.00000  Uiso   1.00
H938   H     0.25329   0.32600   0.88649   0.00000  Uiso   1.00
H939   H     0.30923   0.02230   0.83893   0.00000  Uiso   1.00
H940   H     0.31377   0.10693   0.82114   0.00000  Uiso   1.00
H941   H     0.26251   0.16244   0.85036   0.00000  Uiso   1.00
C942   C     0.10444   0.22430   0.61398   0.00000  Uiso   1.00
C943   C     0.07360   0.20814   0.64232   0.00000  Uiso   1.00
C944   C     0.04455   0.23949   0.65876   0.00000  Uiso   1.00
C945   C     0.04685   0.28720   0.64821   0.00000  Uiso   1.00
C946   C     0.07830   0.30376   0.62125   0.00000  Uiso   1.00
C947   C     0.10704   0.27249   0.60421   0.00000  Uiso   1.00
H948   H     0.07088   0.17109   0.64979   0.00000  Uiso   1.00
H949   H     0.01974   0.22676   0.67899   0.00000  Uiso   1.00
H950   H     0.02430   0.31132   0.66095   0.00000  Uiso   1.00
H951   H     0.08016   0.00740   0.61319   0.00000  Uiso   1.00
H952   H     0.13067   0.28557   0.58246   0.00000  Uiso   1.00
F953   F     0.10868   0.21252   0.88067   0.00000  Uiso   1.00
F954   F     0.22464   0.12079   0.61935   0.00000  Uiso   1.00
C955   C     0.05486   0.20978   0.53373   0.00000  Uiso   1.00
C956   C     0.03331   0.25197   0.52626   0.00000  Uiso   1.00
C957   C     0.32600   0.25668   0.54033   0.00000  Uiso   1.00
C958   C     0.30654   0.21931   0.56168   0.00000  Uiso   1.00
C959   C     0.32759   0.17706   0.56867   0.00000  Uiso   1.00
C960   C     0.03466   0.17198   0.55412   0.00000  Uiso   1.00
H961   H     0.04809   0.28123   0.50988   0.00000  Uiso   1.00
H962   H     0.30964   0.28934   0.53477   0.00000  Uiso   1.00
H963   H     0.27516   0.22305   0.57277   0.00000  Uiso   1.00
H964   H     0.31272   0.14827   0.58555   0.00000  Uiso   1.00
H965   H     0.05041   0.13883   0.55924   0.00000  Uiso   1.00
C966   C     0.27844   0.12336   0.96630   0.00000  Uiso   1.00
C967   C     0.29874   0.16116   0.94601   0.00000  Uiso   1.00
C968   C     0.00581   0.15599   0.93148   0.00000  Uiso   1.00
C969   C     0.02677   0.11368   0.93841   0.00000  Uiso   1.00
C970   C     0.00721   0.07631   0.95968   0.00000  Uiso   1.00
C971   C     0.29990   0.08109   0.97372   0.00000  Uiso   1.00
H972   H     0.28306   0.19437   0.94094   0.00000  Uiso   1.00
H973   H     0.02075   0.18478   0.91465   0.00000  Uiso   1.00
H974   H     0.05815   0.10987   0.92734   0.00000  Uiso   1.00
H975   H     0.02350   0.04359   0.96519   0.00000  Uiso   1.00
H976   H     0.28504   0.05184   0.99003   0.00000  Uiso   1.00
F977   F     0.04080   0.09626   0.70652   0.00000  Uiso   1.00
F978   F     0.29253   0.23709   0.79345   0.00000  Uiso   1.00
F979   F     0.29076   0.09683   0.70547   0.00000  Uiso   1.00
F980   F     0.04258   0.23650   0.79450   0.00000  Uiso   1.00
O981   O     0.43988   0.20625   0.74999   0.00000  Uiso   1.00
O982   O     0.56012   0.12709   0.75000   0.00000  Uiso   1.00
O983   O     0.56012   0.20625   0.75000   0.00000  Uiso   1.00
O984   O     0.43988   0.12709   0.74999   0.00000  Uiso   1.00
C985   C     0.42073   0.16659   0.75040   0.00000  Uiso   1.00
C986   C     0.57927   0.16674   0.74960   0.00000  Uiso   1.00
O987   O     0.49999   0.20627   0.68513   0.00000  Uiso   1.00
O988   O     0.50001   0.12707   0.81487   0.00000  Uiso   1.00
O989   O     0.50001   0.20627   0.81487   0.00000  Uiso   1.00
O990   O     0.49999   0.12707   0.68513   0.00000  Uiso   1.00
C991   C     0.49813   0.16684   0.66445   0.00000  Uiso   1.00
C992   C     0.50187   0.16649   0.83555   0.00000  Uiso   1.00
Cu993  Cu    0.50000   0.21355   0.75000   0.00000  Uiso   1.00
Cu994  Cu    0.50000   0.11978   0.75000   0.00000  Uiso   1.00
C995   C     0.53451   0.14242   0.90857   0.00000  Uiso   1.00
C996   C     0.46549   0.19089   0.59143   0.00000  Uiso   1.00
C997   C     0.50339   0.16651   0.88389   0.00000  Uiso   1.00
C998   C     0.49661   0.16681   0.61612   0.00000  Uiso   1.00
C999   C     0.47217   0.19058   0.90521   0.00000  Uiso   1.00
C1000  C     0.52782   0.14271   0.59480   0.00000  Uiso   1.00
C1001  C     0.46989   0.18906   0.95119   0.00000  Uiso   1.00
C1002  C     0.53010   0.14421   0.54881   0.00000  Uiso   1.00
C1003  C     0.50138   0.16707   0.97668   0.00000  Uiso   1.00
C1004  C     0.49860   0.16618   0.52332   0.00000  Uiso   1.00
C1005  C     0.53568   0.14636   0.95561   0.00000  Uiso   1.00
C1006  C     0.46431   0.18689   0.54439   0.00000  Uiso   1.00
C1007  C     0.43528   0.20730   0.97167   0.00000  Uiso   1.00
C1008  C     0.56469   0.12594   0.52834   0.00000  Uiso   1.00
C1009  C     0.43071   0.20362   0.51737   0.00000  Uiso   1.00
C1010  C     0.56927   0.12960   0.98264   0.00000  Uiso   1.00
H1011  H     0.41016   0.22180   0.95165   0.00000  Uiso   1.00
H1012  H     0.58982   0.11145   0.54837   0.00000  Uiso   1.00
C1013  C     0.35426   0.13066   0.72853   0.00000  Uiso   1.00
C1014  C     0.64574   0.20269   0.77144   0.00000  Uiso   1.00
C1015  C     0.64486   0.13105   0.72782   0.00000  Uiso   1.00
C1016  C     0.35513   0.20229   0.77215   0.00000  Uiso   1.00
C1017  C     0.62385   0.16699   0.74936   0.00000  Uiso   1.00
C1018  C     0.37615   0.16635   0.75062   0.00000  Uiso   1.00
C1019  C     0.47193   0.02494   0.72467   0.00000  Uiso   1.00
C1020  C     0.52807   0.30839   0.77533   0.00000  Uiso   1.00
C1021  C     0.52809   0.02470   0.77522   0.00000  Uiso   1.00
C1022  C     0.47191   0.30864   0.72478   0.00000  Uiso   1.00
H1023  H     0.44948   0.04374   0.70429   0.00000  Uiso   1.00
H1024  H     0.55052   0.28959   0.79570   0.00000  Uiso   1.00
H1025  H     0.55056   0.04346   0.79514   0.00000  Uiso   1.00
H1026  H     0.44945   0.28988   0.70484   0.00000  Uiso   1.00
N1027  N     0.50000   0.28402   0.75000   0.00000  Uiso   1.00
N1028  N     0.50000   0.04931   0.75000   0.00000  Uiso   1.00
C1029  C     0.56227   0.10909   0.88597   0.00000  Uiso   1.00
C1030  C     0.55968   0.06086   0.89560   0.00000  Uiso   1.00
C1031  C     0.58847   0.02967   0.87853   0.00000  Uiso   1.00
C1032  C     0.61996   0.04635   0.85168   0.00000  Uiso   1.00
C1033  C     0.62225   0.09410   0.84126   0.00000  Uiso   1.00
C1034  C     0.59314   0.12536   0.85773   0.00000  Uiso   1.00
H1035  H     0.53602   0.04769   0.91728   0.00000  Uiso   1.00
H1036  H     0.58662   0.32600   0.88649   0.00000  Uiso   1.00
H1037  H     0.64256   0.02230   0.83893   0.00000  Uiso   1.00
H1038  H     0.64710   0.10693   0.82114   0.00000  Uiso   1.00
H1039  H     0.59584   0.16244   0.85036   0.00000  Uiso   1.00
C1040  C     0.43778   0.22430   0.61398   0.00000  Uiso   1.00
C1041  C     0.40694   0.20814   0.64232   0.00000  Uiso   1.00
C1042  C     0.37789   0.23949   0.65876   0.00000  Uiso   1.00
C1043  C     0.38019   0.28720   0.64821   0.00000  Uiso   1.00
C1044  C     0.41164   0.30376   0.62125   0.00000  Uiso   1.00
C1045  C     0.44038   0.27249   0.60421   0.00000  Uiso   1.00
H1046  H     0.40422   0.17109   0.64979   0.00000  Uiso   1.00
H1047  H     0.35308   0.22676   0.67899   0.00000  Uiso   1.00
H1048  H     0.35764   0.31132   0.66095   0.00000  Uiso   1.00
H1049  H     0.41350   0.00740   0.61319   0.00000  Uiso   1.00
H1050  H     0.46400   0.28557   0.58246   0.00000  Uiso   1.00
F1051  F     0.44201   0.21252   0.88067   0.00000  Uiso   1.00
F1052  F     0.55797   0.12079   0.61935   0.00000  Uiso   1.00
C1053  C     0.38819   0.20978   0.53373   0.00000  Uiso   1.00
C1054  C     0.36664   0.25197   0.52626   0.00000  Uiso   1.00
C1055  C     0.65933   0.25668   0.54033   0.00000  Uiso   1.00
C1056  C     0.63988   0.21931   0.56168   0.00000  Uiso   1.00
C1057  C     0.66092   0.17706   0.56867   0.00000  Uiso   1.00
C1058  C     0.36799   0.17198   0.55412   0.00000  Uiso   1.00
H1059  H     0.38142   0.28123   0.50988   0.00000  Uiso   1.00
H1060  H     0.64297   0.28934   0.53477   0.00000  Uiso   1.00
H1061  H     0.60850   0.22305   0.57277   0.00000  Uiso   1.00
H1062  H     0.64606   0.14827   0.58555   0.00000  Uiso   1.00
H1063  H     0.38374   0.13883   0.55924   0.00000  Uiso   1.00
C1064  C     0.61177   0.12336   0.96630   0.00000  Uiso   1.00
C1065  C     0.63208   0.16116   0.94601   0.00000  Uiso   1.00
C1066  C     0.33914   0.15599   0.93148   0.00000  Uiso   1.00
C1067  C     0.36010   0.11368   0.93841   0.00000  Uiso   1.00
C1068  C     0.34054   0.07631   0.95968   0.00000  Uiso   1.00
C1069  C     0.63323   0.08109   0.97372   0.00000  Uiso   1.00
H1070  H     0.61640   0.19437   0.94094   0.00000  Uiso   1.00
H1071  H     0.35408   0.18478   0.91465   0.00000  Uiso   1.00
H1072  H     0.39148   0.10987   0.92734   0.00000  Uiso   1.00
H1073  H     0.35683   0.04359   0.96519   0.00000  Uiso   1.00
H1074  H     0.61837   0.05184   0.99003   0.00000  Uiso   1.00
F1075  F     0.37414   0.09626   0.70652   0.00000  Uiso   1.00
F1076  F     0.62586   0.23709   0.79345   0.00000  Uiso   1.00
F1077  F     0.62409   0.09683   0.70547   0.00000  Uiso   1.00
F1078  F     0.37591   0.23650   0.79450   0.00000  Uiso   1.00
O1079  O     0.77321   0.20625   0.74999   0.00000  Uiso   1.00
O1080  O     0.89345   0.12709   0.75000   0.00000  Uiso   1.00
O1081  O     0.89345   0.20625   0.75000   0.00000  Uiso   1.00
O1082  O     0.77321   0.12709   0.74999   0.00000  Uiso   1.00
C1083  C     0.75407   0.16659   0.75040   0.00000  Uiso   1.00
C1084  C     0.91260   0.16674   0.74960   0.00000  Uiso   1.00
O1085  O     0.83332   0.20627   0.68513   0.00000  Uiso   1.00
O1086  O     0.83334   0.12707   0.81487   0.00000  Uiso   1.00
O1087  O     0.83334   0.20627   0.81487   0.00000  Uiso   1.00
O1088  O     0.83332   0.12707   0.68513   0.00000  Uiso   1.00
C1089  C     0.83146   0.16684   0.66445   0.00000  Uiso   1.00
C1090  C     0.83521   0.16649   0.83555   0.00000  Uiso   1.00
Cu1091 Cu    0.83333   0.21355   0.75000   0.00000  Uiso   1.00
Cu1092 Cu    0.83333   0.11978   0.75000   0.00000  Uiso   1.00
C1093  C     0.86784   0.14242   0.90857   0.00000  Uiso   1.00
C1094  C     0.79882   0.19089   0.59143   0.00000  Uiso   1.00
C1095  C     0.83673   0.16651   0.88389   0.00000  Uiso   1.00
C1096  C     0.82994   0.16681   0.61612   0.00000  Uiso   1.00
C1097  C     0.80550   0.19058   0.90521   0.00000  Uiso   1.00
C1098  C     0.86116   0.14271   0.59480   0.00000  Uiso   1.00
C1099  C     0.80322   0.18906   0.95119   0.00000  Uiso   1.00
C1100  C     0.86343   0.14421   0.54881   0.00000  Uiso   1.00
C1101  C     0.83471   0.16707   0.97668   0.00000  Uiso   1.00
C1102  C     0.83194   0.16618   0.52332   0.00000  Uiso   1.00
C1103  C     0.86901   0.14636   0.95561   0.00000  Uiso   1.00
C1104  C     0.79764   0.18689   0.54439   0.00000  Uiso   1.00
C1105  C     0.76861   0.20730   0.97167   0.00000  Uiso   1.00
C1106  C     0.89803   0.12594   0.52834   0.00000  Uiso   1.00
C1107  C     0.76404   0.20362   0.51737   0.00000  Uiso   1.00
C1108  C     0.90260   0.12960   0.98264   0.00000  Uiso   1.00
H1109  H     0.74349   0.22180   0.95165   0.00000  Uiso   1.00
H1110  H     0.92315   0.11145   0.54837   0.00000  Uiso   1.00
C1111  C     0.68759   0.13066   0.72853   0.00000  Uiso   1.00
C1112  C     0.97907   0.20269   0.77144   0.00000  Uiso   1.00
C1113  C     0.97820   0.13105   0.72782   0.00000  Uiso   1.00
C1114  C     0.68847   0.20229   0.77215   0.00000  Uiso   1.00
C1115  C     0.95718   0.16699   0.74936   0.00000  Uiso   1.00
C1116  C     0.70948   0.16635   0.75062   0.00000  Uiso   1.00
C1117  C     0.80526   0.02494   0.72467   0.00000  Uiso   1.00
C1118  C     0.86141   0.30839   0.77533   0.00000  Uiso   1.00
C1119  C     0.86142   0.02470   0.77522   0.00000  Uiso   1.00
C1120  C     0.80525   0.30864   0.72478   0.00000  Uiso   1.00
H1121  H     0.78282   0.04374   0.70429   0.00000  Uiso   1.00
H1122  H     0.88385   0.28959   0.79570   0.00000  Uiso   1.00
H1123  H     0.88389   0.04346   0.79514   0.00000  Uiso   1.00
H1124  H     0.78278   0.28988   0.70484   0.00000  Uiso   1.00
N1125  N     0.83333   0.28402   0.75000   0.00000  Uiso   1.00
N1126  N     0.83333   0.04931   0.75000   0.00000  Uiso   1.00
C1127  C     0.89560   0.10909   0.88597   0.00000  Uiso   1.00
C1128  C     0.89301   0.06086   0.89560   0.00000  Uiso   1.00
C1129  C     0.92180   0.02967   0.87853   0.00000  Uiso   1.00
C1130  C     0.95330   0.04635   0.85168   0.00000  Uiso   1.00
C1131  C     0.95558   0.09410   0.84126   0.00000  Uiso   1.00
C1132  C     0.92647   0.12536   0.85773   0.00000  Uiso   1.00
H1133  H     0.86936   0.04769   0.91728   0.00000  Uiso   1.00
H1134  H     0.91996   0.32600   0.88649   0.00000  Uiso   1.00
H1135  H     0.97590   0.02230   0.83893   0.00000  Uiso   1.00
H1136  H     0.98043   0.10693   0.82114   0.00000  Uiso   1.00
H1137  H     0.92918   0.16244   0.85036   0.00000  Uiso   1.00
C1138  C     0.77111   0.22430   0.61398   0.00000  Uiso   1.00
C1139  C     0.74027   0.20814   0.64232   0.00000  Uiso   1.00
C1140  C     0.71122   0.23949   0.65876   0.00000  Uiso   1.00
C1141  C     0.71352   0.28720   0.64821   0.00000  Uiso   1.00
C1142  C     0.74497   0.30376   0.62125   0.00000  Uiso   1.00
C1143  C     0.77371   0.27249   0.60421   0.00000  Uiso   1.00
H1144  H     0.73755   0.17109   0.64979   0.00000  Uiso   1.00
H1145  H     0.68641   0.22676   0.67899   0.00000  Uiso   1.00
H1146  H     0.69097   0.31132   0.66095   0.00000  Uiso   1.00
H1147  H     0.74683   0.00740   0.61319   0.00000  Uiso   1.00
H1148  H     0.79733   0.28557   0.58246   0.00000  Uiso   1.00
F1149  F     0.77535   0.21252   0.88067   0.00000  Uiso   1.00
F1150  F     0.89131   0.12079   0.61935   0.00000  Uiso   1.00
C1151  C     0.72153   0.20978   0.53373   0.00000  Uiso   1.00
C1152  C     0.69998   0.25197   0.52626   0.00000  Uiso   1.00
C1153  C     0.99267   0.25668   0.54033   0.00000  Uiso   1.00
C1154  C     0.97321   0.21931   0.56168   0.00000  Uiso   1.00
C1155  C     0.99426   0.17706   0.56867   0.00000  Uiso   1.00
C1156  C     0.70132   0.17198   0.55412   0.00000  Uiso   1.00
H1157  H     0.71476   0.28123   0.50988   0.00000  Uiso   1.00
H1158  H     0.97630   0.28934   0.53477   0.00000  Uiso   1.00
H1159  H     0.94183   0.22305   0.57277   0.00000  Uiso   1.00
H1160  H     0.97939   0.14827   0.58555   0.00000  Uiso   1.00
H1161  H     0.71708   0.13883   0.55924   0.00000  Uiso   1.00
C1162  C     0.94511   0.12336   0.96630   0.00000  Uiso   1.00
C1163  C     0.96541   0.16116   0.94601   0.00000  Uiso   1.00
C1164  C     0.67248   0.15599   0.93148   0.00000  Uiso   1.00
C1165  C     0.69343   0.11368   0.93841   0.00000  Uiso   1.00
C1166  C     0.67388   0.07631   0.95968   0.00000  Uiso   1.00
C1167  C     0.96657   0.08109   0.97372   0.00000  Uiso   1.00
H1168  H     0.94973   0.19437   0.94094   0.00000  Uiso   1.00
H1169  H     0.68741   0.18478   0.91465   0.00000  Uiso   1.00
H1170  H     0.72481   0.10987   0.92734   0.00000  Uiso   1.00
H1171  H     0.69017   0.04359   0.96519   0.00000  Uiso   1.00
H1172  H     0.95170   0.05184   0.99003   0.00000  Uiso   1.00
F1173  F     0.70747   0.09626   0.70652   0.00000  Uiso   1.00
F1174  F     0.95920   0.23709   0.79345   0.00000  Uiso   1.00
F1175  F     0.95742   0.09683   0.70547   0.00000  Uiso   1.00
F1176  F     0.70924   0.23650   0.79450   0.00000  Uiso   1.00
O1177  O     0.10655   0.53958   0.74999   0.00000  Uiso   1.00
O1178  O     0.22679   0.46042   0.75000   0.00000  Uiso   1.00
O1179  O     0.22679   0.53958   0.75000   0.00000  Uiso   1.00
O1180  O     0.10655   0.46042   0.74999   0.00000  Uiso   1.00
C1181  C     0.08740   0.49993   0.75040   0.00000  Uiso   1.00
C1182  C     0.24593   0.50007   0.74960   0.00000  Uiso   1.00
O1183  O     0.16666   0.53960   0.68513   0.00000  Uiso   1.00
O1184  O     0.16668   0.46040   0.81487   0.00000  Uiso   1.00
O1185  O     0.16668   0.53960   0.81487   0.00000  Uiso   1.00
O1186  O     0.16666   0.46040   0.68513   0.00000  Uiso   1.00
C1187  C     0.16479   0.50017   0.66445   0.00000  Uiso   1.00
C1188  C     0.16854   0.49982   0.83555   0.00000  Uiso   1.00
Cu1189 Cu    0.16667   0.54689   0.75000   0.00000  Uiso   1.00
Cu1190 Cu    0.16667   0.45311   0.75000   0.00000  Uiso   1.00
C1191  C     0.20118   0.47575   0.90857   0.00000  Uiso   1.00
C1192  C     0.13215   0.52422   0.59143   0.00000  Uiso   1.00
C1193  C     0.17006   0.49984   0.88389   0.00000  Uiso   1.00
C1194  C     0.16327   0.50015   0.61612   0.00000  Uiso   1.00
C1195  C     0.13883   0.52391   0.90521   0.00000  Uiso   1.00
C1196  C     0.19449   0.47605   0.59480   0.00000  Uiso   1.00
C1197  C     0.13655   0.52239   0.95119   0.00000  Uiso   1.00
C1198  C     0.19676   0.47754   0.54881   0.00000  Uiso   1.00
C1199  C     0.16805   0.50041   0.97668   0.00000  Uiso   1.00
C1200  C     0.16527   0.49951   0.52332   0.00000  Uiso   1.00
C1201  C     0.20235   0.47970   0.95561   0.00000  Uiso   1.00
C1202  C     0.13097   0.52023   0.54439   0.00000  Uiso   1.00
C1203  C     0.10195   0.54064   0.97167   0.00000  Uiso   1.00
C1204  C     0.23136   0.45928   0.52834   0.00000  Uiso   1.00
C1205  C     0.09737   0.53696   0.51737   0.00000  Uiso   1.00
C1206  C     0.23593   0.46293   0.98264   0.00000  Uiso   1.00
H1207  H     0.07682   0.55513   0.95165   0.00000  Uiso   1.00
H1208  H     0.25648   0.44478   0.54837   0.00000  Uiso   1.00
C1209  C     0.02093   0.46399   0.72853   0.00000  Uiso   1.00
C1210  C     0.31241   0.53602   0.77144   0.00000  Uiso   1.00
C1211  C     0.31153   0.46438   0.72782   0.00000  Uiso   1.00
C1212  C     0.02180   0.53563   0.77215   0.00000  Uiso   1.00
C1213  C     0.29052   0.50032   0.74936   0.00000  Uiso   1.00
C1214  C     0.04282   0.49968   0.75062   0.00000  Uiso   1.00
C1215  C     0.13859   0.35827   0.72467   0.00000  Uiso   1.00
C1216  C     0.19474   0.64173   0.77533   0.00000  Uiso   1.00
C1217  C     0.19476   0.35803   0.77522   0.00000  Uiso   1.00
C1218  C     0.13858   0.64197   0.72478   0.00000  Uiso   1.00
H1219  H     0.11615   0.37707   0.70429   0.00000  Uiso   1.00
H1220  H     0.21719   0.62293   0.79570   0.00000  Uiso   1.00
H1221  H     0.21723   0.37679   0.79514   0.00000  Uiso   1.00
H1222  H     0.11612   0.62321   0.70484   0.00000  Uiso   1.00
N1223  N     0.16667   0.61736   0.75000   0.00000  Uiso   1.00
N1224  N     0.16667   0.38264   0.75000   0.00000  Uiso   1.00
C1225  C     0.22893   0.44243   0.88597   0.00000  Uiso   1.00
C1226  C     0.22634   0.39419   0.89560   0.00000  Uiso   1.00
C1227  C     0.25514   0.36300   0.87853   0.00000  Uiso   1.00
C1228  C     0.28663   0.37969   0.85168   0.00000  Uiso   1.00
C1229  C     0.28891   0.42743   0.84126   0.00000  Uiso   1.00
C1230  C     0.25980   0.45870   0.85773   0.00000  Uiso   1.00
H1231  H     0.20269   0.38102   0.91728   0.00000  Uiso   1.00
H1232  H     0.25329   0.65933   0.88649   0.00000  Uiso   1.00
H1233  H     0.30923   0.35563   0.83893   0.00000  Uiso   1.00
H1234  H     0.31377   0.44026   0.82114   0.00000  Uiso   1.00
H1235  H     0.26251   0.49578   0.85036   0.00000  Uiso   1.00
C1236  C     0.10444   0.55763   0.61398   0.00000  Uiso   1.00
C1237  C     0.07360   0.54147   0.64232   0.00000  Uiso   1.00
C1238  C     0.04455   0.57282   0.65876   0.00000  Uiso   1.00
C1239  C     0.04685   0.62053   0.64821   0.00000  Uiso   1.00
C1240  C     0.07830   0.63709   0.62125   0.00000  Uiso   1.00
C1241  C     0.10704   0.60582   0.60421   0.00000  Uiso   1.00
H1242  H     0.07088   0.50442   0.64979   0.00000  Uiso   1.00
H1243  H     0.01974   0.56009   0.67899   0.00000  Uiso   1.00
H1244  H     0.02430   0.64465   0.66095   0.00000  Uiso   1.00
H1245  H     0.08016   0.34074   0.61319   0.00000  Uiso   1.00
H1246  H     0.13067   0.61891   0.58246   0.00000  Uiso   1.00
F1247  F     0.10868   0.54585   0.88067   0.00000  Uiso   1.00
F1248  F     0.22464   0.45412   0.61935   0.00000  Uiso   1.00
C1249  C     0.05486   0.54312   0.53373   0.00000  Uiso   1.00
C1250  C     0.03331   0.58531   0.52626   0.00000  Uiso   1.00
C1251  C     0.32600   0.59001   0.54033   0.00000  Uiso   1.00
C1252  C     0.30654   0.55264   0.56168   0.00000  Uiso   1.00
C1253  C     0.32759   0.51039   0.56867   0.00000  Uiso   1.00
C1254  C     0.03466   0.50532   0.55412   0.00000  Uiso   1.00
H1255  H     0.04809   0.61456   0.50988   0.00000  Uiso   1.00
H1256  H     0.30964   0.62267   0.53477   0.00000  Uiso   1.00
H1257  H     0.27516   0.55638   0.57277   0.00000  Uiso   1.00
H1258  H     0.31272   0.48160   0.58555   0.00000  Uiso   1.00
H1259  H     0.05041   0.47217   0.55924   0.00000  Uiso   1.00
C1260  C     0.27844   0.45670   0.96630   0.00000  Uiso   1.00
C1261  C     0.29874   0.49449   0.94601   0.00000  Uiso   1.00
C1262  C     0.00581   0.48933   0.93148   0.00000  Uiso   1.00
C1263  C     0.02677   0.44701   0.93841   0.00000  Uiso   1.00
C1264  C     0.00721   0.40965   0.95968   0.00000  Uiso   1.00
C1265  C     0.29990   0.41443   0.97372   0.00000  Uiso   1.00
H1266  H     0.28306   0.52770   0.94094   0.00000  Uiso   1.00
H1267  H     0.02075   0.51811   0.91465   0.00000  Uiso   1.00
H1268  H     0.05815   0.44321   0.92734   0.00000  Uiso   1.00
H1269  H     0.02350   0.37692   0.96519   0.00000  Uiso   1.00
H1270  H     0.28504   0.38518   0.99003   0.00000  Uiso   1.00
F1271  F     0.04080   0.42959   0.70652   0.00000  Uiso   1.00
F1272  F     0.29253   0.57042   0.79345   0.00000  Uiso   1.00
F1273  F     0.29076   0.43017   0.70547   0.00000  Uiso   1.00
F1274  F     0.04258   0.56984   0.79450   0.00000  Uiso   1.00
O1275  O     0.43988   0.53958   0.74999   0.00000  Uiso   1.00
O1276  O     0.56012   0.46042   0.75000   0.00000  Uiso   1.00
O1277  O     0.56012   0.53958   0.75000   0.00000  Uiso   1.00
O1278  O     0.43988   0.46042   0.74999   0.00000  Uiso   1.00
C1279  C     0.42073   0.49993   0.75040   0.00000  Uiso   1.00
C1280  C     0.57927   0.50007   0.74960   0.00000  Uiso   1.00
O1281  O     0.49999   0.53960   0.68513   0.00000  Uiso   1.00
O1282  O     0.50001   0.46040   0.81487   0.00000  Uiso   1.00
O1283  O     0.50001   0.53960   0.81487   0.00000  Uiso   1.00
O1284  O     0.49999   0.46040   0.68513   0.00000  Uiso   1.00
C1285  C     0.49813   0.50017   0.66445   0.00000  Uiso   1.00
C1286  C     0.50187   0.49982   0.83555   0.00000  Uiso   1.00
Cu1287 Cu    0.50000   0.54689   0.75000   0.00000  Uiso   1.00
Cu1288 Cu    0.50000   0.45311   0.75000   0.00000  Uiso   1.00
C1289  C     0.53451   0.47575   0.90857   0.00000  Uiso   1.00
C1290  C     0.46549   0.52422   0.59143   0.00000  Uiso   1.00
C1291  C     0.50339   0.49984   0.88389   0.00000  Uiso   1.00
C1292  C     0.49661   0.50015   0.61612   0.00000  Uiso   1.00
C1293  C     0.47217   0.52391   0.90521   0.00000  Uiso   1.00
C1294  C     0.52782   0.47605   0.59480   0.00000  Uiso   1.00
C1295  C     0.46989   0.52239   0.95119   0.00000  Uiso   1.00
C1296  C     0.53010   0.47754   0.54881   0.00000  Uiso   1.00
C1297  C     0.50138   0.50041   0.97668   0.00000  Uiso   1.00
C1298  C     0.49860   0.49951   0.52332   0.00000  Uiso   1.00
C1299  C     0.53568   0.47970   0.95561   0.00000  Uiso   1.00
C1300  C     0.46431   0.52023   0.54439   0.00000  Uiso   1.00
C1301  C     0.43528   0.54064   0.97167   0.00000  Uiso   1.00
C1302  C     0.56469   0.45928   0.52834   0.00000  Uiso   1.00
C1303  C     0.43071   0.53696   0.51737   0.00000  Uiso   1.00
C1304  C     0.56927   0.46293   0.98264   0.00000  Uiso   1.00
H1305  H     0.41016   0.55513   0.95165   0.00000  Uiso   1.00
H1306  H     0.58982   0.44478   0.54837   0.00000  Uiso   1.00
C1307  C     0.35426   0.46399   0.72853   0.00000  Uiso   1.00
C1308  C     0.64574   0.53602   0.77144   0.00000  Uiso   1.00
C1309  C     0.64486   0.46438   0.72782   0.00000  Uiso   1.00
C1310  C     0.35513   0.53563   0.77215   0.00000  Uiso   1.00
C1311  C     0.62385   0.50032   0.74936   0.00000  Uiso   1.00
C1312  C     0.37615   0.49968   0.75062   0.00000  Uiso   1.00
C1313  C     0.47193   0.35827   0.72467   0.00000  Uiso   1.00
C1314  C     0.52807   0.64173   0.77533   0.00000  Uiso   1.00
C1315  C     0.52809   0.35803   0.77522   0.00000  Uiso   1.00
C1316  C     0.47191   0.64197   0.72478   0.00000  Uiso   1.00
H1317  H     0.44948   0.37707   0.70429   0.00000  Uiso   1.00
H1318  H     0.55052   0.62293   0.79570   0.00000  Uiso   1.00
H1319  H     0.55056   0.37679   0.79514   0.00000  Uiso   1.00
H1320  H     0.44945   0.62321   0.70484   0.00000  Uiso   1.00
N1321  N     0.50000   0.61736   0.75000   0.00000  Uiso   1.00
N1322  N     0.50000   0.38264   0.75000   0.00000  Uiso   1.00
C1323  C     0.56227   0.44243   0.88597   0.00000  Uiso   1.00
C1324  C     0.55968   0.39419   0.89560   0.00000  Uiso   1.00
C1325  C     0.58847   0.36300   0.87853   0.00000  Uiso   1.00
C1326  C     0.61996   0.37969   0.85168   0.00000  Uiso   1.00
C1327  C     0.62225   0.42743   0.84126   0.00000  Uiso   1.00
C1328  C     0.59314   0.45870   0.85773   0.00000  Uiso   1.00
H1329  H     0.53602   0.38102   0.91728   0.00000  Uiso   1.00
H1330  H     0.58662   0.65933   0.88649   0.00000  Uiso   1.00
H1331  H     0.64256   0.35563   0.83893   0.00000  Uiso   1.00
H1332  H     0.64710   0.44026   0.82114   0.00000  Uiso   1.00
H1333  H     0.59584   0.49578   0.85036   0.00000  Uiso   1.00
C1334  C     0.43778   0.55763   0.61398   0.00000  Uiso   1.00
C1335  C     0.40694   0.54147   0.64232   0.00000  Uiso   1.00
C1336  C     0.37789   0.57282   0.65876   0.00000  Uiso   1.00
C1337  C     0.38019   0.62053   0.64821   0.00000  Uiso   1.00
C1338  C     0.41164   0.63709   0.62125   0.00000  Uiso   1.00
C1339  C     0.44038   0.60582   0.60421   0.00000  Uiso   1.00
H1340  H     0.40422   0.50442   0.64979   0.00000  Uiso   1.00
H1341  H     0.35308   0.56009   0.67899   0.00000  Uiso   1.00
H1342  H     0.35764   0.64465   0.66095   0.00000  Uiso   1.00
H1343  H     0.41350   0.34074   0.61319   0.00000  Uiso   1.00
H1344  H     0.46400   0.61891   0.58246   0.00000  Uiso   1.00
F1345  F     0.44201   0.54585   0.88067   0.00000  Uiso   1.00
F1346  F     0.55797   0.45412   0.61935   0.00000  Uiso   1.00
C1347  C     0.38819   0.54312   0.53373   0.00000  Uiso   1.00
C1348  C     0.36664   0.58531   0.52626   0.00000  Uiso   1.00
C1349  C     0.65933   0.59001   0.54033   0.00000  Uiso   1.00
C1350  C     0.63988   0.55264   0.56168   0.00000  Uiso   1.00
C1351  C     0.66092   0.51039   0.56867   0.00000  Uiso   1.00
C1352  C     0.36799   0.50532   0.55412   0.00000  Uiso   1.00
H1353  H     0.38142   0.61456   0.50988   0.00000  Uiso   1.00
H1354  H     0.64297   0.62267   0.53477   0.00000  Uiso   1.00
H1355  H     0.60850   0.55638   0.57277   0.00000  Uiso   1.00
H1356  H     0.64606   0.48160   0.58555   0.00000  Uiso   1.00
H1357  H     0.38374   0.47217   0.55924   0.00000  Uiso   1.00
C1358  C     0.61177   0.45670   0.96630   0.00000  Uiso   1.00
C1359  C     0.63208   0.49449   0.94601   0.00000  Uiso   1.00
C1360  C     0.33914   0.48933   0.93148   0.00000  Uiso   1.00
C1361  C     0.36010   0.44701   0.93841   0.00000  Uiso   1.00
C1362  C     0.34054   0.40965   0.95968   0.00000  Uiso   1.00
C1363  C     0.63323   0.41443   0.97372   0.00000  Uiso   1.00
H1364  H     0.61640   0.52770   0.94094   0.00000  Uiso   1.00
H1365  H     0.35408   0.51811   0.91465   0.00000  Uiso   1.00
H1366  H     0.39148   0.44321   0.92734   0.00000  Uiso   1.00
H1367  H     0.35683   0.37692   0.96519   0.00000  Uiso   1.00
H1368  H     0.61837   0.38518   0.99003   0.00000  Uiso   1.00
F1369  F     0.37414   0.42959   0.70652   0.00000  Uiso   1.00
F1370  F     0.62586   0.57042   0.79345   0.00000  Uiso   1.00
F1371  F     0.62409   0.43017   0.70547   0.00000  Uiso   1.00
F1372  F     0.37591   0.56984   0.79450   0.00000  Uiso   1.00
O1373  O     0.77321   0.53958   0.74999   0.00000  Uiso   1.00
O1374  O     0.89345   0.46042   0.75000   0.00000  Uiso   1.00
O1375  O     0.89345   0.53958   0.75000   0.00000  Uiso   1.00
O1376  O     0.77321   0.46042   0.74999   0.00000  Uiso   1.00
C1377  C     0.75407   0.49993   0.75040   0.00000  Uiso   1.00
C1378  C     0.91260   0.50007   0.74960   0.00000  Uiso   1.00
O1379  O     0.83332   0.53960   0.68513   0.00000  Uiso   1.00
O1380  O     0.83334   0.46040   0.81487   0.00000  Uiso   1.00
O1381  O     0.83334   0.53960   0.81487   0.00000  Uiso   1.00
O1382  O     0.83332   0.46040   0.68513   0.00000  Uiso   1.00
C1383  C     0.83146   0.50017   0.66445   0.00000  Uiso   1.00
C1384  C     0.83521   0.49982   0.83555   0.00000  Uiso   1.00
Cu1385 Cu    0.83333   0.54689   0.75000   0.00000  Uiso   1.00
Cu1386 Cu    0.83333   0.45311   0.75000   0.00000  Uiso   1.00
C1387  C     0.86784   0.47575   0.90857   0.00000  Uiso   1.00
C1388  C     0.79882   0.52422   0.59143   0.00000  Uiso   1.00
C1389  C     0.83673   0.49984   0.88389   0.00000  Uiso   1.00
C1390  C     0.82994   0.50015   0.61612   0.00000  Uiso   1.00
C1391  C     0.80550   0.52391   0.90521   0.00000  Uiso   1.00
C1392  C     0.86116   0.47605   0.59480   0.00000  Uiso   1.00
C1393  C     0.80322   0.52239   0.95119   0.00000  Uiso   1.00
C1394  C     0.86343   0.47754   0.54881   0.00000  Uiso   1.00
C1395  C     0.83471   0.50041   0.97668   0.00000  Uiso   1.00
C1396  C     0.83194   0.49951   0.52332   0.00000  Uiso   1.00
C1397  C     0.86901   0.47970   0.95561   0.00000  Uiso   1.00
C1398  C     0.79764   0.52023   0.54439   0.00000  Uiso   1.00
C1399  C     0.76861   0.54064   0.97167   0.00000  Uiso   1.00
C1400  C     0.89803   0.45928   0.52834   0.00000  Uiso   1.00
C1401  C     0.76404   0.53696   0.51737   0.00000  Uiso   1.00
C1402  C     0.90260   0.46293   0.98264   0.00000  Uiso   1.00
H1403  H     0.74349   0.55513   0.95165   0.00000  Uiso   1.00
H1404  H     0.92315   0.44478   0.54837   0.00000  Uiso   1.00
C1405  C     0.68759   0.46399   0.72853   0.00000  Uiso   1.00
C1406  C     0.97907   0.53602   0.77144   0.00000  Uiso   1.00
C1407  C     0.97820   0.46438   0.72782   0.00000  Uiso   1.00
C1408  C     0.68847   0.53563   0.77215   0.00000  Uiso   1.00
C1409  C     0.95718   0.50032   0.74936   0.00000  Uiso   1.00
C1410  C     0.70948   0.49968   0.75062   0.00000  Uiso   1.00
C1411  C     0.80526   0.35827   0.72467   0.00000  Uiso   1.00
C1412  C     0.86141   0.64173   0.77533   0.00000  Uiso   1.00
C1413  C     0.86142   0.35803   0.77522   0.00000  Uiso   1.00
C1414  C     0.80525   0.64197   0.72478   0.00000  Uiso   1.00
H1415  H     0.78282   0.37707   0.70429   0.00000  Uiso   1.00
H1416  H     0.88385   0.62293   0.79570   0.00000  Uiso   1.00
H1417  H     0.88389   0.37679   0.79514   0.00000  Uiso   1.00
H1418  H     0.78278   0.62321   0.70484   0.00000  Uiso   1.00
N1419  N     0.83333   0.61736   0.75000   0.00000  Uiso   1.00
N1420  N     0.83333   0.38264   0.75000   0.00000  Uiso   1.00
C1421  C     0.89560   0.44243   0.88597   0.00000  Uiso   1.00
C1422  C     0.89301   0.39419   0.89560   0.00000  Uiso   1.00
C1423  C     0.92180   0.36300   0.87853   0.00000  Uiso   1.00
C1424  C     0.95330   0.37969   0.85168   0.00000  Uiso   1.00
C1425  C     0.95558   0.42743   0.84126   0.00000  Uiso   1.00
C1426  C     0.92647   0.45870   0.85773   0.00000  Uiso   1.00
H1427  H     0.86936   0.38102   0.91728   0.00000  Uiso   1.00
H1428  H     0.91996   0.65933   0.88649   0.00000  Uiso   1.00
H1429  H     0.97590   0.35563   0.83893   0.00000  Uiso   1.00
H1430  H     0.98043   0.44026   0.82114   0.00000  Uiso   1.00
H1431  H     0.92918   0.49578   0.85036   0.00000  Uiso   1.00
C1432  C     0.77111   0.55763   0.61398   0.00000  Uiso   1.00
C1433  C     0.74027   0.54147   0.64232   0.00000  Uiso   1.00
C1434  C     0.71122   0.57282   0.65876   0.00000  Uiso   1.00
C1435  C     0.71352   0.62053   0.64821   0.00000  Uiso   1.00
C1436  C     0.74497   0.63709   0.62125   0.00000  Uiso   1.00
C1437  C     0.77371   0.60582   0.60421   0.00000  Uiso   1.00
H1438  H     0.73755   0.50442   0.64979   0.00000  Uiso   1.00
H1439  H     0.68641   0.56009   0.67899   0.00000  Uiso   1.00
H1440  H     0.69097   0.64465   0.66095   0.00000  Uiso   1.00
H1441  H     0.74683   0.34074   0.61319   0.00000  Uiso   1.00
H1442  H     0.79733   0.61891   0.58246   0.00000  Uiso   1.00
F1443  F     0.77535   0.54585   0.88067   0.00000  Uiso   1.00
F1444  F     0.89131   0.45412   0.61935   0.00000  Uiso   1.00
C1445  C     0.72153   0.54312   0.53373   0.00000  Uiso   1.00
C1446  C     0.69998   0.58531   0.52626   0.00000  Uiso   1.00
C1447  C     0.99267   0.59001   0.54033   0.00000  Uiso   1.00
C1448  C     0.97321   0.55264   0.56168   0.00000  Uiso   1.00
C1449  C     0.99426   0.51039   0.56867   0.00000  Uiso   1.00
C1450  C     0.70132   0.50532   0.55412   0.00000  Uiso   1.00
H1451  H     0.71476   0.61456   0.50988   0.00000  Uiso   1.00
H1452  H     0.97630   0.62267   0.53477   0.00000  Uiso   1.00
H1453  H     0.94183   0.55638   0.57277   0.00000  Uiso   1.00
H1454  H     0.97939   0.48160   0.58555   0.00000  Uiso   1.00
H1455  H     0.71708   0.47217   0.55924   0.00000  Uiso   1.00
C1456  C     0.94511   0.45670   0.96630   0.00000  Uiso   1.00
C1457  C     0.96541   0.49449   0.94601   0.00000  Uiso   1.00
C1458  C     0.67248   0.48933   0.93148   0.00000  Uiso   1.00
C1459  C     0.69343   0.44701   0.93841   0.00000  Uiso   1.00
C1460  C     0.67388   0.40965   0.95968   0.00000  Uiso   1.00
C1461  C     0.96657   0.41443   0.97372   0.00000  Uiso   1.00
H1462  H     0.94973   0.52770   0.94094   0.00000  Uiso   1.00
H1463  H     0.68741   0.51811   0.91465   0.00000  Uiso   1.00
H1464  H     0.72481   0.44321   0.92734   0.00000  Uiso   1.00
H1465  H     0.69017   0.37692   0.96519   0.00000  Uiso   1.00
H1466  H     0.95170   0.38518   0.99003   0.00000  Uiso   1.00
F1467  F     0.70747   0.42959   0.70652   0.00000  Uiso   1.00
F1468  F     0.95920   0.57042   0.79345   0.00000  Uiso   1.00
F1469  F     0.95742   0.43017   0.70547   0.00000  Uiso   1.00
F1470  F     0.70924   0.56984   0.79450   0.00000  Uiso   1.00
O1471  O     0.10655   0.87291   0.74999   0.00000  Uiso   1.00
O1472  O     0.22679   0.79375   0.75000   0.00000  Uiso   1.00
O1473  O     0.22679   0.87291   0.75000   0.00000  Uiso   1.00
O1474  O     0.10655   0.79375   0.74999   0.00000  Uiso   1.00
C1475  C     0.08740   0.83326   0.75040   0.00000  Uiso   1.00
C1476  C     0.24593   0.83341   0.74960   0.00000  Uiso   1.00
O1477  O     0.16666   0.87293   0.68513   0.00000  Uiso   1.00
O1478  O     0.16668   0.79373   0.81487   0.00000  Uiso   1.00
O1479  O     0.16668   0.87293   0.81487   0.00000  Uiso   1.00
O1480  O     0.16666   0.79373   0.68513   0.00000  Uiso   1.00
C1481  C     0.16479   0.83351   0.66445   0.00000  Uiso   1.00
C1482  C     0.16854   0.83316   0.83555   0.00000  Uiso   1.00
Cu1483 Cu    0.16667   0.88022   0.75000   0.00000  Uiso   1.00
Cu1484 Cu    0.16667   0.78645   0.75000   0.00000  Uiso   1.00
C1485  C     0.20118   0.80909   0.90857   0.00000  Uiso   1.00
C1486  C     0.13215   0.85755   0.59143   0.00000  Uiso   1.00
C1487  C     0.17006   0.83317   0.88389   0.00000  Uiso   1.00
C1488  C     0.16327   0.83348   0.61612   0.00000  Uiso   1.00
C1489  C     0.13883   0.85725   0.90521   0.00000  Uiso   1.00
C1490  C     0.19449   0.80938   0.59480   0.00000  Uiso   1.00
C1491  C     0.13655   0.85573   0.95119   0.00000  Uiso   1.00
C1492  C     0.19676   0.81087   0.54881   0.00000  Uiso   1.00
C1493  C     0.16805   0.83374   0.97668   0.00000  Uiso   1.00
C1494  C     0.16527   0.83285   0.52332   0.00000  Uiso   1.00
C1495  C     0.20235   0.81303   0.95561   0.00000  Uiso   1.00
C1496  C     0.13097   0.85356   0.54439   0.00000  Uiso   1.00
C1497  C     0.10195   0.87397   0.97167   0.00000  Uiso   1.00
C1498  C     0.23136   0.79261   0.52834   0.00000  Uiso   1.00
C1499  C     0.09737   0.87029   0.51737   0.00000  Uiso   1.00
C1500  C     0.23593   0.79627   0.98264   0.00000  Uiso   1.00
H1501  H     0.07682   0.88846   0.95165   0.00000  Uiso   1.00
H1502  H     0.25648   0.77812   0.54837   0.00000  Uiso   1.00
C1503  C     0.02093   0.79732   0.72853   0.00000  Uiso   1.00
C1504  C     0.31241   0.86936   0.77144   0.00000  Uiso   1.00
C1505  C     0.31153   0.79771   0.72782   0.00000  Uiso   1.00
C1506  C     0.02180   0.86896   0.77215   0.00000  Uiso   1.00
C1507  C     0.29052   0.83366   0.74936   0.00000  Uiso   1.00
C1508  C     0.04282   0.83302   0.75062   0.00000  Uiso   1.00
C1509  C     0.13859   0.69161   0.72467   0.00000  Uiso   1.00
C1510  C     0.19474   0.97506   0.77533   0.00000  Uiso   1.00
C1511  C     0.19476   0.69136   0.77522   0.00000  Uiso   1.00
C1512  C     0.13858   0.97530   0.72478   0.00000  Uiso   1.00
H1513  H     0.11615   0.71041   0.70429   0.00000  Uiso   1.00
H1514  H     0.21719   0.95626   0.79570   0.00000  Uiso   1.00
H1515  H     0.21723   0.71012   0.79514   0.00000  Uiso   1.00
H1516  H     0.11612   0.95654   0.70484   0.00000  Uiso   1.00
N1517  N     0.16667   0.95069   0.75000   0.00000  Uiso   1.00
N1518  N     0.16667   0.71598   0.75000   0.00000  Uiso   1.00
C1519  C     0.22893   0.77576   0.88597   0.00000  Uiso   1.00
C1520  C     0.22634   0.72753   0.89560   0.00000  Uiso   1.00
C1521  C     0.25514   0.69634   0.87853   0.00000  Uiso   1.00
C1522  C     0.28663   0.71302   0.85168   0.00000  Uiso   1.00
C1523  C     0.28891   0.76076   0.84126   0.00000  Uiso   1.00
C1524  C     0.25980   0.79203   0.85773   0.00000  Uiso   1.00
H1525  H     0.20269   0.71436   0.91728   0.00000  Uiso   1.00
H1526  H     0.25329   0.99266   0.88649   0.00000  Uiso   1.00
H1527  H     0.30923   0.68896   0.83893   0.00000  Uiso   1.00
H1528  H     0.31377   0.77359   0.82114   0.00000  Uiso   1.00
H1529  H     0.26251   0.82911   0.85036   0.00000  Uiso   1.00
C1530  C     0.10444   0.89096   0.61398   0.00000  Uiso   1.00
C1531  C     0.07360   0.87481   0.64232   0.00000  Uiso   1.00
C1532  C     0.04455   0.90616   0.65876   0.00000  Uiso   1.00
C1533  C     0.04685   0.95386   0.64821   0.00000  Uiso   1.00
C1534  C     0.07830   0.97043   0.62125   0.00000  Uiso   1.00
C1535  C     0.10704   0.93916   0.60421   0.00000  Uiso   1.00
H1536  H     0.07088   0.83776   0.64979   0.00000  Uiso   1.00
H1537  H     0.01974   0.89342   0.67899   0.00000  Uiso   1.00
H1538  H     0.02430   0.97798   0.66095   0.00000  Uiso   1.00
H1539  H     0.08016   0.67407   0.61319   0.00000  Uiso   1.00
H1540  H     0.13067   0.95224   0.58246   0.00000  Uiso   1.00
F1541  F     0.10868   0.87918   0.88067   0.00000  Uiso   1.00
F1542  F     0.22464   0.78745   0.61935   0.00000  Uiso   1.00
C1543  C     0.05486   0.87645   0.53373   0.00000  Uiso   1.00
C1544  C     0.03331   0.91864   0.52626   0.00000  Uiso   1.00
C1545  C     0.32600   0.92334   0.54033   0.00000  Uiso   1.00
C1546  C     0.30654   0.88597   0.56168   0.00000  Uiso   1.00
C1547  C     0.32759   0.84373   0.56867   0.00000  Uiso   1.00
C1548  C     0.03466   0.83865   0.55412   0.00000  Uiso   1.00
H1549  H     0.04809   0.94790   0.50988   0.00000  Uiso   1.00
H1550  H     0.30964   0.95601   0.53477   0.00000  Uiso   1.00
H1551  H     0.27516   0.88971   0.57277   0.00000  Uiso   1.00
H1552  H     0.31272   0.81494   0.58555   0.00000  Uiso   1.00
H1553  H     0.05041   0.80550   0.55924   0.00000  Uiso   1.00
C1554  C     0.27844   0.79003   0.96630   0.00000  Uiso   1.00
C1555  C     0.29874   0.82782   0.94601   0.00000  Uiso   1.00
C1556  C     0.00581   0.82266   0.93148   0.00000  Uiso   1.00
C1557  C     0.02677   0.78034   0.93841   0.00000  Uiso   1.00
C1558  C     0.00721   0.74298   0.95968   0.00000  Uiso   1.00
C1559  C     0.29990   0.74776   0.97372   0.00000  Uiso   1.00
H1560  H     0.28306   0.86103   0.94094   0.00000  Uiso   1.00
H1561  H     0.02075   0.85144   0.91465   0.00000  Uiso   1.00
H1562  H     0.05815   0.77654   0.92734   0.00000  Uiso   1.00
H1563  H     0.02350   0.71025   0.96519   0.00000  Uiso   1.00
H1564  H     0.28504   0.71851   0.99003   0.00000  Uiso   1.00
F1565  F     0.04080   0.76293   0.70652   0.00000  Uiso   1.00
F1566  F     0.29253   0.90376   0.79345   0.00000  Uiso   1.00
F1567  F     0.29076   0.76350   0.70547   0.00000  Uiso   1.00
F1568  F     0.04258   0.90317   0.79450   0.00000  Uiso   1.00
O1569  O     0.43988   0.87291   0.74999   0.00000  Uiso   1.00
O1570  O     0.56012   0.79375   0.75000   0.00000  Uiso   1.00
O1571  O     0.56012   0.87291   0.75000   0.00000  Uiso   1.00
O1572  O     0.43988   0.79375   0.74999   0.00000  Uiso   1.00
C1573  C     0.42073   0.83326   0.75040   0.00000  Uiso   1.00
C1574  C     0.57927   0.83341   0.74960   0.00000  Uiso   1.00
O1575  O     0.49999   0.87293   0.68513   0.00000  Uiso   1.00
O1576  O     0.50001   0.79373   0.81487   0.00000  Uiso   1.00
O1577  O     0.50001   0.87293   0.81487   0.00000  Uiso   1.00
O1578  O     0.49999   0.79373   0.68513   0.00000  Uiso   1.00
C1579  C     0.49813   0.83351   0.66445   0.00000  Uiso   1.00
C1580  C     0.50187   0.83316   0.83555   0.00000  Uiso   1.00
Cu1581 Cu    0.50000   0.88022   0.75000   0.00000  Uiso   1.00
Cu1582 Cu    0.50000   0.78645   0.75000   0.00000  Uiso   1.00
C1583  C     0.53451   0.80909   0.90857   0.00000  Uiso   1.00
C1584  C     0.46549   0.85755   0.59143   0.00000  Uiso   1.00
C1585  C     0.50339   0.83317   0.88389   0.00000  Uiso   1.00
C1586  C     0.49661   0.83348   0.61612   0.00000  Uiso   1.00
C1587  C     0.47217   0.85725   0.90521   0.00000  Uiso   1.00
C1588  C     0.52782   0.80938   0.59480   0.00000  Uiso   1.00
C1589  C     0.46989   0.85573   0.95119   0.00000  Uiso   1.00
C1590  C     0.53010   0.81087   0.54881   0.00000  Uiso   1.00
C1591  C     0.50138   0.83374   0.97668   0.00000  Uiso   1.00
C1592  C     0.49860   0.83285   0.52332   0.00000  Uiso   1.00
C1593  C     0.53568   0.81303   0.95561   0.00000  Uiso   1.00
C1594  C     0.46431   0.85356   0.54439   0.00000  Uiso   1.00
C1595  C     0.43528   0.87397   0.97167   0.00000  Uiso   1.00
C1596  C     0.56469   0.79261   0.52834   0.00000  Uiso   1.00
C1597  C     0.43071   0.87029   0.51737   0.00000  Uiso   1.00
C1598  C     0.56927   0.79627   0.98264   0.00000  Uiso   1.00
H1599  H     0.41016   0.88846   0.95165   0.00000  Uiso   1.00
H1600  H     0.58982   0.77812   0.54837   0.00000  Uiso   1.00
C1601  C     0.35426   0.79732   0.72853   0.00000  Uiso   1.00
C1602  C     0.64574   0.86936   0.77144   0.00000  Uiso   1.00
C1603  C     0.64486   0.79771   0.72782   0.00000  Uiso   1.00
C1604  C     0.35513   0.86896   0.77215   0.00000  Uiso   1.00
C1605  C     0.62385   0.83366   0.74936   0.00000  Uiso   1.00
C1606  C     0.37615   0.83302   0.75062   0.00000  Uiso   1.00
C1607  C     0.47193   0.69161   0.72467   0.00000  Uiso   1.00
C1608  C     0.52807   0.97506   0.77533   0.00000  Uiso   1.00
C1609  C     0.52809   0.69136   0.77522   0.00000  Uiso   1.00
C1610  C     0.47191   0.97530   0.72478   0.00000  Uiso   1.00
H1611  H     0.44948   0.71041   0.70429   0.00000  Uiso   1.00
H1612  H     0.55052   0.95626   0.79570   0.00000  Uiso   1.00
H1613  H     0.55056   0.71012   0.79514   0.00000  Uiso   1.00
H1614  H     0.44945   0.95654   0.70484   0.00000  Uiso   1.00
N1615  N     0.50000   0.95069   0.75000   0.00000  Uiso   1.00
N1616  N     0.50000   0.71598   0.75000   0.00000  Uiso   1.00
C1617  C     0.56227   0.77576   0.88597   0.00000  Uiso   1.00
C1618  C     0.55968   0.72753   0.89560   0.00000  Uiso   1.00
C1619  C     0.58847   0.69634   0.87853   0.00000  Uiso   1.00
C1620  C     0.61996   0.71302   0.85168   0.00000  Uiso   1.00
C1621  C     0.62225   0.76076   0.84126   0.00000  Uiso   1.00
C1622  C     0.59314   0.79203   0.85773   0.00000  Uiso   1.00
H1623  H     0.53602   0.71436   0.91728   0.00000  Uiso   1.00
H1624  H     0.58662   0.99266   0.88649   0.00000  Uiso   1.00
H1625  H     0.64256   0.68896   0.83893   0.00000  Uiso   1.00
H1626  H     0.64710   0.77359   0.82114   0.00000  Uiso   1.00
H1627  H     0.59584   0.82911   0.85036   0.00000  Uiso   1.00
C1628  C     0.43778   0.89096   0.61398   0.00000  Uiso   1.00
C1629  C     0.40694   0.87481   0.64232   0.00000  Uiso   1.00
C1630  C     0.37789   0.90616   0.65876   0.00000  Uiso   1.00
C1631  C     0.38019   0.95386   0.64821   0.00000  Uiso   1.00
C1632  C     0.41164   0.97043   0.62125   0.00000  Uiso   1.00
C1633  C     0.44038   0.93916   0.60421   0.00000  Uiso   1.00
H1634  H     0.40422   0.83776   0.64979   0.00000  Uiso   1.00
H1635  H     0.35308   0.89342   0.67899   0.00000  Uiso   1.00
H1636  H     0.35764   0.97798   0.66095   0.00000  Uiso   1.00
H1637  H     0.41350   0.67407   0.61319   0.00000  Uiso   1.00
H1638  H     0.46400   0.95224   0.58246   0.00000  Uiso   1.00
F1639  F     0.44201   0.87918   0.88067   0.00000  Uiso   1.00
F1640  F     0.55797   0.78745   0.61935   0.00000  Uiso   1.00
C1641  C     0.38819   0.87645   0.53373   0.00000  Uiso   1.00
C1642  C     0.36664   0.91864   0.52626   0.00000  Uiso   1.00
C1643  C     0.65933   0.92334   0.54033   0.00000  Uiso   1.00
C1644  C     0.63988   0.88597   0.56168   0.00000  Uiso   1.00
C1645  C     0.66092   0.84373   0.56867   0.00000  Uiso   1.00
C1646  C     0.36799   0.83865   0.55412   0.00000  Uiso   1.00
H1647  H     0.38142   0.94790   0.50988   0.00000  Uiso   1.00
H1648  H     0.64297   0.95601   0.53477   0.00000  Uiso   1.00
H1649  H     0.60850   0.88971   0.57277   0.00000  Uiso   1.00
H1650  H     0.64606   0.81494   0.58555   0.00000  Uiso   1.00
H1651  H     0.38374   0.80550   0.55924   0.00000  Uiso   1.00
C1652  C     0.61177   0.79003   0.96630   0.00000  Uiso   1.00
C1653  C     0.63208   0.82782   0.94601   0.00000  Uiso   1.00
C1654  C     0.33914   0.82266   0.93148   0.00000  Uiso   1.00
C1655  C     0.36010   0.78034   0.93841   0.00000  Uiso   1.00
C1656  C     0.34054   0.74298   0.95968   0.00000  Uiso   1.00
C1657  C     0.63323   0.74776   0.97372   0.00000  Uiso   1.00
H1658  H     0.61640   0.86103   0.94094   0.00000  Uiso   1.00
H1659  H     0.35408   0.85144   0.91465   0.00000  Uiso   1.00
H1660  H     0.39148   0.77654   0.92734   0.00000  Uiso   1.00
H1661  H     0.35683   0.71025   0.96519   0.00000  Uiso   1.00
H1662  H     0.61837   0.71851   0.99003   0.00000  Uiso   1.00
F1663  F     0.37414   0.76293   0.70652   0.00000  Uiso   1.00
F1664  F     0.62586   0.90376   0.79345   0.00000  Uiso   1.00
F1665  F     0.62409   0.76350   0.70547   0.00000  Uiso   1.00
F1666  F     0.37591   0.90317   0.79450   0.00000  Uiso   1.00
O1667  O     0.77321   0.87291   0.74999   0.00000  Uiso   1.00
O1668  O     0.89345   0.79375   0.75000   0.00000  Uiso   1.00
O1669  O     0.89345   0.87291   0.75000   0.00000  Uiso   1.00
O1670  O     0.77321   0.79375   0.74999   0.00000  Uiso   1.00
C1671  C     0.75407   0.83326   0.75040   0.00000  Uiso   1.00
C1672  C     0.91260   0.83341   0.74960   0.00000  Uiso   1.00
O1673  O     0.83332   0.87293   0.68513   0.00000  Uiso   1.00
O1674  O     0.83334   0.79373   0.81487   0.00000  Uiso   1.00
O1675  O     0.83334   0.87293   0.81487   0.00000  Uiso   1.00
O1676  O     0.83332   0.79373   0.68513   0.00000  Uiso   1.00
C1677  C     0.83146   0.83351   0.66445   0.00000  Uiso   1.00
C1678  C     0.83521   0.83316   0.83555   0.00000  Uiso   1.00
Cu1679 Cu    0.83333   0.88022   0.75000   0.00000  Uiso   1.00
Cu1680 Cu    0.83333   0.78645   0.75000   0.00000  Uiso   1.00
C1681  C     0.86784   0.80909   0.90857   0.00000  Uiso   1.00
C1682  C     0.79882   0.85755   0.59143   0.00000  Uiso   1.00
C1683  C     0.83673   0.83317   0.88389   0.00000  Uiso   1.00
C1684  C     0.82994   0.83348   0.61612   0.00000  Uiso   1.00
C1685  C     0.80550   0.85725   0.90521   0.00000  Uiso   1.00
C1686  C     0.86116   0.80938   0.59480   0.00000  Uiso   1.00
C1687  C     0.80322   0.85573   0.95119   0.00000  Uiso   1.00
C1688  C     0.86343   0.81087   0.54881   0.00000  Uiso   1.00
C1689  C     0.83471   0.83374   0.97668   0.00000  Uiso   1.00
C1690  C     0.83194   0.83285   0.52332   0.00000  Uiso   1.00
C1691  C     0.86901   0.81303   0.95561   0.00000  Uiso   1.00
C1692  C     0.79764   0.85356   0.54439   0.00000  Uiso   1.00
C1693  C     0.76861   0.87397   0.97167   0.00000  Uiso   1.00
C1694  C     0.89803   0.79261   0.52834   0.00000  Uiso   1.00
C1695  C     0.76404   0.87029   0.51737   0.00000  Uiso   1.00
C1696  C     0.90260   0.79627   0.98264   0.00000  Uiso   1.00
H1697  H     0.74349   0.88846   0.95165   0.00000  Uiso   1.00
H1698  H     0.92315   0.77812   0.54837   0.00000  Uiso   1.00
C1699  C     0.68759   0.79732   0.72853   0.00000  Uiso   1.00
C1700  C     0.97907   0.86936   0.77144   0.00000  Uiso   1.00
C1701  C     0.97820   0.79771   0.72782   0.00000  Uiso   1.00
C1702  C     0.68847   0.86896   0.77215   0.00000  Uiso   1.00
C1703  C     0.95718   0.83366   0.74936   0.00000  Uiso   1.00
C1704  C     0.70948   0.83302   0.75062   0.00000  Uiso   1.00
C1705  C     0.80526   0.69161   0.72467   0.00000  Uiso   1.00
C1706  C     0.86141   0.97506   0.77533   0.00000  Uiso   1.00
C1707  C     0.86142   0.69136   0.77522   0.00000  Uiso   1.00
C1708  C     0.80525   0.97530   0.72478   0.00000  Uiso   1.00
H1709  H     0.78282   0.71041   0.70429   0.00000  Uiso   1.00
H1710  H     0.88385   0.95626   0.79570   0.00000  Uiso   1.00
H1711  H     0.88389   0.71012   0.79514   0.00000  Uiso   1.00
H1712  H     0.78278   0.95654   0.70484   0.00000  Uiso   1.00
N1713  N     0.83333   0.95069   0.75000   0.00000  Uiso   1.00
N1714  N     0.83333   0.71598   0.75000   0.00000  Uiso   1.00
C1715  C     0.89560   0.77576   0.88597   0.00000  Uiso   1.00
C1716  C     0.89301   0.72753   0.89560   0.00000  Uiso   1.00
C1717  C     0.92180   0.69634   0.87853   0.00000  Uiso   1.00
C1718  C     0.95330   0.71302   0.85168   0.00000  Uiso   1.00
C1719  C     0.95558   0.76076   0.84126   0.00000  Uiso   1.00
C1720  C     0.92647   0.79203   0.85773   0.00000  Uiso   1.00
H1721  H     0.86936   0.71436   0.91728   0.00000  Uiso   1.00
H1722  H     0.91996   0.99266   0.88649   0.00000  Uiso   1.00
H1723  H     0.97590   0.68896   0.83893   0.00000  Uiso   1.00
H1724  H     0.98043   0.77359   0.82114   0.00000  Uiso   1.00
H1725  H     0.92918   0.82911   0.85036   0.00000  Uiso   1.00
C1726  C     0.77111   0.89096   0.61398   0.00000  Uiso   1.00
C1727  C     0.74027   0.87481   0.64232   0.00000  Uiso   1.00
C1728  C     0.71122   0.90616   0.65876   0.00000  Uiso   1.00
C1729  C     0.71352   0.95386   0.64821   0.00000  Uiso   1.00
C1730  C     0.74497   0.97043   0.62125   0.00000  Uiso   1.00
C1731  C     0.77371   0.93916   0.60421   0.00000  Uiso   1.00
H1732  H     0.73755   0.83776   0.64979   0.00000  Uiso   1.00
H1733  H     0.68641   0.89342   0.67899   0.00000  Uiso   1.00
H1734  H     0.69097   0.97798   0.66095   0.00000  Uiso   1.00
H1735  H     0.74683   0.67407   0.61319   0.00000  Uiso   1.00
H1736  H     0.79733   0.95224   0.58246   0.00000  Uiso   1.00
F1737  F     0.77535   0.87918   0.88067   0.00000  Uiso   1.00
F1738  F     0.89131   0.78745   0.61935   0.00000  Uiso   1.00
C1739  C     0.72153   0.87645   0.53373   0.00000  Uiso   1.00
C1740  C     0.69998   0.91864   0.52626   0.00000  Uiso   1.00
C1741  C     0.99267   0.92334   0.54033   0.00000  Uiso   1.00
C1742  C     0.97321   0.88597   0.56168   0.00000  Uiso   1.00
C1743  C     0.99426   0.84373   0.56867   0.00000  Uiso   1.00
C1744  C     0.70132   0.83865   0.55412   0.00000  Uiso   1.00
H1745  H     0.71476   0.94790   0.50988   0.00000  Uiso   1.00
H1746  H     0.97630   0.95601   0.53477   0.00000  Uiso   1.00
H1747  H     0.94183   0.88971   0.57277   0.00000  Uiso   1.00
H1748  H     0.97939   0.81494   0.58555   0.00000  Uiso   1.00
H1749  H     0.71708   0.80550   0.55924   0.00000  Uiso   1.00
C1750  C     0.94511   0.79003   0.96630   0.00000  Uiso   1.00
C1751  C     0.96541   0.82782   0.94601   0.00000  Uiso   1.00
C1752  C     0.67248   0.82266   0.93148   0.00000  Uiso   1.00
C1753  C     0.69343   0.78034   0.93841   0.00000  Uiso   1.00
C1754  C     0.67388   0.74298   0.95968   0.00000  Uiso   1.00
C1755  C     0.96657   0.74776   0.97372   0.00000  Uiso   1.00
H1756  H     0.94973   0.86103   0.94094   0.00000  Uiso   1.00
H1757  H     0.68741   0.85144   0.91465   0.00000  Uiso   1.00
H1758  H     0.72481   0.77654   0.92734   0.00000  Uiso   1.00
H1759  H     0.69017   0.71025   0.96519   0.00000  Uiso   1.00
H1760  H     0.95170   0.71851   0.99003   0.00000  Uiso   1.00
F1761  F     0.70747   0.76293   0.70652   0.00000  Uiso   1.00
F1762  F     0.95920   0.90376   0.79345   0.00000  Uiso   1.00
F1763  F     0.95742   0.76350   0.70547   0.00000  Uiso   1.00
F1764  F     0.70924   0.90317   0.79450   0.00000  Uiso   1.00
loop_
_geom_bond_atom_site_label_1
_geom_bond_atom_site_label_2
_geom_bond_distance
_geom_bond_site_symmetry_2
_ccdc_geom_bond_type
O1     C5      1.289   .     A
O1     Cu13    1.958   .     S
O2     C6      1.289   .     A
O2     Cu14    1.958   .     S
O3     C6      1.287   .     A
O3     Cu13    1.958   .     S
O4     C5      1.287   .     A
O4     Cu14    1.958   .     S
C5     C38     1.444   .     S
C6     C37     1.444   .     S
O7     C11     1.290   .     A
O7     Cu13    1.969   .     S
O8     C12     1.290   .     A
O8     Cu14    1.969   .     S
O9     Cu13    1.966   .     S
O9     C12     1.292   .     A
O10    Cu14    1.966   .     S
O10    C11     1.291   .     A
C11    C18     1.458   .     S
C12    C17     1.458   .     S
Cu13   Cu14    2.674   .     S
Cu13   N47     2.010   .     S
Cu14   N48     2.010   .     S
C15    C25     1.424   .     A
C15    C49     1.488   .     S
C15    C17     1.415   .     A
C16    C26     1.424   .     A
C16    C60     1.488   .     S
C16    C18     1.415   .     A
C17    C19     1.394   .     A
C18    C20     1.394   .     A
C19    F71     1.362   .     S
C19    C21     1.391   .     A
C20    C22     1.391   .     A
C20    F72     1.362   .     S
C21    C27     1.394   .     A
C21    C23     1.409   .     A
C22    C28     1.394   .     A
C22    C24     1.409   .     A
C23    C25     1.423   .     A
C23    C906    1.412   .     S
C24    C26     1.423   .     A
C24    C905    1.412   1_554 S
C25    C30     1.426   .     A
C26    C29     1.426   .     A
C27    H31     1.083   .     S
C27    C911    1.393   .     S
C28    H32     1.083   .     S
C28    C912    1.393   1_554 S
C29    C73     1.484   .     S
C29    C909    1.393   1_554 S
C30    C84     1.484   .     S
C30    C910    1.393   .     S
C33    F95     1.359   .     S
C33    C38     1.403   .     A
C33    C231    1.384   1_455 S
C34    C37     1.403   .     A
C34    F96     1.359   .     S
C34    C134    1.384   .     S
C35    C37     1.402   .     A
C35    F97     1.359   .     S
C35    C131    1.384   .     S
C36    C38     1.402   .     A
C36    F98     1.359   .     S
C36    C230    1.384   1_455 S
C39    H43     1.082   .     S
C39    N48     1.367   .     A
C39    C630    1.415   1_545 S
C40    N47     1.367   .     A
C40    H44     1.082   .     S
C40    C335    1.415   .     S
C41    N48     1.365   .     A
C41    H45     1.078   .     S
C41    C628    1.415   1_545 S
C42    H46     1.078   .     S
C42    N47     1.365   .     A
C42    C333    1.415   .     S
C49    C54     1.404   .     A
C49    C50     1.406   .     A
C50    C51     1.398   .     A
C50    H55     1.083   .     S
C51    C52     1.397   .     A
C51    H644    1.082   1_545 S
C52    H57     1.082   .     S
C52    C53     1.397   .     A
C53    C54     1.400   .     A
C53    H58     1.081   .     S
C54    H59     1.083   .     S
H56    C345    1.082   .     S
C60    C61     1.404   .     A
C60    C65     1.406   .     A
C61    H66     1.083   .     S
C61    C62     1.400   .     A
C62    H67     1.081   .     S
C62    C63     1.397   .     A
C63    H68     1.082   .     S
C63    C64     1.397   .     A
C64    C65     1.398   .     A
C64    H363    1.082   .     S
C65    H70     1.083   .     S
H69    C652    1.082   1_545 S
C73    C74     1.406   .     A
C73    C78     1.405   .     A
C74    H79     1.083   .     S
C74    C271    1.399   1_455 S
C75    H80     1.082   .     S
C75    C76     1.398   .     A
C75    C172    1.399   .     S
C76    C77     1.397   .     A
C76    H81     1.082   .     S
C77    H82     1.081   .     S
C77    C176    1.397   .     S
C78    H83     1.083   .     S
C78    C273    1.397   1_455 S
C84    C85     1.406   .     A
C84    C89     1.406   .     A
C85    H90     1.083   .     S
C85    C184    1.397   .     S
C86    H91     1.081   .     S
C86    C87     1.397   .     A
C86    C281    1.397   1_455 S
C87    C88     1.398   .     A
C87    H92     1.083   .     S
C88    H93     1.083   .     S
C88    C285    1.399   1_455 S
C89    H94     1.083   .     S
C89    C186    1.399   .     S
O99    C103    1.289   .     A
O99    Cu111   1.958   .     S
O100   C104    1.289   .     A
O100   Cu112   1.958   .     S
O101   C104    1.287   .     A
O101   Cu111   1.958   .     S
O102   C103    1.287   .     A
O102   Cu112   1.958   .     S
C103   C136    1.444   .     S
C104   C135    1.444   .     S
O105   C109    1.290   .     A
O105   Cu111   1.969   .     S
O106   C110    1.290   .     A
O106   Cu112   1.969   .     S
O107   Cu111   1.966   .     S
O107   C110    1.292   .     A
O108   Cu112   1.966   .     S
O108   C109    1.291   .     A
C109   C116    1.458   .     S
C110   C115    1.458   .     S
Cu111  Cu112   2.674   .     S
Cu111  N145    2.010   .     S
Cu112  N146    2.010   .     S
C113   C123    1.424   .     A
C113   C147    1.488   .     S
C113   C115    1.415   .     A
C114   C124    1.424   .     A
C114   C158    1.488   .     S
C114   C116    1.415   .     A
C115   C117    1.394   .     A
C116   C118    1.394   .     A
C117   F169    1.362   .     S
C117   C119    1.391   .     A
C118   C120    1.391   .     A
C118   F170    1.362   .     S
C119   C125    1.394   .     A
C119   C121    1.409   .     A
C120   C126    1.394   .     A
C120   C122    1.409   .     A
C121   C123    1.423   .     A
C121   C1004   1.412   .     S
C122   C124    1.423   .     A
C122   C1003   1.412   1_554 S
C123   C128    1.426   .     A
C124   C127    1.426   .     A
C125   H129    1.083   .     S
C125   C1009   1.393   .     S
C126   H130    1.083   .     S
C126   C1010   1.393   1_554 S
C127   C171    1.484   .     S
C127   C1007   1.393   1_554 S
C128   C182    1.484   .     S
C128   C1008   1.393   .     S
C131   F193    1.359   .     S
C131   C136    1.403   .     A
C132   C135    1.403   .     A
C132   F194    1.359   .     S
C132   C232    1.384   .     S
C133   C135    1.402   .     A
C133   F195    1.359   .     S
C133   C229    1.384   .     S
C134   C136    1.402   .     A
C134   F196    1.359   .     S
C137   H141    1.082   .     S
C137   N146    1.367   .     A
C137   C728    1.415   1_545 S
C138   N145    1.367   .     A
C138   H142    1.082   .     S
C138   C433    1.415   .     S
C139   N146    1.365   .     A
C139   H143    1.078   .     S
C139   C726    1.415   1_545 S
C140   H144    1.078   .     S
C140   N145    1.365   .     A
C140   C431    1.415   .     S
C147   C152    1.404   .     A
C147   C148    1.406   .     A
C148   C149    1.398   .     A
C148   H153    1.083   .     S
C149   C150    1.397   .     A
C149   H742    1.082   1_545 S
C150   H155    1.082   .     S
C150   C151    1.397   .     A
C151   C152    1.400   .     A
C151   H156    1.081   .     S
C152   H157    1.083   .     S
H154   C443    1.082   .     S
C158   C159    1.404   .     A
C158   C163    1.406   .     A
C159   H164    1.083   .     S
C159   C160    1.400   .     A
C160   H165    1.081   .     S
C160   C161    1.397   .     A
C161   H166    1.082   .     S
C161   C162    1.397   .     A
C162   C163    1.398   .     A
C162   H461    1.082   .     S
C163   H168    1.083   .     S
H167   C750    1.082   1_545 S
C171   C172    1.406   .     A
C171   C176    1.405   .     A
C172   H177    1.083   .     S
C173   H178    1.082   .     S
C173   C174    1.398   .     A
C173   C270    1.399   .     S
C174   C175    1.397   .     A
C174   H179    1.082   .     S
C175   H180    1.081   .     S
C175   C274    1.397   .     S
C176   H181    1.083   .     S
C182   C183    1.406   .     A
C182   C187    1.406   .     A
C183   H188    1.083   .     S
C183   C282    1.397   .     S
C184   H189    1.081   .     S
C184   C185    1.397   .     A
C185   C186    1.398   .     A
C185   H190    1.083   .     S
C186   H191    1.083   .     S
C187   H192    1.083   .     S
C187   C284    1.399   .     S
O197   C201    1.289   .     A
O197   Cu209   1.958   .     S
O198   C202    1.289   .     A
O198   Cu210   1.958   .     S
O199   C202    1.287   .     A
O199   Cu209   1.958   .     S
O200   C201    1.287   .     A
O200   Cu210   1.958   .     S
C201   C234    1.444   .     S
C202   C233    1.444   .     S
O203   C207    1.290   .     A
O203   Cu209   1.969   .     S
O204   C208    1.290   .     A
O204   Cu210   1.969   .     S
O205   Cu209   1.966   .     S
O205   C208    1.292   .     A
O206   Cu210   1.966   .     S
O206   C207    1.291   .     A
C207   C214    1.458   .     S
C208   C213    1.458   .     S
Cu209  Cu210   2.674   .     S
Cu209  N243    2.010   .     S
Cu210  N244    2.010   .     S
C211   C221    1.424   .     A
C211   C245    1.488   .     S
C211   C213    1.415   .     A
C212   C222    1.424   .     A
C212   C256    1.488   .     S
C212   C214    1.415   .     A
C213   C215    1.394   .     A
C214   C216    1.394   .     A
C215   F267    1.362   .     S
C215   C217    1.391   .     A
C216   C218    1.391   .     A
C216   F268    1.362   .     S
C217   C223    1.394   .     A
C217   C219    1.409   .     A
C218   C224    1.394   .     A
C218   C220    1.409   .     A
C219   C221    1.423   .     A
C219   C1102   1.412   .     S
C220   C222    1.423   .     A
C220   C1101   1.412   1_554 S
C221   C226    1.426   .     A
C222   C225    1.426   .     A
C223   H227    1.083   .     S
C223   C1107   1.393   .     S
C224   H228    1.083   .     S
C224   C1108   1.393   1_554 S
C225   C269    1.484   .     S
C225   C1105   1.393   1_554 S
C226   C280    1.484   .     S
C226   C1106   1.393   .     S
C229   F291    1.359   .     S
C229   C234    1.403   .     A
C230   C233    1.403   .     A
C230   F292    1.359   .     S
C230   C36     1.384   1_655 S
C231   C233    1.402   .     A
C231   F293    1.359   .     S
C231   C33     1.384   1_655 S
C232   C234    1.402   .     A
C232   F294    1.359   .     S
C235   H239    1.082   .     S
C235   N244    1.367   .     A
C235   C826    1.415   1_545 S
C236   N243    1.367   .     A
C236   H240    1.082   .     S
C236   C531    1.415   .     S
C237   N244    1.365   .     A
C237   H241    1.078   .     S
C237   C824    1.415   1_545 S
C238   H242    1.078   .     S
C238   N243    1.365   .     A
C238   C529    1.415   .     S
C245   C250    1.404   .     A
C245   C246    1.406   .     A
C246   C247    1.398   .     A
C246   H251    1.083   .     S
C247   C248    1.397   .     A
C247   H840    1.082   1_545 S
C248   H253    1.082   .     S
C248   C249    1.397   .     A
C249   C250    1.400   .     A
C249   H254    1.081   .     S
C250   H255    1.083   .     S
H252   C541    1.082   .     S
C256   C257    1.404   .     A
C256   C261    1.406   .     A
C257   H262    1.083   .     S
C257   C258    1.400   .     A
C258   H263    1.081   .     S
C258   C259    1.397   .     A
C259   H264    1.082   .     S
C259   C260    1.397   .     A
C260   C261    1.398   .     A
C260   H559    1.082   .     S
C261   H266    1.083   .     S
H265   C848    1.082   1_545 S
C269   C270    1.406   .     A
C269   C274    1.405   .     A
C270   H275    1.083   .     S
C271   H276    1.082   .     S
C271   C272    1.398   .     A
C271   C74     1.399   1_655 S
C272   C273    1.397   .     A
C272   H277    1.082   .     S
C273   H278    1.081   .     S
C273   C78     1.397   1_655 S
C274   H279    1.083   .     S
C280   C281    1.406   .     A
C280   C285    1.406   .     A
C281   H286    1.083   .     S
C281   C86     1.397   1_655 S
C282   H287    1.081   .     S
C282   C283    1.397   .     A
C283   C284    1.398   .     A
C283   H288    1.083   .     S
C284   H289    1.083   .     S
C285   H290    1.083   .     S
C285   C88     1.399   1_655 S
O295   C299    1.289   .     A
O295   Cu307   1.958   .     S
O296   C300    1.289   .     A
O296   Cu308   1.958   .     S
O297   C300    1.287   .     A
O297   Cu307   1.958   .     S
O298   C299    1.287   .     A
O298   Cu308   1.958   .     S
C299   C332    1.444   .     S
C300   C331    1.444   .     S
O301   C305    1.290   .     A
O301   Cu307   1.969   .     S
O302   C306    1.290   .     A
O302   Cu308   1.969   .     S
O303   Cu307   1.966   .     S
O303   C306    1.292   .     A
O304   Cu308   1.966   .     S
O304   C305    1.291   .     A
C305   C312    1.458   .     S
C306   C311    1.458   .     S
Cu307  Cu308   2.674   .     S
Cu307  N341    2.010   .     S
Cu308  N342    2.010   .     S
C309   C319    1.424   .     A
C309   C343    1.488   .     S
C309   C311    1.415   .     A
C310   C320    1.424   .     A
C310   C354    1.488   .     S
C310   C312    1.415   .     A
C311   C313    1.394   .     A
C312   C314    1.394   .     A
C313   F365    1.362   .     S
C313   C315    1.391   .     A
C314   C316    1.391   .     A
C314   F366    1.362   .     S
C315   C321    1.394   .     A
C315   C317    1.409   .     A
C316   C322    1.394   .     A
C316   C318    1.409   .     A
C317   C319    1.423   .     A
C317   C1200   1.412   .     S
C318   C320    1.423   .     A
C318   C1199   1.412   1_554 S
C319   C324    1.426   .     A
C320   C323    1.426   .     A
C321   H325    1.083   .     S
C321   C1205   1.393   .     S
C322   H326    1.083   .     S
C322   C1206   1.393   1_554 S
C323   C367    1.484   .     S
C323   C1203   1.393   1_554 S
C324   C378    1.484   .     S
C324   C1204   1.393   .     S
C327   F389    1.359   .     S
C327   C332    1.403   .     A
C327   C525    1.384   1_455 S
C328   C331    1.403   .     A
C328   F390    1.359   .     S
C328   C428    1.384   .     S
C329   C331    1.402   .     A
C329   F391    1.359   .     S
C329   C425    1.384   .     S
C330   C332    1.402   .     A
C330   F392    1.359   .     S
C330   C524    1.384   1_455 S
C333   H337    1.082   .     S
C333   N342    1.367   .     A
C334   N341    1.367   .     A
C334   H338    1.082   .     S
C334   C629    1.415   .     S
C335   N342    1.365   .     A
C335   H339    1.078   .     S
C336   H340    1.078   .     S
C336   N341    1.365   .     A
C336   C627    1.415   .     S
C343   C348    1.404   .     A
C343   C344    1.406   .     A
C344   C345    1.398   .     A
C344   H349    1.083   .     S
C345   C346    1.397   .     A
C346   H351    1.082   .     S
C346   C347    1.397   .     A
C347   C348    1.400   .     A
C347   H352    1.081   .     S
C348   H353    1.083   .     S
H350   C639    1.082   .     S
C354   C355    1.404   .     A
C354   C359    1.406   .     A
C355   H360    1.083   .     S
C355   C356    1.400   .     A
C356   H361    1.081   .     S
C356   C357    1.397   .     A
C357   H362    1.082   .     S
C357   C358    1.397   .     A
C358   C359    1.398   .     A
C358   H657    1.082   .     S
C359   H364    1.083   .     S
C367   C368    1.406   .     A
C367   C372    1.405   .     A
C368   H373    1.083   .     S
C368   C565    1.399   1_455 S
C369   H374    1.082   .     S
C369   C370    1.398   .     A
C369   C466    1.399   .     S
C370   C371    1.397   .     A
C370   H375    1.082   .     S
C371   H376    1.081   .     S
C371   C470    1.397   .     S
C372   H377    1.083   .     S
C372   C567    1.397   1_455 S
C378   C379    1.406   .     A
C378   C383    1.406   .     A
C379   H384    1.083   .     S
C379   C478    1.397   .     S
C380   H385    1.081   .     S
C380   C381    1.397   .     A
C380   C575    1.397   1_455 S
C381   C382    1.398   .     A
C381   H386    1.083   .     S
C382   H387    1.083   .     S
C382   C579    1.399   1_455 S
C383   H388    1.083   .     S
C383   C480    1.399   .     S
O393   C397    1.289   .     A
O393   Cu405   1.958   .     S
O394   C398    1.289   .     A
O394   Cu406   1.958   .     S
O395   C398    1.287   .     A
O395   Cu405   1.958   .     S
O396   C397    1.287   .     A
O396   Cu406   1.958   .     S
C397   C430    1.444   .     S
C398   C429    1.444   .     S
O399   C403    1.290   .     A
O399   Cu405   1.969   .     S
O400   C404    1.290   .     A
O400   Cu406   1.969   .     S
O401   Cu405   1.966   .     S
O401   C404    1.292   .     A
O402   Cu406   1.966   .     S
O402   C403    1.291   .     A
C403   C410    1.458   .     S
C404   C409    1.458   .     S
Cu405  Cu406   2.674   .     S
Cu405  N439    2.010   .     S
Cu406  N440    2.010   .     S
C407   C417    1.424   .     A
C407   C441    1.488   .     S
C407   C409    1.415   .     A
C408   C418    1.424   .     A
C408   C452    1.488   .     S
C408   C410    1.415   .     A
C409   C411    1.394   .     A
C410   C412    1.394   .     A
C411   F463    1.362   .     S
C411   C413    1.391   .     A
C412   C414    1.391   .     A
C412   F464    1.362   .     S
C413   C419    1.394   .     A
C413   C415    1.409   .     A
C414   C420    1.394   .     A
C414   C416    1.409   .     A
C415   C417    1.423   .     A
C415   C1298   1.412   .     S
C416   C418    1.423   .     A
C416   C1297   1.412   1_554 S
C417   C422    1.426   .     A
C418   C421    1.426   .     A
C419   H423    1.083   .     S
C419   C1303   1.393   .     S
C420   H424    1.083   .     S
C420   C1304   1.393   1_554 S
C421   C465    1.484   .     S
C421   C1301   1.393   1_554 S
C422   C476    1.484   .     S
C422   C1302   1.393   .     S
C425   F487    1.359   .     S
C425   C430    1.403   .     A
C426   C429    1.403   .     A
C426   F488    1.359   .     S
C426   C526    1.384   .     S
C427   C429    1.402   .     A
C427   F489    1.359   .     S
C427   C523    1.384   .     S
C428   C430    1.402   .     A
C428   F490    1.359   .     S
C431   H435    1.082   .     S
C431   N440    1.367   .     A
C432   N439    1.367   .     A
C432   H436    1.082   .     S
C432   C727    1.415   .     S
C433   N440    1.365   .     A
C433   H437    1.078   .     S
C434   H438    1.078   .     S
C434   N439    1.365   .     A
C434   C725    1.415   .     S
C441   C446    1.404   .     A
C441   C442    1.406   .     A
C442   C443    1.398   .     A
C442   H447    1.083   .     S
C443   C444    1.397   .     A
C444   H449    1.082   .     S
C444   C445    1.397   .     A
C445   C446    1.400   .     A
C445   H450    1.081   .     S
C446   H451    1.083   .     S
H448   C737    1.082   .     S
C452   C453    1.404   .     A
C452   C457    1.406   .     A
C453   H458    1.083   .     S
C453   C454    1.400   .     A
C454   H459    1.081   .     S
C454   C455    1.397   .     A
C455   H460    1.082   .     S
C455   C456    1.397   .     A
C456   C457    1.398   .     A
C456   H755    1.082   .     S
C457   H462    1.083   .     S
C465   C466    1.406   .     A
C465   C470    1.405   .     A
C466   H471    1.083   .     S
C467   H472    1.082   .     S
C467   C468    1.398   .     A
C467   C564    1.399   .     S
C468   C469    1.397   .     A
C468   H473    1.082   .     S
C469   H474    1.081   .     S
C469   C568    1.397   .     S
C470   H475    1.083   .     S
C476   C477    1.406   .     A
C476   C481    1.406   .     A
C477   H482    1.083   .     S
C477   C576    1.397   .     S
C478   H483    1.081   .     S
C478   C479    1.397   .     A
C479   C480    1.398   .     A
C479   H484    1.083   .     S
C480   H485    1.083   .     S
C481   H486    1.083   .     S
C481   C578    1.399   .     S
O491   C495    1.289   .     A
O491   Cu503   1.958   .     S
O492   C496    1.289   .     A
O492   Cu504   1.958   .     S
O493   C496    1.287   .     A
O493   Cu503   1.958   .     S
O494   C495    1.287   .     A
O494   Cu504   1.958   .     S
C495   C528    1.444   .     S
C496   C527    1.444   .     S
O497   C501    1.290   .     A
O497   Cu503   1.969   .     S
O498   C502    1.290   .     A
O498   Cu504   1.969   .     S
O499   Cu503   1.966   .     S
O499   C502    1.292   .     A
O500   Cu504   1.966   .     S
O500   C501    1.291   .     A
C501   C508    1.458   .     S
C502   C507    1.458   .     S
Cu503  Cu504   2.674   .     S
Cu503  N537    2.010   .     S
Cu504  N538    2.010   .     S
C505   C515    1.424   .     A
C505   C539    1.488   .     S
C505   C507    1.415   .     A
C506   C516    1.424   .     A
C506   C550    1.488   .     S
C506   C508    1.415   .     A
C507   C509    1.394   .     A
C508   C510    1.394   .     A
C509   F561    1.362   .     S
C509   C511    1.391   .     A
C510   C512    1.391   .     A
C510   F562    1.362   .     S
C511   C517    1.394   .     A
C511   C513    1.409   .     A
C512   C518    1.394   .     A
C512   C514    1.409   .     A
C513   C515    1.423   .     A
C513   C1396   1.412   .     S
C514   C516    1.423   .     A
C514   C1395   1.412   1_554 S
C515   C520    1.426   .     A
C516   C519    1.426   .     A
C517   H521    1.083   .     S
C517   C1401   1.393   .     S
C518   H522    1.083   .     S
C518   C1402   1.393   1_554 S
C519   C563    1.484   .     S
C519   C1399   1.393   1_554 S
C520   C574    1.484   .     S
C520   C1400   1.393   .     S
C523   F585    1.359   .     S
C523   C528    1.403   .     A
C524   C527    1.403   .     A
C524   F586    1.359   .     S
C524   C330    1.384   1_655 S
C525   C527    1.402   .     A
C525   F587    1.359   .     S
C525   C327    1.384   1_655 S
C526   C528    1.402   .     A
C526   F588    1.359   .     S
C529   H533    1.082   .     S
C529   N538    1.367   .     A
C530   N537    1.367   .     A
C530   H534    1.082   .     S
C530   C825    1.415   .     S
C531   N538    1.365   .     A
C531   H535    1.078   .     S
C532   H536    1.078   .     S
C532   N537    1.365   .     A
C532   C823    1.415   .     S
C539   C544    1.404   .     A
C539   C540    1.406   .     A
C540   C541    1.398   .     A
C540   H545    1.083   .     S
C541   C542    1.397   .     A
C542   H547    1.082   .     S
C542   C543    1.397   .     A
C543   C544    1.400   .     A
C543   H548    1.081   .     S
C544   H549    1.083   .     S
H546   C835    1.082   .     S
C550   C551    1.404   .     A
C550   C555    1.406   .     A
C551   H556    1.083   .     S
C551   C552    1.400   .     A
C552   H557    1.081   .     S
C552   C553    1.397   .     A
C553   H558    1.082   .     S
C553   C554    1.397   .     A
C554   C555    1.398   .     A
C554   H853    1.082   .     S
C555   H560    1.083   .     S
C563   C564    1.406   .     A
C563   C568    1.405   .     A
C564   H569    1.083   .     S
C565   H570    1.082   .     S
C565   C566    1.398   .     A
C565   C368    1.399   1_655 S
C566   C567    1.397   .     A
C566   H571    1.082   .     S
C567   H572    1.081   .     S
C567   C372    1.397   1_655 S
C568   H573    1.083   .     S
C574   C575    1.406   .     A
C574   C579    1.406   .     A
C575   H580    1.083   .     S
C575   C380    1.397   1_655 S
C576   H581    1.081   .     S
C576   C577    1.397   .     A
C577   C578    1.398   .     A
C577   H582    1.083   .     S
C578   H583    1.083   .     S
C579   H584    1.083   .     S
C579   C382    1.399   1_655 S
O589   C593    1.289   .     A
O589   Cu601   1.958   .     S
O590   C594    1.289   .     A
O590   Cu602   1.958   .     S
O591   C594    1.287   .     A
O591   Cu601   1.958   .     S
O592   C593    1.287   .     A
O592   Cu602   1.958   .     S
C593   C626    1.444   .     S
C594   C625    1.444   .     S
O595   C599    1.290   .     A
O595   Cu601   1.969   .     S
O596   C600    1.290   .     A
O596   Cu602   1.969   .     S
O597   Cu601   1.966   .     S
O597   C600    1.292   .     A
O598   Cu602   1.966   .     S
O598   C599    1.291   .     A
C599   C606    1.458   .     S
C600   C605    1.458   .     S
Cu601  Cu602   2.674   .     S
Cu601  N635    2.010   .     S
Cu602  N636    2.010   .     S
C603   C613    1.424   .     A
C603   C637    1.488   .     S
C603   C605    1.415   .     A
C604   C614    1.424   .     A
C604   C648    1.488   .     S
C604   C606    1.415   .     A
C605   C607    1.394   .     A
C606   C608    1.394   .     A
C607   F659    1.362   .     S
C607   C609    1.391   .     A
C608   C610    1.391   .     A
C608   F660    1.362   .     S
C609   C615    1.394   .     A
C609   C611    1.409   .     A
C610   C616    1.394   .     A
C610   C612    1.409   .     A
C611   C613    1.423   .     A
C611   C1494   1.412   .     S
C612   C614    1.423   .     A
C612   C1493   1.412   1_554 S
C613   C618    1.426   .     A
C614   C617    1.426   .     A
C615   H619    1.083   .     S
C615   C1499   1.393   .     S
C616   H620    1.083   .     S
C616   C1500   1.393   1_554 S
C617   C661    1.484   .     S
C617   C1497   1.393   1_554 S
C618   C672    1.484   .     S
C618   C1498   1.393   .     S
C621   F683    1.359   .     S
C621   C626    1.403   .     A
C621   C819    1.384   1_455 S
C622   C625    1.403   .     A
C622   F684    1.359   .     S
C622   C722    1.384   .     S
C623   C625    1.402   .     A
C623   F685    1.359   .     S
C623   C719    1.384   .     S
C624   C626    1.402   .     A
C624   F686    1.359   .     S
C624   C818    1.384   1_455 S
C627   H631    1.082   .     S
C627   N636    1.367   .     A
C628   N635    1.367   .     A
C628   H632    1.082   .     S
C628   C41     1.415   1_565 S
C629   N636    1.365   .     A
C629   H633    1.078   .     S
C630   H634    1.078   .     S
C630   N635    1.365   .     A
C630   C39     1.415   1_565 S
C637   C642    1.404   .     A
C637   C638    1.406   .     A
C638   C639    1.398   .     A
C638   H643    1.083   .     S
C639   C640    1.397   .     A
C640   H645    1.082   .     S
C640   C641    1.397   .     A
C641   C642    1.400   .     A
C641   H646    1.081   .     S
C642   H647    1.083   .     S
H644   C51     1.082   1_565 S
C648   C649    1.404   .     A
C648   C653    1.406   .     A
C649   H654    1.083   .     S
C649   C650    1.400   .     A
C650   H655    1.081   .     S
C650   C651    1.397   .     A
C651   H656    1.082   .     S
C651   C652    1.397   .     A
C652   C653    1.398   .     A
C652   H69     1.082   1_565 S
C653   H658    1.083   .     S
C661   C662    1.406   .     A
C661   C666    1.405   .     A
C662   H667    1.083   .     S
C662   C859    1.399   1_455 S
C663   H668    1.082   .     S
C663   C664    1.398   .     A
C663   C760    1.399   .     S
C664   C665    1.397   .     A
C664   H669    1.082   .     S
C665   H670    1.081   .     S
C665   C764    1.397   .     S
C666   H671    1.083   .     S
C666   C861    1.397   1_455 S
C672   C673    1.406   .     A
C672   C677    1.406   .     A
C673   H678    1.083   .     S
C673   C772    1.397   .     S
C674   H679    1.081   .     S
C674   C675    1.397   .     A
C674   C869    1.397   1_455 S
C675   C676    1.398   .     A
C675   H680    1.083   .     S
C676   H681    1.083   .     S
C676   C873    1.399   1_455 S
C677   H682    1.083   .     S
C677   C774    1.399   .     S
O687   C691    1.289   .     A
O687   Cu699   1.958   .     S
O688   C692    1.289   .     A
O688   Cu700   1.958   .     S
O689   C692    1.287   .     A
O689   Cu699   1.958   .     S
O690   C691    1.287   .     A
O690   Cu700   1.958   .     S
C691   C724    1.444   .     S
C692   C723    1.444   .     S
O693   C697    1.290   .     A
O693   Cu699   1.969   .     S
O694   C698    1.290   .     A
O694   Cu700   1.969   .     S
O695   Cu699   1.966   .     S
O695   C698    1.292   .     A
O696   Cu700   1.966   .     S
O696   C697    1.291   .     A
C697   C704    1.458   .     S
C698   C703    1.458   .     S
Cu699  Cu700   2.674   .     S
Cu699  N733    2.010   .     S
Cu700  N734    2.010   .     S
C701   C711    1.424   .     A
C701   C735    1.488   .     S
C701   C703    1.415   .     A
C702   C712    1.424   .     A
C702   C746    1.488   .     S
C702   C704    1.415   .     A
C703   C705    1.394   .     A
C704   C706    1.394   .     A
C705   F757    1.362   .     S
C705   C707    1.391   .     A
C706   C708    1.391   .     A
C706   F758    1.362   .     S
C707   C713    1.394   .     A
C707   C709    1.409   .     A
C708   C714    1.394   .     A
C708   C710    1.409   .     A
C709   C711    1.423   .     A
C709   C1592   1.412   .     S
C710   C712    1.423   .     A
C710   C1591   1.412   1_554 S
C711   C716    1.426   .     A
C712   C715    1.426   .     A
C713   H717    1.083   .     S
C713   C1597   1.393   .     S
C714   H718    1.083   .     S
C714   C1598   1.393   1_554 S
C715   C759    1.484   .     S
C715   C1595   1.393   1_554 S
C716   C770    1.484   .     S
C716   C1596   1.393   .     S
C719   F781    1.359   .     S
C719   C724    1.403   .     A
C720   C723    1.403   .     A
C720   F782    1.359   .     S
C720   C820    1.384   .     S
C721   C723    1.402   .     A
C721   F783    1.359   .     S
C721   C817    1.384   .     S
C722   C724    1.402   .     A
C722   F784    1.359   .     S
C725   H729    1.082   .     S
C725   N734    1.367   .     A
C726   N733    1.367   .     A
C726   H730    1.082   .     S
C726   C139    1.415   1_565 S
C727   N734    1.365   .     A
C727   H731    1.078   .     S
C728   H732    1.078   .     S
C728   N733    1.365   .     A
C728   C137    1.415   1_565 S
C735   C740    1.404   .     A
C735   C736    1.406   .     A
C736   C737    1.398   .     A
C736   H741    1.083   .     S
C737   C738    1.397   .     A
C738   H743    1.082   .     S
C738   C739    1.397   .     A
C739   C740    1.400   .     A
C739   H744    1.081   .     S
C740   H745    1.083   .     S
H742   C149    1.082   1_565 S
C746   C747    1.404   .     A
C746   C751    1.406   .     A
C747   H752    1.083   .     S
C747   C748    1.400   .     A
C748   H753    1.081   .     S
C748   C749    1.397   .     A
C749   H754    1.082   .     S
C749   C750    1.397   .     A
C750   C751    1.398   .     A
C750   H167    1.082   1_565 S
C751   H756    1.083   .     S
C759   C760    1.406   .     A
C759   C764    1.405   .     A
C760   H765    1.083   .     S
C761   H766    1.082   .     S
C761   C762    1.398   .     A
C761   C858    1.399   .     S
C762   C763    1.397   .     A
C762   H767    1.082   .     S
C763   H768    1.081   .     S
C763   C862    1.397   .     S
C764   H769    1.083   .     S
C770   C771    1.406   .     A
C770   C775    1.406   .     A
C771   H776    1.083   .     S
C771   C870    1.397   .     S
C772   H777    1.081   .     S
C772   C773    1.397   .     A
C773   C774    1.398   .     A
C773   H778    1.083   .     S
C774   H779    1.083   .     S
C775   H780    1.083   .     S
C775   C872    1.399   .     S
O785   C789    1.289   .     A
O785   Cu797   1.958   .     S
O786   C790    1.289   .     A
O786   Cu798   1.958   .     S
O787   C790    1.287   .     A
O787   Cu797   1.958   .     S
O788   C789    1.287   .     A
O788   Cu798   1.958   .     S
C789   C822    1.444   .     S
C790   C821    1.444   .     S
O791   C795    1.290   .     A
O791   Cu797   1.969   .     S
O792   C796    1.290   .     A
O792   Cu798   1.969   .     S
O793   Cu797   1.966   .     S
O793   C796    1.292   .     A
O794   Cu798   1.966   .     S
O794   C795    1.291   .     A
C795   C802    1.458   .     S
C796   C801    1.458   .     S
Cu797  Cu798   2.674   .     S
Cu797  N831    2.010   .     S
Cu798  N832    2.010   .     S
C799   C809    1.424   .     A
C799   C833    1.488   .     S
C799   C801    1.415   .     A
C800   C810    1.424   .     A
C800   C844    1.488   .     S
C800   C802    1.415   .     A
C801   C803    1.394   .     A
C802   C804    1.394   .     A
C803   F855    1.362   .     S
C803   C805    1.391   .     A
C804   C806    1.391   .     A
C804   F856    1.362   .     S
C805   C811    1.394   .     A
C805   C807    1.409   .     A
C806   C812    1.394   .     A
C806   C808    1.409   .     A
C807   C809    1.423   .     A
C807   C1690   1.412   .     S
C808   C810    1.423   .     A
C808   C1689   1.412   1_554 S
C809   C814    1.426   .     A
C810   C813    1.426   .     A
C811   H815    1.083   .     S
C811   C1695   1.393   .     S
C812   H816    1.083   .     S
C812   C1696   1.393   1_554 S
C813   C857    1.484   .     S
C813   C1693   1.393   1_554 S
C814   C868    1.484   .     S
C814   C1694   1.393   .     S
C817   F879    1.359   .     S
C817   C822    1.403   .     A
C818   C821    1.403   .     A
C818   F880    1.359   .     S
C818   C624    1.384   1_655 S
C819   C821    1.402   .     A
C819   F881    1.359   .     S
C819   C621    1.384   1_655 S
C820   C822    1.402   .     A
C820   F882    1.359   .     S
C823   H827    1.082   .     S
C823   N832    1.367   .     A
C824   N831    1.367   .     A
C824   H828    1.082   .     S
C824   C237    1.415   1_565 S
C825   N832    1.365   .     A
C825   H829    1.078   .     S
C826   H830    1.078   .     S
C826   N831    1.365   .     A
C826   C235    1.415   1_565 S
C833   C838    1.404   .     A
C833   C834    1.406   .     A
C834   C835    1.398   .     A
C834   H839    1.083   .     S
C835   C836    1.397   .     A
C836   H841    1.082   .     S
C836   C837    1.397   .     A
C837   C838    1.400   .     A
C837   H842    1.081   .     S
C838   H843    1.083   .     S
H840   C247    1.082   1_565 S
C844   C845    1.404   .     A
C844   C849    1.406   .     A
C845   H850    1.083   .     S
C845   C846    1.400   .     A
C846   H851    1.081   .     S
C846   C847    1.397   .     A
C847   H852    1.082   .     S
C847   C848    1.397   .     A
C848   C849    1.398   .     A
C848   H265    1.082   1_565 S
C849   H854    1.083   .     S
C857   C858    1.406   .     A
C857   C862    1.405   .     A
C858   H863    1.083   .     S
C859   H864    1.082   .     S
C859   C860    1.398   .     A
C859   C662    1.399   1_655 S
C860   C861    1.397   .     A
C860   H865    1.082   .     S
C861   H866    1.081   .     S
C861   C666    1.397   1_655 S
C862   H867    1.083   .     S
C868   C869    1.406   .     A
C868   C873    1.406   .     A
C869   H874    1.083   .     S
C869   C674    1.397   1_655 S
C870   H875    1.081   .     S
C870   C871    1.397   .     A
C871   C872    1.398   .     A
C871   H876    1.083   .     S
C872   H877    1.083   .     S
C873   H878    1.083   .     S
C873   C676    1.399   1_655 S
O883   C887    1.289   .     A
O883   Cu895   1.958   .     S
O884   C888    1.289   .     A
O884   Cu896   1.958   .     S
O885   C888    1.287   .     A
O885   Cu895   1.958   .     S
O886   C887    1.287   .     A
O886   Cu896   1.958   .     S
C887   C920    1.444   .     S
C888   C919    1.444   .     S
O889   C893    1.290   .     A
O889   Cu895   1.969   .     S
O890   C894    1.290   .     A
O890   Cu896   1.969   .     S
O891   Cu895   1.966   .     S
O891   C894    1.292   .     A
O892   Cu896   1.966   .     S
O892   C893    1.291   .     A
C893   C900    1.458   .     S
C894   C899    1.458   .     S
Cu895  Cu896   2.674   .     S
Cu895  N929    2.010   .     S
Cu896  N930    2.010   .     S
C897   C907    1.424   .     A
C897   C931    1.488   .     S
C897   C899    1.415   .     A
C898   C908    1.424   .     A
C898   C942    1.488   .     S
C898   C900    1.415   .     A
C899   C901    1.394   .     A
C900   C902    1.394   .     A
C901   F953    1.362   .     S
C901   C903    1.391   .     A
C902   C904    1.391   .     A
C902   F954    1.362   .     S
C903   C909    1.394   .     A
C903   C905    1.409   .     A
C904   C910    1.394   .     A
C904   C906    1.409   .     A
C905   C907    1.423   .     A
C905   C24     1.412   1_556 S
C906   C908    1.423   .     A
C907   C912    1.426   .     A
C908   C911    1.426   .     A
C909   H913    1.083   .     S
C909   C29     1.393   1_556 S
C910   H914    1.083   .     S
C911   C955    1.484   .     S
C912   C966    1.484   .     S
C912   C28     1.393   1_556 S
C915   F977    1.359   .     S
C915   C920    1.403   .     A
C915   C1113   1.384   1_455 S
C916   C919    1.403   .     A
C916   F978    1.359   .     S
C916   C1016   1.384   .     S
C917   C919    1.402   .     A
C917   F979    1.359   .     S
C917   C1013   1.384   .     S
C918   C920    1.402   .     A
C918   F980    1.359   .     S
C918   C1112   1.384   1_455 S
C921   H925    1.082   .     S
C921   N930    1.367   .     A
C921   C1512   1.415   1_545 S
C922   N929    1.367   .     A
C922   H926    1.082   .     S
C922   C1217   1.415   .     S
C923   N930    1.365   .     A
C923   H927    1.078   .     S
C923   C1510   1.415   1_545 S
C924   H928    1.078   .     S
C924   N929    1.365   .     A
C924   C1215   1.415   .     S
C931   C936    1.404   .     A
C931   C932    1.406   .     A
C932   C933    1.398   .     A
C932   H937    1.083   .     S
C933   C934    1.397   .     A
C933   H1526   1.082   1_545 S
C934   H939    1.082   .     S
C934   C935    1.397   .     A
C935   C936    1.400   .     A
C935   H940    1.081   .     S
C936   H941    1.083   .     S
H938   C1227   1.082   .     S
C942   C943    1.404   .     A
C942   C947    1.406   .     A
C943   H948    1.083   .     S
C943   C944    1.400   .     A
C944   H949    1.081   .     S
C944   C945    1.397   .     A
C945   H950    1.082   .     S
C945   C946    1.397   .     A
C946   C947    1.398   .     A
C946   H1245   1.082   .     S
C947   H952    1.083   .     S
H951   C1534   1.082   1_545 S
C955   C956    1.406   .     A
C955   C960    1.405   .     A
C956   H961    1.083   .     S
C956   C1153   1.399   1_455 S
C957   H962    1.082   .     S
C957   C958    1.398   .     A
C957   C1054   1.399   .     S
C958   C959    1.397   .     A
C958   H963    1.082   .     S
C959   H964    1.081   .     S
C959   C1058   1.397   .     S
C960   H965    1.083   .     S
C960   C1155   1.397   1_455 S
C966   C967    1.406   .     A
C966   C971    1.406   .     A
C967   H972    1.083   .     S
C967   C1066   1.397   .     S
C968   H973    1.081   .     S
C968   C969    1.397   .     A
C968   C1163   1.397   1_455 S
C969   C970    1.398   .     A
C969   H974    1.083   .     S
C970   H975    1.083   .     S
C970   C1167   1.399   1_455 S
C971   H976    1.083   .     S
C971   C1068   1.399   .     S
O981   C985    1.289   .     A
O981   Cu993   1.958   .     S
O982   C986    1.289   .     A
O982   Cu994   1.958   .     S
O983   C986    1.287   .     A
O983   Cu993   1.958   .     S
O984   C985    1.287   .     A
O984   Cu994   1.958   .     S
C985   C1018   1.444   .     S
C986   C1017   1.444   .     S
O987   C991    1.290   .     A
O987   Cu993   1.969   .     S
O988   C992    1.290   .     A
O988   Cu994   1.969   .     S
O989   Cu993   1.966   .     S
O989   C992    1.292   .     A
O990   Cu994   1.966   .     S
O990   C991    1.291   .     A
C991   C998    1.458   .     S
C992   C997    1.458   .     S
Cu993  Cu994   2.674   .     S
Cu993  N1027   2.010   .     S
Cu994  N1028   2.010   .     S
C995   C1005   1.424   .     A
C995   C1029   1.488   .     S
C995   C997    1.415   .     A
C996   C1006   1.424   .     A
C996   C1040   1.488   .     S
C996   C998    1.415   .     A
C997   C999    1.394   .     A
C998   C1000   1.394   .     A
C999   F1051   1.362   .     S
C999   C1001   1.391   .     A
C1000  C1002   1.391   .     A
C1000  F1052   1.362   .     S
C1001  C1007   1.394   .     A
C1001  C1003   1.409   .     A
C1002  C1008   1.394   .     A
C1002  C1004   1.409   .     A
C1003  C1005   1.423   .     A
C1003  C122    1.412   1_556 S
C1004  C1006   1.423   .     A
C1005  C1010   1.426   .     A
C1006  C1009   1.426   .     A
C1007  H1011   1.083   .     S
C1007  C127    1.393   1_556 S
C1008  H1012   1.083   .     S
C1009  C1053   1.484   .     S
C1010  C1064   1.484   .     S
C1010  C126    1.393   1_556 S
C1013  F1075   1.359   .     S
C1013  C1018   1.403   .     A
C1014  C1017   1.403   .     A
C1014  F1076   1.359   .     S
C1014  C1114   1.384   .     S
C1015  C1017   1.402   .     A
C1015  F1077   1.359   .     S
C1015  C1111   1.384   .     S
C1016  C1018   1.402   .     A
C1016  F1078   1.359   .     S
C1019  H1023   1.082   .     S
C1019  N1028   1.367   .     A
C1019  C1610   1.415   1_545 S
C1020  N1027   1.367   .     A
C1020  H1024   1.082   .     S
C1020  C1315   1.415   .     S
C1021  N1028   1.365   .     A
C1021  H1025   1.078   .     S
C1021  C1608   1.415   1_545 S
C1022  H1026   1.078   .     S
C1022  N1027   1.365   .     A
C1022  C1313   1.415   .     S
C1029  C1034   1.404   .     A
C1029  C1030   1.406   .     A
C1030  C1031   1.398   .     A
C1030  H1035   1.083   .     S
C1031  C1032   1.397   .     A
C1031  H1624   1.082   1_545 S
C1032  H1037   1.082   .     S
C1032  C1033   1.397   .     A
C1033  C1034   1.400   .     A
C1033  H1038   1.081   .     S
C1034  H1039   1.083   .     S
H1036  C1325   1.082   .     S
C1040  C1041   1.404   .     A
C1040  C1045   1.406   .     A
C1041  H1046   1.083   .     S
C1041  C1042   1.400   .     A
C1042  H1047   1.081   .     S
C1042  C1043   1.397   .     A
C1043  H1048   1.082   .     S
C1043  C1044   1.397   .     A
C1044  C1045   1.398   .     A
C1044  H1343   1.082   .     S
C1045  H1050   1.083   .     S
H1049  C1632   1.082   1_545 S
C1053  C1054   1.406   .     A
C1053  C1058   1.405   .     A
C1054  H1059   1.083   .     S
C1055  H1060   1.082   .     S
C1055  C1056   1.398   .     A
C1055  C1152   1.399   .     S
C1056  C1057   1.397   .     A
C1056  H1061   1.082   .     S
C1057  H1062   1.081   .     S
C1057  C1156   1.397   .     S
C1058  H1063   1.083   .     S
C1064  C1065   1.406   .     A
C1064  C1069   1.406   .     A
C1065  H1070   1.083   .     S
C1065  C1164   1.397   .     S
C1066  H1071   1.081   .     S
C1066  C1067   1.397   .     A
C1067  C1068   1.398   .     A
C1067  H1072   1.083   .     S
C1068  H1073   1.083   .     S
C1069  H1074   1.083   .     S
C1069  C1166   1.399   .     S
O1079  C1083   1.289   .     A
O1079  Cu1091  1.958   .     S
O1080  C1084   1.289   .     A
O1080  Cu1092  1.958   .     S
O1081  C1084   1.287   .     A
O1081  Cu1091  1.958   .     S
O1082  C1083   1.287   .     A
O1082  Cu1092  1.958   .     S
C1083  C1116   1.444   .     S
C1084  C1115   1.444   .     S
O1085  C1089   1.290   .     A
O1085  Cu1091  1.969   .     S
O1086  C1090   1.290   .     A
O1086  Cu1092  1.969   .     S
O1087  Cu1091  1.966   .     S
O1087  C1090   1.292   .     A
O1088  Cu1092  1.966   .     S
O1088  C1089   1.291   .     A
C1089  C1096   1.458   .     S
C1090  C1095   1.458   .     S
Cu1091 Cu1092  2.674   .     S
Cu1091 N1125   2.010   .     S
Cu1092 N1126   2.010   .     S
C1093  C1103   1.424   .     A
C1093  C1127   1.488   .     S
C1093  C1095   1.415   .     A
C1094  C1104   1.424   .     A
C1094  C1138   1.488   .     S
C1094  C1096   1.415   .     A
C1095  C1097   1.394   .     A
C1096  C1098   1.394   .     A
C1097  F1149   1.362   .     S
C1097  C1099   1.391   .     A
C1098  C1100   1.391   .     A
C1098  F1150   1.362   .     S
C1099  C1105   1.394   .     A
C1099  C1101   1.409   .     A
C1100  C1106   1.394   .     A
C1100  C1102   1.409   .     A
C1101  C1103   1.423   .     A
C1101  C220    1.412   1_556 S
C1102  C1104   1.423   .     A
C1103  C1108   1.426   .     A
C1104  C1107   1.426   .     A
C1105  H1109   1.083   .     S
C1105  C225    1.393   1_556 S
C1106  H1110   1.083   .     S
C1107  C1151   1.484   .     S
C1108  C1162   1.484   .     S
C1108  C224    1.393   1_556 S
C1111  F1173   1.359   .     S
C1111  C1116   1.403   .     A
C1112  C1115   1.403   .     A
C1112  F1174   1.359   .     S
C1112  C918    1.384   1_655 S
C1113  C1115   1.402   .     A
C1113  F1175   1.359   .     S
C1113  C915    1.384   1_655 S
C1114  C1116   1.402   .     A
C1114  F1176   1.359   .     S
C1117  H1121   1.082   .     S
C1117  N1126   1.367   .     A
C1117  C1708   1.415   1_545 S
C1118  N1125   1.367   .     A
C1118  H1122   1.082   .     S
C1118  C1413   1.415   .     S
C1119  N1126   1.365   .     A
C1119  H1123   1.078   .     S
C1119  C1706   1.415   1_545 S
C1120  H1124   1.078   .     S
C1120  N1125   1.365   .     A
C1120  C1411   1.415   .     S
C1127  C1132   1.404   .     A
C1127  C1128   1.406   .     A
C1128  C1129   1.398   .     A
C1128  H1133   1.083   .     S
C1129  C1130   1.397   .     A
C1129  H1722   1.082   1_545 S
C1130  H1135   1.082   .     S
C1130  C1131   1.397   .     A
C1131  C1132   1.400   .     A
C1131  H1136   1.081   .     S
C1132  H1137   1.083   .     S
H1134  C1423   1.082   .     S
C1138  C1139   1.404   .     A
C1138  C1143   1.406   .     A
C1139  H1144   1.083   .     S
C1139  C1140   1.400   .     A
C1140  H1145   1.081   .     S
C1140  C1141   1.397   .     A
C1141  H1146   1.082   .     S
C1141  C1142   1.397   .     A
C1142  C1143   1.398   .     A
C1142  H1441   1.082   .     S
C1143  H1148   1.083   .     S
H1147  C1730   1.082   1_545 S
C1151  C1152   1.406   .     A
C1151  C1156   1.405   .     A
C1152  H1157   1.083   .     S
C1153  H1158   1.082   .     S
C1153  C1154   1.398   .     A
C1153  C956    1.399   1_655 S
C1154  C1155   1.397   .     A
C1154  H1159   1.082   .     S
C1155  H1160   1.081   .     S
C1155  C960    1.397   1_655 S
C1156  H1161   1.083   .     S
C1162  C1163   1.406   .     A
C1162  C1167   1.406   .     A
C1163  H1168   1.083   .     S
C1163  C968    1.397   1_655 S
C1164  H1169   1.081   .     S
C1164  C1165   1.397   .     A
C1165  C1166   1.398   .     A
C1165  H1170   1.083   .     S
C1166  H1171   1.083   .     S
C1167  H1172   1.083   .     S
C1167  C970    1.399   1_655 S
O1177  C1181   1.289   .     A
O1177  Cu1189  1.958   .     S
O1178  C1182   1.289   .     A
O1178  Cu1190  1.958   .     S
O1179  C1182   1.287   .     A
O1179  Cu1189  1.958   .     S
O1180  C1181   1.287   .     A
O1180  Cu1190  1.958   .     S
C1181  C1214   1.444   .     S
C1182  C1213   1.444   .     S
O1183  C1187   1.290   .     A
O1183  Cu1189  1.969   .     S
O1184  C1188   1.290   .     A
O1184  Cu1190  1.969   .     S
O1185  Cu1189  1.966   .     S
O1185  C1188   1.292   .     A
O1186  Cu1190  1.966   .     S
O1186  C1187   1.291   .     A
C1187  C1194   1.458   .     S
C1188  C1193   1.458   .     S
Cu1189 Cu1190  2.674   .     S
Cu1189 N1223   2.010   .     S
Cu1190 N1224   2.010   .     S
C1191  C1201   1.424   .     A
C1191  C1225   1.488   .     S
C1191  C1193   1.415   .     A
C1192  C1202   1.424   .     A
C1192  C1236   1.488   .     S
C1192  C1194   1.415   .     A
C1193  C1195   1.394   .     A
C1194  C1196   1.394   .     A
C1195  F1247   1.362   .     S
C1195  C1197   1.391   .     A
C1196  C1198   1.391   .     A
C1196  F1248   1.362   .     S
C1197  C1203   1.394   .     A
C1197  C1199   1.409   .     A
C1198  C1204   1.394   .     A
C1198  C1200   1.409   .     A
C1199  C1201   1.423   .     A
C1199  C318    1.412   1_556 S
C1200  C1202   1.423   .     A
C1201  C1206   1.426   .     A
C1202  C1205   1.426   .     A
C1203  H1207   1.083   .     S
C1203  C323    1.393   1_556 S
C1204  H1208   1.083   .     S
C1205  C1249   1.484   .     S
C1206  C1260   1.484   .     S
C1206  C322    1.393   1_556 S
C1209  F1271   1.359   .     S
C1209  C1214   1.403   .     A
C1209  C1407   1.384   1_455 S
C1210  C1213   1.403   .     A
C1210  F1272   1.359   .     S
C1210  C1310   1.384   .     S
C1211  C1213   1.402   .     A
C1211  F1273   1.359   .     S
C1211  C1307   1.384   .     S
C1212  C1214   1.402   .     A
C1212  F1274   1.359   .     S
C1212  C1406   1.384   1_455 S
C1215  H1219   1.082   .     S
C1215  N1224   1.367   .     A
C1216  N1223   1.367   .     A
C1216  H1220   1.082   .     S
C1216  C1511   1.415   .     S
C1217  N1224   1.365   .     A
C1217  H1221   1.078   .     S
C1218  H1222   1.078   .     S
C1218  N1223   1.365   .     A
C1218  C1509   1.415   .     S
C1225  C1230   1.404   .     A
C1225  C1226   1.406   .     A
C1226  C1227   1.398   .     A
C1226  H1231   1.083   .     S
C1227  C1228   1.397   .     A
C1228  H1233   1.082   .     S
C1228  C1229   1.397   .     A
C1229  C1230   1.400   .     A
C1229  H1234   1.081   .     S
C1230  H1235   1.083   .     S
H1232  C1521   1.082   .     S
C1236  C1237   1.404   .     A
C1236  C1241   1.406   .     A
C1237  H1242   1.083   .     S
C1237  C1238   1.400   .     A
C1238  H1243   1.081   .     S
C1238  C1239   1.397   .     A
C1239  H1244   1.082   .     S
C1239  C1240   1.397   .     A
C1240  C1241   1.398   .     A
C1240  H1539   1.082   .     S
C1241  H1246   1.083   .     S
C1249  C1250   1.406   .     A
C1249  C1254   1.405   .     A
C1250  H1255   1.083   .     S
C1250  C1447   1.399   1_455 S
C1251  H1256   1.082   .     S
C1251  C1252   1.398   .     A
C1251  C1348   1.399   .     S
C1252  C1253   1.397   .     A
C1252  H1257   1.082   .     S
C1253  H1258   1.081   .     S
C1253  C1352   1.397   .     S
C1254  H1259   1.083   .     S
C1254  C1449   1.397   1_455 S
C1260  C1261   1.406   .     A
C1260  C1265   1.406   .     A
C1261  H1266   1.083   .     S
C1261  C1360   1.397   .     S
C1262  H1267   1.081   .     S
C1262  C1263   1.397   .     A
C1262  C1457   1.397   1_455 S
C1263  C1264   1.398   .     A
C1263  H1268   1.083   .     S
C1264  H1269   1.083   .     S
C1264  C1461   1.399   1_455 S
C1265  H1270   1.083   .     S
C1265  C1362   1.399   .     S
O1275  C1279   1.289   .     A
O1275  Cu1287  1.958   .     S
O1276  C1280   1.289   .     A
O1276  Cu1288  1.958   .     S
O1277  C1280   1.287   .     A
O1277  Cu1287  1.958   .     S
O1278  C1279   1.287   .     A
O1278  Cu1288  1.958   .     S
C1279  C1312   1.444   .     S
C1280  C1311   1.444   .     S
O1281  C1285   1.290   .     A
O1281  Cu1287  1.969   .     S
O1282  C1286   1.290   .     A
O1282  Cu1288  1.969   .     S
O1283  Cu1287  1.966   .     S
O1283  C1286   1.292   .     A
O1284  Cu1288  1.966   .     S
O1284  C1285   1.291   .     A
C1285  C1292   1.458   .     S
C1286  C1291   1.458   .     S
Cu1287 Cu1288  2.674   .     S
Cu1287 N1321   2.010   .     S
Cu1288 N1322   2.010   .     S
C1289  C1299   1.424   .     A
C1289  C1323   1.488   .     S
C1289  C1291   1.415   .     A
C1290  C1300   1.424   .     A
C1290  C1334   1.488   .     S
C1290  C1292   1.415   .     A
C1291  C1293   1.394   .     A
C1292  C1294   1.394   .     A
C1293  F1345   1.362   .     S
C1293  C1295   1.391   .     A
C1294  C1296   1.391   .     A
C1294  F1346   1.362   .     S
C1295  C1301   1.394   .     A
C1295  C1297   1.409   .     A
C1296  C1302   1.394   .     A
C1296  C1298   1.409   .     A
C1297  C1299   1.423   .     A
C1297  C416    1.412   1_556 S
C1298  C1300   1.423   .     A
C1299  C1304   1.426   .     A
C1300  C1303   1.426   .     A
C1301  H1305   1.083   .     S
C1301  C421    1.393   1_556 S
C1302  H1306   1.083   .     S
C1303  C1347   1.484   .     S
C1304  C1358   1.484   .     S
C1304  C420    1.393   1_556 S
C1307  F1369   1.359   .     S
C1307  C1312   1.403   .     A
C1308  C1311   1.403   .     A
C1308  F1370   1.359   .     S
C1308  C1408   1.384   .     S
C1309  C1311   1.402   .     A
C1309  F1371   1.359   .     S
C1309  C1405   1.384   .     S
C1310  C1312   1.402   .     A
C1310  F1372   1.359   .     S
C1313  H1317   1.082   .     S
C1313  N1322   1.367   .     A
C1314  N1321   1.367   .     A
C1314  H1318   1.082   .     S
C1314  C1609   1.415   .     S
C1315  N1322   1.365   .     A
C1315  H1319   1.078   .     S
C1316  H1320   1.078   .     S
C1316  N1321   1.365   .     A
C1316  C1607   1.415   .     S
C1323  C1328   1.404   .     A
C1323  C1324   1.406   .     A
C1324  C1325   1.398   .     A
C1324  H1329   1.083   .     S
C1325  C1326   1.397   .     A
C1326  H1331   1.082   .     S
C1326  C1327   1.397   .     A
C1327  C1328   1.400   .     A
C1327  H1332   1.081   .     S
C1328  H1333   1.083   .     S
H1330  C1619   1.082   .     S
C1334  C1335   1.404   .     A
C1334  C1339   1.406   .     A
C1335  H1340   1.083   .     S
C1335  C1336   1.400   .     A
C1336  H1341   1.081   .     S
C1336  C1337   1.397   .     A
C1337  H1342   1.082   .     S
C1337  C1338   1.397   .     A
C1338  C1339   1.398   .     A
C1338  H1637   1.082   .     S
C1339  H1344   1.083   .     S
C1347  C1348   1.406   .     A
C1347  C1352   1.405   .     A
C1348  H1353   1.083   .     S
C1349  H1354   1.082   .     S
C1349  C1350   1.398   .     A
C1349  C1446   1.399   .     S
C1350  C1351   1.397   .     A
C1350  H1355   1.082   .     S
C1351  H1356   1.081   .     S
C1351  C1450   1.397   .     S
C1352  H1357   1.083   .     S
C1358  C1359   1.406   .     A
C1358  C1363   1.406   .     A
C1359  H1364   1.083   .     S
C1359  C1458   1.397   .     S
C1360  H1365   1.081   .     S
C1360  C1361   1.397   .     A
C1361  C1362   1.398   .     A
C1361  H1366   1.083   .     S
C1362  H1367   1.083   .     S
C1363  H1368   1.083   .     S
C1363  C1460   1.399   .     S
O1373  C1377   1.289   .     A
O1373  Cu1385  1.958   .     S
O1374  C1378   1.289   .     A
O1374  Cu1386  1.958   .     S
O1375  C1378   1.287   .     A
O1375  Cu1385  1.958   .     S
O1376  C1377   1.287   .     A
O1376  Cu1386  1.958   .     S
C1377  C1410   1.444   .     S
C1378  C1409   1.444   .     S
O1379  C1383   1.290   .     A
O1379  Cu1385  1.969   .     S
O1380  C1384   1.290   .     A
O1380  Cu1386  1.969   .     S
O1381  Cu1385  1.966   .     S
O1381  C1384   1.292   .     A
O1382  Cu1386  1.966   .     S
O1382  C1383   1.291   .     A
C1383  C1390   1.458   .     S
C1384  C1389   1.458   .     S
Cu1385 Cu1386  2.674   .     S
Cu1385 N1419   2.010   .     S
Cu1386 N1420   2.010   .     S
C1387  C1397   1.424   .     A
C1387  C1421   1.488   .     S
C1387  C1389   1.415   .     A
C1388  C1398   1.424   .     A
C1388  C1432   1.488   .     S
C1388  C1390   1.415   .     A
C1389  C1391   1.394   .     A
C1390  C1392   1.394   .     A
C1391  F1443   1.362   .     S
C1391  C1393   1.391   .     A
C1392  C1394   1.391   .     A
C1392  F1444   1.362   .     S
C1393  C1399   1.394   .     A
C1393  C1395   1.409   .     A
C1394  C1400   1.394   .     A
C1394  C1396   1.409   .     A
C1395  C1397   1.423   .     A
C1395  C514    1.412   1_556 S
C1396  C1398   1.423   .     A
C1397  C1402   1.426   .     A
C1398  C1401   1.426   .     A
C1399  H1403   1.083   .     S
C1399  C519    1.393   1_556 S
C1400  H1404   1.083   .     S
C1401  C1445   1.484   .     S
C1402  C1456   1.484   .     S
C1402  C518    1.393   1_556 S
C1405  F1467   1.359   .     S
C1405  C1410   1.403   .     A
C1406  C1409   1.403   .     A
C1406  F1468   1.359   .     S
C1406  C1212   1.384   1_655 S
C1407  C1409   1.402   .     A
C1407  F1469   1.359   .     S
C1407  C1209   1.384   1_655 S
C1408  C1410   1.402   .     A
C1408  F1470   1.359   .     S
C1411  H1415   1.082   .     S
C1411  N1420   1.367   .     A
C1412  N1419   1.367   .     A
C1412  H1416   1.082   .     S
C1412  C1707   1.415   .     S
C1413  N1420   1.365   .     A
C1413  H1417   1.078   .     S
C1414  H1418   1.078   .     S
C1414  N1419   1.365   .     A
C1414  C1705   1.415   .     S
C1421  C1426   1.404   .     A
C1421  C1422   1.406   .     A
C1422  C1423   1.398   .     A
C1422  H1427   1.083   .     S
C1423  C1424   1.397   .     A
C1424  H1429   1.082   .     S
C1424  C1425   1.397   .     A
C1425  C1426   1.400   .     A
C1425  H1430   1.081   .     S
C1426  H1431   1.083   .     S
H1428  C1717   1.082   .     S
C1432  C1433   1.404   .     A
C1432  C1437   1.406   .     A
C1433  H1438   1.083   .     S
C1433  C1434   1.400   .     A
C1434  H1439   1.081   .     S
C1434  C1435   1.397   .     A
C1435  H1440   1.082   .     S
C1435  C1436   1.397   .     A
C1436  C1437   1.398   .     A
C1436  H1735   1.082   .     S
C1437  H1442   1.083   .     S
C1445  C1446   1.406   .     A
C1445  C1450   1.405   .     A
C1446  H1451   1.083   .     S
C1447  H1452   1.082   .     S
C1447  C1448   1.398   .     A
C1447  C1250   1.399   1_655 S
C1448  C1449   1.397   .     A
C1448  H1453   1.082   .     S
C1449  H1454   1.081   .     S
C1449  C1254   1.397   1_655 S
C1450  H1455   1.083   .     S
C1456  C1457   1.406   .     A
C1456  C1461   1.406   .     A
C1457  H1462   1.083   .     S
C1457  C1262   1.397   1_655 S
C1458  H1463   1.081   .     S
C1458  C1459   1.397   .     A
C1459  C1460   1.398   .     A
C1459  H1464   1.083   .     S
C1460  H1465   1.083   .     S
C1461  H1466   1.083   .     S
C1461  C1264   1.399   1_655 S
O1471  C1475   1.289   .     A
O1471  Cu1483  1.958   .     S
O1472  C1476   1.289   .     A
O1472  Cu1484  1.958   .     S
O1473  C1476   1.287   .     A
O1473  Cu1483  1.958   .     S
O1474  C1475   1.287   .     A
O1474  Cu1484  1.958   .     S
C1475  C1508   1.444   .     S
C1476  C1507   1.444   .     S
O1477  C1481   1.290   .     A
O1477  Cu1483  1.969   .     S
O1478  C1482   1.290   .     A
O1478  Cu1484  1.969   .     S
O1479  Cu1483  1.966   .     S
O1479  C1482   1.292   .     A
O1480  Cu1484  1.966   .     S
O1480  C1481   1.291   .     A
C1481  C1488   1.458   .     S
C1482  C1487   1.458   .     S
Cu1483 Cu1484  2.674   .     S
Cu1483 N1517   2.010   .     S
Cu1484 N1518   2.010   .     S
C1485  C1495   1.424   .     A
C1485  C1519   1.488   .     S
C1485  C1487   1.415   .     A
C1486  C1496   1.424   .     A
C1486  C1530   1.488   .     S
C1486  C1488   1.415   .     A
C1487  C1489   1.394   .     A
C1488  C1490   1.394   .     A
C1489  F1541   1.362   .     S
C1489  C1491   1.391   .     A
C1490  C1492   1.391   .     A
C1490  F1542   1.362   .     S
C1491  C1497   1.394   .     A
C1491  C1493   1.409   .     A
C1492  C1498   1.394   .     A
C1492  C1494   1.409   .     A
C1493  C1495   1.423   .     A
C1493  C612    1.412   1_556 S
C1494  C1496   1.423   .     A
C1495  C1500   1.426   .     A
C1496  C1499   1.426   .     A
C1497  H1501   1.083   .     S
C1497  C617    1.393   1_556 S
C1498  H1502   1.083   .     S
C1499  C1543   1.484   .     S
C1500  C1554   1.484   .     S
C1500  C616    1.393   1_556 S
C1503  F1565   1.359   .     S
C1503  C1508   1.403   .     A
C1503  C1701   1.384   1_455 S
C1504  C1507   1.403   .     A
C1504  F1566   1.359   .     S
C1504  C1604   1.384   .     S
C1505  C1507   1.402   .     A
C1505  F1567   1.359   .     S
C1505  C1601   1.384   .     S
C1506  C1508   1.402   .     A
C1506  F1568   1.359   .     S
C1506  C1700   1.384   1_455 S
C1509  H1513   1.082   .     S
C1509  N1518   1.367   .     A
C1510  N1517   1.367   .     A
C1510  H1514   1.082   .     S
C1510  C923    1.415   1_565 S
C1511  N1518   1.365   .     A
C1511  H1515   1.078   .     S
C1512  H1516   1.078   .     S
C1512  N1517   1.365   .     A
C1512  C921    1.415   1_565 S
C1519  C1524   1.404   .     A
C1519  C1520   1.406   .     A
C1520  C1521   1.398   .     A
C1520  H1525   1.083   .     S
C1521  C1522   1.397   .     A
C1522  H1527   1.082   .     S
C1522  C1523   1.397   .     A
C1523  C1524   1.400   .     A
C1523  H1528   1.081   .     S
C1524  H1529   1.083   .     S
H1526  C933    1.082   1_565 S
C1530  C1531   1.404   .     A
C1530  C1535   1.406   .     A
C1531  H1536   1.083   .     S
C1531  C1532   1.400   .     A
C1532  H1537   1.081   .     S
C1532  C1533   1.397   .     A
C1533  H1538   1.082   .     S
C1533  C1534   1.397   .     A
C1534  C1535   1.398   .     A
C1534  H951    1.082   1_565 S
C1535  H1540   1.083   .     S
C1543  C1544   1.406   .     A
C1543  C1548   1.405   .     A
C1544  H1549   1.083   .     S
C1544  C1741   1.399   1_455 S
C1545  H1550   1.082   .     S
C1545  C1546   1.398   .     A
C1545  C1642   1.399   .     S
C1546  C1547   1.397   .     A
C1546  H1551   1.082   .     S
C1547  H1552   1.081   .     S
C1547  C1646   1.397   .     S
C1548  H1553   1.083   .     S
C1548  C1743   1.397   1_455 S
C1554  C1555   1.406   .     A
C1554  C1559   1.406   .     A
C1555  H1560   1.083   .     S
C1555  C1654   1.397   .     S
C1556  H1561   1.081   .     S
C1556  C1557   1.397   .     A
C1556  C1751   1.397   1_455 S
C1557  C1558   1.398   .     A
C1557  H1562   1.083   .     S
C1558  H1563   1.083   .     S
C1558  C1755   1.399   1_455 S
C1559  H1564   1.083   .     S
C1559  C1656   1.399   .     S
O1569  C1573   1.289   .     A
O1569  Cu1581  1.958   .     S
O1570  C1574   1.289   .     A
O1570  Cu1582  1.958   .     S
O1571  C1574   1.287   .     A
O1571  Cu1581  1.958   .     S
O1572  C1573   1.287   .     A
O1572  Cu1582  1.958   .     S
C1573  C1606   1.444   .     S
C1574  C1605   1.444   .     S
O1575  C1579   1.290   .     A
O1575  Cu1581  1.969   .     S
O1576  C1580   1.290   .     A
O1576  Cu1582  1.969   .     S
O1577  Cu1581  1.966   .     S
O1577  C1580   1.292   .     A
O1578  Cu1582  1.966   .     S
O1578  C1579   1.291   .     A
C1579  C1586   1.458   .     S
C1580  C1585   1.458   .     S
Cu1581 Cu1582  2.674   .     S
Cu1581 N1615   2.010   .     S
Cu1582 N1616   2.010   .     S
C1583  C1593   1.424   .     A
C1583  C1617   1.488   .     S
C1583  C1585   1.415   .     A
C1584  C1594   1.424   .     A
C1584  C1628   1.488   .     S
C1584  C1586   1.415   .     A
C1585  C1587   1.394   .     A
C1586  C1588   1.394   .     A
C1587  F1639   1.362   .     S
C1587  C1589   1.391   .     A
C1588  C1590   1.391   .     A
C1588  F1640   1.362   .     S
C1589  C1595   1.394   .     A
C1589  C1591   1.409   .     A
C1590  C1596   1.394   .     A
C1590  C1592   1.409   .     A
C1591  C1593   1.423   .     A
C1591  C710    1.412   1_556 S
C1592  C1594   1.423   .     A
C1593  C1598   1.426   .     A
C1594  C1597   1.426   .     A
C1595  H1599   1.083   .     S
C1595  C715    1.393   1_556 S
C1596  H1600   1.083   .     S
C1597  C1641   1.484   .     S
C1598  C1652   1.484   .     S
C1598  C714    1.393   1_556 S
C1601  F1663   1.359   .     S
C1601  C1606   1.403   .     A
C1602  C1605   1.403   .     A
C1602  F1664   1.359   .     S
C1602  C1702   1.384   .     S
C1603  C1605   1.402   .     A
C1603  F1665   1.359   .     S
C1603  C1699   1.384   .     S
C1604  C1606   1.402   .     A
C1604  F1666   1.359   .     S
C1607  H1611   1.082   .     S
C1607  N1616   1.367   .     A
C1608  N1615   1.367   .     A
C1608  H1612   1.082   .     S
C1608  C1021   1.415   1_565 S
C1609  N1616   1.365   .     A
C1609  H1613   1.078   .     S
C1610  H1614   1.078   .     S
C1610  N1615   1.365   .     A
C1610  C1019   1.415   1_565 S
C1617  C1622   1.404   .     A
C1617  C1618   1.406   .     A
C1618  C1619   1.398   .     A
C1618  H1623   1.083   .     S
C1619  C1620   1.397   .     A
C1620  H1625   1.082   .     S
C1620  C1621   1.397   .     A
C1621  C1622   1.400   .     A
C1621  H1626   1.081   .     S
C1622  H1627   1.083   .     S
H1624  C1031   1.082   1_565 S
C1628  C1629   1.404   .     A
C1628  C1633   1.406   .     A
C1629  H1634   1.083   .     S
C1629  C1630   1.400   .     A
C1630  H1635   1.081   .     S
C1630  C1631   1.397   .     A
C1631  H1636   1.082   .     S
C1631  C1632   1.397   .     A
C1632  C1633   1.398   .     A
C1632  H1049   1.082   1_565 S
C1633  H1638   1.083   .     S
C1641  C1642   1.406   .     A
C1641  C1646   1.405   .     A
C1642  H1647   1.083   .     S
C1643  H1648   1.082   .     S
C1643  C1644   1.398   .     A
C1643  C1740   1.399   .     S
C1644  C1645   1.397   .     A
C1644  H1649   1.082   .     S
C1645  H1650   1.081   .     S
C1645  C1744   1.397   .     S
C1646  H1651   1.083   .     S
C1652  C1653   1.406   .     A
C1652  C1657   1.406   .     A
C1653  H1658   1.083   .     S
C1653  C1752   1.397   .     S
C1654  H1659   1.081   .     S
C1654  C1655   1.397   .     A
C1655  C1656   1.398   .     A
C1655  H1660   1.083   .     S
C1656  H1661   1.083   .     S
C1657  H1662   1.083   .     S
C1657  C1754   1.399   .     S
O1667  C1671   1.289   .     A
O1667  Cu1679  1.958   .     S
O1668  C1672   1.289   .     A
O1668  Cu1680  1.958   .     S
O1669  C1672   1.287   .     A
O1669  Cu1679  1.958   .     S
O1670  C1671   1.287   .     A
O1670  Cu1680  1.958   .     S
C1671  C1704   1.444   .     S
C1672  C1703   1.444   .     S
O1673  C1677   1.290   .     A
O1673  Cu1679  1.969   .     S
O1674  C1678   1.290   .     A
O1674  Cu1680  1.969   .     S
O1675  Cu1679  1.966   .     S
O1675  C1678   1.292   .     A
O1676  Cu1680  1.966   .     S
O1676  C1677   1.291   .     A
C1677  C1684   1.458   .     S
C1678  C1683   1.458   .     S
Cu1679 Cu1680  2.674   .     S
Cu1679 N1713   2.010   .     S
Cu1680 N1714   2.010   .     S
C1681  C1691   1.424   .     A
C1681  C1715   1.488   .     S
C1681  C1683   1.415   .     A
C1682  C1692   1.424   .     A
C1682  C1726   1.488   .     S
C1682  C1684   1.415   .     A
C1683  C1685   1.394   .     A
C1684  C1686   1.394   .     A
C1685  F1737   1.362   .     S
C1685  C1687   1.391   .     A
C1686  C1688   1.391   .     A
C1686  F1738   1.362   .     S
C1687  C1693   1.394   .     A
C1687  C1689   1.409   .     A
C1688  C1694   1.394   .     A
C1688  C1690   1.409   .     A
C1689  C1691   1.423   .     A
C1689  C808    1.412   1_556 S
C1690  C1692   1.423   .     A
C1691  C1696   1.426   .     A
C1692  C1695   1.426   .     A
C1693  H1697   1.083   .     S
C1693  C813    1.393   1_556 S
C1694  H1698   1.083   .     S
C1695  C1739   1.484   .     S
C1696  C1750   1.484   .     S
C1696  C812    1.393   1_556 S
C1699  F1761   1.359   .     S
C1699  C1704   1.403   .     A
C1700  C1703   1.403   .     A
C1700  F1762   1.359   .     S
C1700  C1506   1.384   1_655 S
C1701  C1703   1.402   .     A
C1701  F1763   1.359   .     S
C1701  C1503   1.384   1_655 S
C1702  C1704   1.402   .     A
C1702  F1764   1.359   .     S
C1705  H1709   1.082   .     S
C1705  N1714   1.367   .     A
C1706  N1713   1.367   .     A
C1706  H1710   1.082   .     S
C1706  C1119   1.415   1_565 S
C1707  N1714   1.365   .     A
C1707  H1711   1.078   .     S
C1708  H1712   1.078   .     S
C1708  N1713   1.365   .     A
C1708  C1117   1.415   1_565 S
C1715  C1720   1.404   .     A
C1715  C1716   1.406   .     A
C1716  C1717   1.398   .     A
C1716  H1721   1.083   .     S
C1717  C1718   1.397   .     A
C1718  H1723   1.082   .     S
C1718  C1719   1.397   .     A
C1719  C1720   1.400   .     A
C1719  H1724   1.081   .     S
C1720  H1725   1.083   .     S
H1722  C1129   1.082   1_565 S
C1726  C1727   1.404   .     A
C1726  C1731   1.406   .     A
C1727  H1732   1.083   .     S
C1727  C1728   1.400   .     A
C1728  H1733   1.081   .     S
C1728  C1729   1.397   .     A
C1729  H1734   1.082   .     S
C1729  C1730   1.397   .     A
C1730  C1731   1.398   .     A
C1730  H1147   1.082   1_565 S
C1731  H1736   1.083   .     S
C1739  C1740   1.406   .     A
C1739  C1744   1.405   .     A
C1740  H1745   1.083   .     S
C1741  H1746   1.082   .     S
C1741  C1742   1.398   .     A
C1741  C1544   1.399   1_655 S
C1742  C1743   1.397   .     A
C1742  H1747   1.082   .     S
C1743  H1748   1.081   .     S
C1743  C1548   1.397   1_655 S
C1744  H1749   1.083   .     S
C1750  C1751   1.406   .     A
C1750  C1755   1.406   .     A
C1751  H1756   1.083   .     S
C1751  C1556   1.397   1_655 S
C1752  H1757   1.081   .     S
C1752  C1753   1.397   .     A
C1753  C1754   1.398   .     A
C1753  H1758   1.083   .     S
C1754  H1759   1.083   .     S
C1755  H1760   1.083   .     S
C1755  C1558   1.399   1_655 S
