data_str_m2_o1_o18_pcu_sym.199
_audit_creation_date              2020-01-03
_audit_creation_method            'Materials Studio'
_symmetry_space_group_name_H-M    'P1'
_symmetry_Int_Tables_number       1
_symmetry_cell_setting            triclinic
loop_
_symmetry_equiv_pos_as_xyz
  x,y,z
_cell_length_a                    28.5863
_cell_length_b                    32.3157
_cell_length_c                    30.8266
_cell_angle_alpha                 90.0991
_cell_angle_beta                  74.6554
_cell_angle_gamma                 90.3335
loop_
_atom_site_label
_atom_site_type_symbol
_atom_site_fract_x
_atom_site_fract_y
_atom_site_fract_z
_atom_site_U_iso_or_equiv
_atom_site_adp_type
_atom_site_occupancy
C1     C     0.33290   0.08745   0.25107   0.00000  Uiso   1.00
C2     C     0.00040   0.24589   0.24911   0.00000  Uiso   1.00
C3     C     0.19110   0.19402   0.04468   0.00000  Uiso   1.00
C4     C     0.13967   0.15800   0.45207   0.00000  Uiso   1.00
C5     C     0.23922   0.20274   0.02190   0.00000  Uiso   1.00
C6     C     0.09119   0.15061   0.47421   0.00000  Uiso   1.00
C7     C     0.29494   0.02050   0.28050   0.00000  Uiso   1.00
C8     C     0.03853   0.31287   0.22001   0.00000  Uiso   1.00
C9     C     0.29572   0.31097   0.27887   0.00000  Uiso   1.00
C10    C     0.03772   0.02238   0.22161   0.00000  Uiso   1.00
C11    C     0.00066   0.29049   0.24900   0.00000  Uiso   1.00
C12    C     0.33271   0.04286   0.25138   0.00000  Uiso   1.00
C13    C     0.18213   0.14529   0.28194   0.00000  Uiso   1.00
C14    C     0.15120   0.18805   0.21807   0.00000  Uiso   1.00
C15    C     0.13257   0.14531   0.28194   0.00000  Uiso   1.00
C16    C     0.20076   0.18803   0.21807   0.00000  Uiso   1.00
C17    C     0.30618   0.16736   0.33609   0.00000  Uiso   1.00
C18    C     0.02718   0.16650   0.16382   0.00000  Uiso   1.00
C19    C     0.29126   0.17240   0.38502   0.00000  Uiso   1.00
C20    C     0.04211   0.16527   0.11445   0.00000  Uiso   1.00
C21    C     0.30547   0.19873   0.45373   0.00000  Uiso   1.00
C22    C     0.02564   0.15052   0.04308   0.00000  Uiso   1.00
C23    C     0.32252   0.18969   0.40814   0.00000  Uiso   1.00
C24    C     0.00933   0.15502   0.08956   0.00000  Uiso   1.00
C25    C     0.24328   0.16355   0.40789   0.00000  Uiso   1.00
C26    C     0.09076   0.17271   0.09231   0.00000  Uiso   1.00
C27    C     0.22415   0.17499   0.45311   0.00000  Uiso   1.00
C28    C     0.10813   0.16951   0.04530   0.00000  Uiso   1.00
C29    C     0.25642   0.19202   0.47649   0.00000  Uiso   1.00
C30    C     0.07487   0.15693   0.02069   0.00000  Uiso   1.00
C31    C     0.17405   0.16977   0.47548   0.00000  Uiso   1.00
C32    C     0.15768   0.17753   0.02241   0.00000  Uiso   1.00
Cu33   Cu    0.04689   0.16667   0.25000   0.00000  Uiso   1.00
Cu34   Cu    0.28645   0.16666   0.25000   0.00000  Uiso   1.00
H35    H     0.11465   0.17975   0.11299   0.00000  Uiso   1.00
H36    H     0.22169   0.14755   0.38930   0.00000  Uiso   1.00
H37    H     0.30478   0.14921   0.10609   0.00000  Uiso   1.00
H38    H     0.02653   0.19684   0.39088   0.00000  Uiso   1.00
H39    H     0.33068   0.21183   0.47081   0.00000  Uiso   1.00
H40    H     0.33297   0.14139   0.02485   0.00000  Uiso   1.00
H41    H     0.18113   0.20187   0.07983   0.00000  Uiso   1.00
H42    H     0.14866   0.15550   0.41597   0.00000  Uiso   1.00
H43    H     0.26696   0.29355   0.30162   0.00000  Uiso   1.00
H44    H     0.06650   0.03979   0.19889   0.00000  Uiso   1.00
H45    H     0.19321   0.12811   0.30755   0.00000  Uiso   1.00
H46    H     0.14011   0.20523   0.19247   0.00000  Uiso   1.00
H47    H     0.10649   0.12812   0.30748   0.00000  Uiso   1.00
H48    H     0.22684   0.20521   0.19252   0.00000  Uiso   1.00
N49    N     0.11736   0.16668   0.24999   0.00000  Uiso   1.00
N50    N     0.21597   0.16666   0.25001   0.00000  Uiso   1.00
O51    O     0.03958   0.10655   0.25000   0.00000  Uiso   1.00
O52    O     0.29375   0.22678   0.25000   0.00000  Uiso   1.00
O53    O     0.29372   0.10654   0.25001   0.00000  Uiso   1.00
O54    O     0.03961   0.22679   0.25000   0.00000  Uiso   1.00
O55    O     0.01852   0.16668   0.31492   0.00000  Uiso   1.00
O56    O     0.31481   0.16666   0.18509   0.00000  Uiso   1.00
O57    O     0.27267   0.16667   0.31492   0.00000  Uiso   1.00
O58    O     0.06067   0.16667   0.18508   0.00000  Uiso   1.00
O59    O     0.27086   0.21807   0.04534   0.00000  Uiso   1.00
C60    C     0.26032   0.26000   0.05737   0.00000  Uiso   1.00
H61    H     0.27144   0.26593   0.08875   0.00000  Uiso   1.00
H62    H     0.22095   0.26755   0.06512   0.00000  Uiso   1.00
C63    C     0.28950   0.28886   0.02050   0.00000  Uiso   1.00
H64    H     0.32873   0.28151   0.01354   0.00000  Uiso   1.00
H65    H     0.27803   0.28409   0.48911   0.00000  Uiso   1.00
C66    C     0.28190   0.00086   0.03445   0.00000  Uiso   1.00
H67    H     0.24299   0.00911   0.04088   0.00000  Uiso   1.00
H68    H     0.30339   0.02094   0.00709   0.00000  Uiso   1.00
H69    H     0.29402   0.00670   0.06532   0.00000  Uiso   1.00
O70    O     0.05888   0.14001   0.44954   0.00000  Uiso   1.00
C71    C     0.06474   0.09781   0.43746   0.00000  Uiso   1.00
H72    H     0.05791   0.07801   0.46812   0.00000  Uiso   1.00
H73    H     0.10196   0.09188   0.41574   0.00000  Uiso   1.00
C74    C     0.02819   0.08618   0.41110   0.00000  Uiso   1.00
H75    H     0.32410   0.09175   0.43234   0.00000  Uiso   1.00
H76    H     0.03444   0.10597   0.38064   0.00000  Uiso   1.00
C77    C     0.03285   0.04090   0.39654   0.00000  Uiso   1.00
H78    H     0.06966   0.03494   0.37430   0.00000  Uiso   1.00
H79    H     0.00571   0.03361   0.37764   0.00000  Uiso   1.00
H80    H     0.02622   0.02030   0.42638   0.00000  Uiso   1.00
Br81   Br    0.24359   0.04658   0.32502   0.00000  Uiso   1.00
Br82   Br    0.09015   0.28686   0.17568   0.00000  Uiso   1.00
C83    C     0.66623   0.08745   0.25107   0.00000  Uiso   1.00
C84    C     0.33374   0.24589   0.24911   0.00000  Uiso   1.00
C85    C     0.52444   0.19402   0.04468   0.00000  Uiso   1.00
C86    C     0.47300   0.15800   0.45207   0.00000  Uiso   1.00
C87    C     0.57255   0.20274   0.02190   0.00000  Uiso   1.00
C88    C     0.42452   0.15061   0.47421   0.00000  Uiso   1.00
C89    C     0.62827   0.02050   0.28050   0.00000  Uiso   1.00
C90    C     0.37187   0.31287   0.22001   0.00000  Uiso   1.00
C91    C     0.62905   0.31097   0.27887   0.00000  Uiso   1.00
C92    C     0.37105   0.02238   0.22161   0.00000  Uiso   1.00
C93    C     0.33399   0.29049   0.24900   0.00000  Uiso   1.00
C94    C     0.66604   0.04286   0.25138   0.00000  Uiso   1.00
C95    C     0.51546   0.14529   0.28194   0.00000  Uiso   1.00
C96    C     0.48454   0.18805   0.21807   0.00000  Uiso   1.00
C97    C     0.46590   0.14531   0.28194   0.00000  Uiso   1.00
C98    C     0.53409   0.18803   0.21807   0.00000  Uiso   1.00
C99    C     0.63952   0.16736   0.33609   0.00000  Uiso   1.00
C100   C     0.36051   0.16650   0.16382   0.00000  Uiso   1.00
C101   C     0.62460   0.17240   0.38502   0.00000  Uiso   1.00
C102   C     0.37544   0.16527   0.11445   0.00000  Uiso   1.00
C103   C     0.63881   0.19873   0.45373   0.00000  Uiso   1.00
C104   C     0.35897   0.15052   0.04308   0.00000  Uiso   1.00
C105   C     0.65585   0.18969   0.40814   0.00000  Uiso   1.00
C106   C     0.34266   0.15502   0.08956   0.00000  Uiso   1.00
C107   C     0.57661   0.16355   0.40789   0.00000  Uiso   1.00
C108   C     0.42409   0.17271   0.09231   0.00000  Uiso   1.00
C109   C     0.55748   0.17499   0.45311   0.00000  Uiso   1.00
C110   C     0.44146   0.16951   0.04530   0.00000  Uiso   1.00
C111   C     0.58975   0.19202   0.47649   0.00000  Uiso   1.00
C112   C     0.40820   0.15693   0.02069   0.00000  Uiso   1.00
C113   C     0.50738   0.16977   0.47548   0.00000  Uiso   1.00
C114   C     0.49101   0.17753   0.02241   0.00000  Uiso   1.00
Cu115  Cu    0.38022   0.16667   0.25000   0.00000  Uiso   1.00
Cu116  Cu    0.61978   0.16666   0.25000   0.00000  Uiso   1.00
H117   H     0.44798   0.17975   0.11299   0.00000  Uiso   1.00
H118   H     0.55503   0.14755   0.38930   0.00000  Uiso   1.00
H119   H     0.63811   0.14921   0.10609   0.00000  Uiso   1.00
H120   H     0.35987   0.19684   0.39088   0.00000  Uiso   1.00
H121   H     0.66402   0.21183   0.47081   0.00000  Uiso   1.00
H122   H     0.66630   0.14139   0.02485   0.00000  Uiso   1.00
H123   H     0.51447   0.20187   0.07983   0.00000  Uiso   1.00
H124   H     0.48199   0.15550   0.41597   0.00000  Uiso   1.00
H125   H     0.60029   0.29355   0.30162   0.00000  Uiso   1.00
H126   H     0.39984   0.03979   0.19889   0.00000  Uiso   1.00
H127   H     0.52655   0.12811   0.30755   0.00000  Uiso   1.00
H128   H     0.47345   0.20523   0.19247   0.00000  Uiso   1.00
H129   H     0.43983   0.12812   0.30748   0.00000  Uiso   1.00
H130   H     0.56017   0.20521   0.19252   0.00000  Uiso   1.00
N131   N     0.45069   0.16668   0.24999   0.00000  Uiso   1.00
N132   N     0.54931   0.16666   0.25001   0.00000  Uiso   1.00
O133   O     0.37291   0.10655   0.25000   0.00000  Uiso   1.00
O134   O     0.62709   0.22678   0.25000   0.00000  Uiso   1.00
O135   O     0.62706   0.10654   0.25001   0.00000  Uiso   1.00
O136   O     0.37294   0.22679   0.25000   0.00000  Uiso   1.00
O137   O     0.35186   0.16668   0.31492   0.00000  Uiso   1.00
O138   O     0.64814   0.16666   0.18509   0.00000  Uiso   1.00
O139   O     0.60600   0.16667   0.31492   0.00000  Uiso   1.00
O140   O     0.39400   0.16667   0.18508   0.00000  Uiso   1.00
O141   O     0.60419   0.21807   0.04534   0.00000  Uiso   1.00
C142   C     0.59366   0.26000   0.05737   0.00000  Uiso   1.00
H143   H     0.60477   0.26593   0.08875   0.00000  Uiso   1.00
H144   H     0.55428   0.26755   0.06512   0.00000  Uiso   1.00
C145   C     0.62283   0.28886   0.02050   0.00000  Uiso   1.00
H146   H     0.66206   0.28151   0.01354   0.00000  Uiso   1.00
H147   H     0.61137   0.28409   0.48911   0.00000  Uiso   1.00
C148   C     0.61524   0.00086   0.03445   0.00000  Uiso   1.00
H149   H     0.57633   0.00911   0.04088   0.00000  Uiso   1.00
H150   H     0.63672   0.02094   0.00709   0.00000  Uiso   1.00
H151   H     0.62735   0.00670   0.06532   0.00000  Uiso   1.00
O152   O     0.39222   0.14001   0.44954   0.00000  Uiso   1.00
C153   C     0.39807   0.09781   0.43746   0.00000  Uiso   1.00
H154   H     0.39124   0.07801   0.46812   0.00000  Uiso   1.00
H155   H     0.43529   0.09188   0.41574   0.00000  Uiso   1.00
C156   C     0.36152   0.08618   0.41110   0.00000  Uiso   1.00
H157   H     0.65744   0.09175   0.43234   0.00000  Uiso   1.00
H158   H     0.36778   0.10597   0.38064   0.00000  Uiso   1.00
C159   C     0.36619   0.04090   0.39654   0.00000  Uiso   1.00
H160   H     0.40299   0.03494   0.37430   0.00000  Uiso   1.00
H161   H     0.33904   0.03361   0.37764   0.00000  Uiso   1.00
H162   H     0.35956   0.02030   0.42638   0.00000  Uiso   1.00
Br163  Br    0.57692   0.04658   0.32502   0.00000  Uiso   1.00
Br164  Br    0.42348   0.28686   0.17568   0.00000  Uiso   1.00
C165   C     0.99957   0.08745   0.25107   0.00000  Uiso   1.00
C166   C     0.66707   0.24589   0.24911   0.00000  Uiso   1.00
C167   C     0.85777   0.19402   0.04468   0.00000  Uiso   1.00
C168   C     0.80634   0.15800   0.45207   0.00000  Uiso   1.00
C169   C     0.90589   0.20274   0.02190   0.00000  Uiso   1.00
C170   C     0.75785   0.15061   0.47421   0.00000  Uiso   1.00
C171   C     0.96161   0.02050   0.28050   0.00000  Uiso   1.00
C172   C     0.70520   0.31287   0.22001   0.00000  Uiso   1.00
C173   C     0.96238   0.31097   0.27887   0.00000  Uiso   1.00
C174   C     0.70438   0.02238   0.22161   0.00000  Uiso   1.00
C175   C     0.66732   0.29049   0.24900   0.00000  Uiso   1.00
C176   C     0.99938   0.04286   0.25138   0.00000  Uiso   1.00
C177   C     0.84879   0.14529   0.28194   0.00000  Uiso   1.00
C178   C     0.81787   0.18805   0.21807   0.00000  Uiso   1.00
C179   C     0.79923   0.14531   0.28194   0.00000  Uiso   1.00
C180   C     0.86743   0.18803   0.21807   0.00000  Uiso   1.00
C181   C     0.97285   0.16736   0.33609   0.00000  Uiso   1.00
C182   C     0.69384   0.16650   0.16382   0.00000  Uiso   1.00
C183   C     0.95793   0.17240   0.38502   0.00000  Uiso   1.00
C184   C     0.70877   0.16527   0.11445   0.00000  Uiso   1.00
C185   C     0.97214   0.19873   0.45373   0.00000  Uiso   1.00
C186   C     0.69230   0.15052   0.04308   0.00000  Uiso   1.00
C187   C     0.98919   0.18969   0.40814   0.00000  Uiso   1.00
C188   C     0.67599   0.15502   0.08956   0.00000  Uiso   1.00
C189   C     0.90995   0.16355   0.40789   0.00000  Uiso   1.00
C190   C     0.75743   0.17271   0.09231   0.00000  Uiso   1.00
C191   C     0.89082   0.17499   0.45311   0.00000  Uiso   1.00
C192   C     0.77480   0.16951   0.04530   0.00000  Uiso   1.00
C193   C     0.92308   0.19202   0.47649   0.00000  Uiso   1.00
C194   C     0.74154   0.15693   0.02069   0.00000  Uiso   1.00
C195   C     0.84071   0.16977   0.47548   0.00000  Uiso   1.00
C196   C     0.82435   0.17753   0.02241   0.00000  Uiso   1.00
Cu197  Cu    0.71355   0.16667   0.25000   0.00000  Uiso   1.00
Cu198  Cu    0.95311   0.16666   0.25000   0.00000  Uiso   1.00
H199   H     0.78132   0.17975   0.11299   0.00000  Uiso   1.00
H200   H     0.88836   0.14755   0.38930   0.00000  Uiso   1.00
H201   H     0.97145   0.14921   0.10609   0.00000  Uiso   1.00
H202   H     0.69320   0.19684   0.39088   0.00000  Uiso   1.00
H203   H     0.99735   0.21183   0.47081   0.00000  Uiso   1.00
H204   H     0.99963   0.14139   0.02485   0.00000  Uiso   1.00
H205   H     0.84780   0.20187   0.07983   0.00000  Uiso   1.00
H206   H     0.81533   0.15550   0.41597   0.00000  Uiso   1.00
H207   H     0.93363   0.29355   0.30162   0.00000  Uiso   1.00
H208   H     0.73317   0.03979   0.19889   0.00000  Uiso   1.00
H209   H     0.85988   0.12811   0.30755   0.00000  Uiso   1.00
H210   H     0.80678   0.20523   0.19247   0.00000  Uiso   1.00
H211   H     0.77316   0.12812   0.30748   0.00000  Uiso   1.00
H212   H     0.89350   0.20521   0.19252   0.00000  Uiso   1.00
N213   N     0.78403   0.16668   0.24999   0.00000  Uiso   1.00
N214   N     0.88264   0.16666   0.25001   0.00000  Uiso   1.00
O215   O     0.70625   0.10655   0.25000   0.00000  Uiso   1.00
O216   O     0.96042   0.22678   0.25000   0.00000  Uiso   1.00
O217   O     0.96039   0.10654   0.25001   0.00000  Uiso   1.00
O218   O     0.70628   0.22679   0.25000   0.00000  Uiso   1.00
O219   O     0.68519   0.16668   0.31492   0.00000  Uiso   1.00
O220   O     0.98148   0.16666   0.18509   0.00000  Uiso   1.00
O221   O     0.93933   0.16667   0.31492   0.00000  Uiso   1.00
O222   O     0.72733   0.16667   0.18508   0.00000  Uiso   1.00
O223   O     0.93753   0.21807   0.04534   0.00000  Uiso   1.00
C224   C     0.92699   0.26000   0.05737   0.00000  Uiso   1.00
H225   H     0.93810   0.26593   0.08875   0.00000  Uiso   1.00
H226   H     0.88762   0.26755   0.06512   0.00000  Uiso   1.00
C227   C     0.95617   0.28886   0.02050   0.00000  Uiso   1.00
H228   H     0.99540   0.28151   0.01354   0.00000  Uiso   1.00
H229   H     0.94470   0.28409   0.48911   0.00000  Uiso   1.00
C230   C     0.94857   0.00086   0.03445   0.00000  Uiso   1.00
H231   H     0.90966   0.00911   0.04088   0.00000  Uiso   1.00
H232   H     0.97006   0.02094   0.00709   0.00000  Uiso   1.00
H233   H     0.96068   0.00670   0.06532   0.00000  Uiso   1.00
O234   O     0.72555   0.14001   0.44954   0.00000  Uiso   1.00
C235   C     0.73140   0.09781   0.43746   0.00000  Uiso   1.00
H236   H     0.72458   0.07801   0.46812   0.00000  Uiso   1.00
H237   H     0.76863   0.09188   0.41574   0.00000  Uiso   1.00
C238   C     0.69485   0.08618   0.41110   0.00000  Uiso   1.00
H239   H     0.99077   0.09175   0.43234   0.00000  Uiso   1.00
H240   H     0.70111   0.10597   0.38064   0.00000  Uiso   1.00
C241   C     0.69952   0.04090   0.39654   0.00000  Uiso   1.00
H242   H     0.73633   0.03494   0.37430   0.00000  Uiso   1.00
H243   H     0.67237   0.03361   0.37764   0.00000  Uiso   1.00
H244   H     0.69289   0.02030   0.42638   0.00000  Uiso   1.00
Br245  Br    0.91026   0.04658   0.32502   0.00000  Uiso   1.00
Br246  Br    0.75681   0.28686   0.17568   0.00000  Uiso   1.00
C247   C     0.33290   0.42078   0.25107   0.00000  Uiso   1.00
C248   C     0.00040   0.57923   0.24911   0.00000  Uiso   1.00
C249   C     0.19110   0.52735   0.04468   0.00000  Uiso   1.00
C250   C     0.13967   0.49133   0.45207   0.00000  Uiso   1.00
C251   C     0.23922   0.53607   0.02190   0.00000  Uiso   1.00
C252   C     0.09119   0.48394   0.47421   0.00000  Uiso   1.00
C253   C     0.29494   0.35383   0.28050   0.00000  Uiso   1.00
C254   C     0.03853   0.64620   0.22001   0.00000  Uiso   1.00
C255   C     0.29572   0.64430   0.27887   0.00000  Uiso   1.00
C256   C     0.03772   0.35571   0.22161   0.00000  Uiso   1.00
C257   C     0.00066   0.62382   0.24900   0.00000  Uiso   1.00
C258   C     0.33271   0.37619   0.25138   0.00000  Uiso   1.00
C259   C     0.18213   0.47862   0.28194   0.00000  Uiso   1.00
C260   C     0.15120   0.52138   0.21807   0.00000  Uiso   1.00
C261   C     0.13257   0.47864   0.28194   0.00000  Uiso   1.00
C262   C     0.20076   0.52136   0.21807   0.00000  Uiso   1.00
C263   C     0.30618   0.50069   0.33609   0.00000  Uiso   1.00
C264   C     0.02718   0.49983   0.16382   0.00000  Uiso   1.00
C265   C     0.29126   0.50573   0.38502   0.00000  Uiso   1.00
C266   C     0.04211   0.49861   0.11445   0.00000  Uiso   1.00
C267   C     0.30547   0.53206   0.45373   0.00000  Uiso   1.00
C268   C     0.02564   0.48385   0.04308   0.00000  Uiso   1.00
C269   C     0.32252   0.52303   0.40814   0.00000  Uiso   1.00
C270   C     0.00933   0.48835   0.08956   0.00000  Uiso   1.00
C271   C     0.24328   0.49688   0.40789   0.00000  Uiso   1.00
C272   C     0.09076   0.50605   0.09231   0.00000  Uiso   1.00
C273   C     0.22415   0.50832   0.45311   0.00000  Uiso   1.00
C274   C     0.10813   0.50284   0.04530   0.00000  Uiso   1.00
C275   C     0.25642   0.52535   0.47649   0.00000  Uiso   1.00
C276   C     0.07487   0.49027   0.02069   0.00000  Uiso   1.00
C277   C     0.17405   0.50310   0.47548   0.00000  Uiso   1.00
C278   C     0.15768   0.51086   0.02241   0.00000  Uiso   1.00
Cu279  Cu    0.04689   0.50001   0.25000   0.00000  Uiso   1.00
Cu280  Cu    0.28645   0.49999   0.25000   0.00000  Uiso   1.00
H281   H     0.11465   0.51308   0.11299   0.00000  Uiso   1.00
H282   H     0.22169   0.48088   0.38930   0.00000  Uiso   1.00
H283   H     0.30478   0.48255   0.10609   0.00000  Uiso   1.00
H284   H     0.02653   0.53017   0.39088   0.00000  Uiso   1.00
H285   H     0.33068   0.54516   0.47081   0.00000  Uiso   1.00
H286   H     0.33297   0.47473   0.02485   0.00000  Uiso   1.00
H287   H     0.18113   0.53520   0.07983   0.00000  Uiso   1.00
H288   H     0.14866   0.48883   0.41597   0.00000  Uiso   1.00
H289   H     0.26696   0.62688   0.30162   0.00000  Uiso   1.00
H290   H     0.06650   0.37313   0.19889   0.00000  Uiso   1.00
H291   H     0.19321   0.46144   0.30755   0.00000  Uiso   1.00
H292   H     0.14011   0.53857   0.19247   0.00000  Uiso   1.00
H293   H     0.10649   0.46145   0.30748   0.00000  Uiso   1.00
H294   H     0.22684   0.53855   0.19252   0.00000  Uiso   1.00
N295   N     0.11736   0.50001   0.24999   0.00000  Uiso   1.00
N296   N     0.21597   0.49999   0.25001   0.00000  Uiso   1.00
O297   O     0.03958   0.43989   0.25000   0.00000  Uiso   1.00
O298   O     0.29375   0.56011   0.25000   0.00000  Uiso   1.00
O299   O     0.29372   0.43988   0.25001   0.00000  Uiso   1.00
O300   O     0.03961   0.56012   0.25000   0.00000  Uiso   1.00
O301   O     0.01852   0.50001   0.31492   0.00000  Uiso   1.00
O302   O     0.31481   0.49999   0.18509   0.00000  Uiso   1.00
O303   O     0.27267   0.50000   0.31492   0.00000  Uiso   1.00
O304   O     0.06067   0.50000   0.18508   0.00000  Uiso   1.00
O305   O     0.27086   0.55140   0.04534   0.00000  Uiso   1.00
C306   C     0.26032   0.59333   0.05737   0.00000  Uiso   1.00
H307   H     0.27144   0.59926   0.08875   0.00000  Uiso   1.00
H308   H     0.22095   0.60088   0.06512   0.00000  Uiso   1.00
C309   C     0.28950   0.62220   0.02050   0.00000  Uiso   1.00
H310   H     0.32873   0.61484   0.01354   0.00000  Uiso   1.00
H311   H     0.27803   0.61742   0.48911   0.00000  Uiso   1.00
C312   C     0.28190   0.33419   0.03445   0.00000  Uiso   1.00
H313   H     0.24299   0.34244   0.04088   0.00000  Uiso   1.00
H314   H     0.30339   0.35427   0.00709   0.00000  Uiso   1.00
H315   H     0.29402   0.34003   0.06532   0.00000  Uiso   1.00
O316   O     0.05888   0.47335   0.44954   0.00000  Uiso   1.00
C317   C     0.06474   0.43114   0.43746   0.00000  Uiso   1.00
H318   H     0.05791   0.41135   0.46812   0.00000  Uiso   1.00
H319   H     0.10196   0.42522   0.41574   0.00000  Uiso   1.00
C320   C     0.02819   0.41951   0.41110   0.00000  Uiso   1.00
H321   H     0.32410   0.42509   0.43234   0.00000  Uiso   1.00
H322   H     0.03444   0.43930   0.38064   0.00000  Uiso   1.00
C323   C     0.03285   0.37423   0.39654   0.00000  Uiso   1.00
H324   H     0.06966   0.36827   0.37430   0.00000  Uiso   1.00
H325   H     0.00571   0.36694   0.37764   0.00000  Uiso   1.00
H326   H     0.02622   0.35363   0.42638   0.00000  Uiso   1.00
Br327  Br    0.24359   0.37991   0.32502   0.00000  Uiso   1.00
Br328  Br    0.09015   0.62019   0.17568   0.00000  Uiso   1.00
C329   C     0.66623   0.42078   0.25107   0.00000  Uiso   1.00
C330   C     0.33374   0.57923   0.24911   0.00000  Uiso   1.00
C331   C     0.52444   0.52735   0.04468   0.00000  Uiso   1.00
C332   C     0.47300   0.49133   0.45207   0.00000  Uiso   1.00
C333   C     0.57255   0.53607   0.02190   0.00000  Uiso   1.00
C334   C     0.42452   0.48394   0.47421   0.00000  Uiso   1.00
C335   C     0.62827   0.35383   0.28050   0.00000  Uiso   1.00
C336   C     0.37187   0.64620   0.22001   0.00000  Uiso   1.00
C337   C     0.62905   0.64430   0.27887   0.00000  Uiso   1.00
C338   C     0.37105   0.35571   0.22161   0.00000  Uiso   1.00
C339   C     0.33399   0.62382   0.24900   0.00000  Uiso   1.00
C340   C     0.66604   0.37619   0.25138   0.00000  Uiso   1.00
C341   C     0.51546   0.47862   0.28194   0.00000  Uiso   1.00
C342   C     0.48454   0.52138   0.21807   0.00000  Uiso   1.00
C343   C     0.46590   0.47864   0.28194   0.00000  Uiso   1.00
C344   C     0.53409   0.52136   0.21807   0.00000  Uiso   1.00
C345   C     0.63952   0.50069   0.33609   0.00000  Uiso   1.00
C346   C     0.36051   0.49983   0.16382   0.00000  Uiso   1.00
C347   C     0.62460   0.50573   0.38502   0.00000  Uiso   1.00
C348   C     0.37544   0.49861   0.11445   0.00000  Uiso   1.00
C349   C     0.63881   0.53206   0.45373   0.00000  Uiso   1.00
C350   C     0.35897   0.48385   0.04308   0.00000  Uiso   1.00
C351   C     0.65585   0.52303   0.40814   0.00000  Uiso   1.00
C352   C     0.34266   0.48835   0.08956   0.00000  Uiso   1.00
C353   C     0.57661   0.49688   0.40789   0.00000  Uiso   1.00
C354   C     0.42409   0.50605   0.09231   0.00000  Uiso   1.00
C355   C     0.55748   0.50832   0.45311   0.00000  Uiso   1.00
C356   C     0.44146   0.50284   0.04530   0.00000  Uiso   1.00
C357   C     0.58975   0.52535   0.47649   0.00000  Uiso   1.00
C358   C     0.40820   0.49027   0.02069   0.00000  Uiso   1.00
C359   C     0.50738   0.50310   0.47548   0.00000  Uiso   1.00
C360   C     0.49101   0.51086   0.02241   0.00000  Uiso   1.00
Cu361  Cu    0.38022   0.50001   0.25000   0.00000  Uiso   1.00
Cu362  Cu    0.61978   0.49999   0.25000   0.00000  Uiso   1.00
H363   H     0.44798   0.51308   0.11299   0.00000  Uiso   1.00
H364   H     0.55503   0.48088   0.38930   0.00000  Uiso   1.00
H365   H     0.63811   0.48255   0.10609   0.00000  Uiso   1.00
H366   H     0.35987   0.53017   0.39088   0.00000  Uiso   1.00
H367   H     0.66402   0.54516   0.47081   0.00000  Uiso   1.00
H368   H     0.66630   0.47473   0.02485   0.00000  Uiso   1.00
H369   H     0.51447   0.53520   0.07983   0.00000  Uiso   1.00
H370   H     0.48199   0.48883   0.41597   0.00000  Uiso   1.00
H371   H     0.60029   0.62688   0.30162   0.00000  Uiso   1.00
H372   H     0.39984   0.37313   0.19889   0.00000  Uiso   1.00
H373   H     0.52655   0.46144   0.30755   0.00000  Uiso   1.00
H374   H     0.47345   0.53857   0.19247   0.00000  Uiso   1.00
H375   H     0.43983   0.46145   0.30748   0.00000  Uiso   1.00
H376   H     0.56017   0.53855   0.19252   0.00000  Uiso   1.00
N377   N     0.45069   0.50001   0.24999   0.00000  Uiso   1.00
N378   N     0.54931   0.49999   0.25001   0.00000  Uiso   1.00
O379   O     0.37291   0.43989   0.25000   0.00000  Uiso   1.00
O380   O     0.62709   0.56011   0.25000   0.00000  Uiso   1.00
O381   O     0.62706   0.43988   0.25001   0.00000  Uiso   1.00
O382   O     0.37294   0.56012   0.25000   0.00000  Uiso   1.00
O383   O     0.35186   0.50001   0.31492   0.00000  Uiso   1.00
O384   O     0.64814   0.49999   0.18509   0.00000  Uiso   1.00
O385   O     0.60600   0.50000   0.31492   0.00000  Uiso   1.00
O386   O     0.39400   0.50000   0.18508   0.00000  Uiso   1.00
O387   O     0.60419   0.55140   0.04534   0.00000  Uiso   1.00
C388   C     0.59366   0.59333   0.05737   0.00000  Uiso   1.00
H389   H     0.60477   0.59926   0.08875   0.00000  Uiso   1.00
H390   H     0.55428   0.60088   0.06512   0.00000  Uiso   1.00
C391   C     0.62283   0.62220   0.02050   0.00000  Uiso   1.00
H392   H     0.66206   0.61484   0.01354   0.00000  Uiso   1.00
H393   H     0.61137   0.61742   0.48911   0.00000  Uiso   1.00
C394   C     0.61524   0.33419   0.03445   0.00000  Uiso   1.00
H395   H     0.57633   0.34244   0.04088   0.00000  Uiso   1.00
H396   H     0.63672   0.35427   0.00709   0.00000  Uiso   1.00
H397   H     0.62735   0.34003   0.06532   0.00000  Uiso   1.00
O398   O     0.39222   0.47335   0.44954   0.00000  Uiso   1.00
C399   C     0.39807   0.43114   0.43746   0.00000  Uiso   1.00
H400   H     0.39124   0.41135   0.46812   0.00000  Uiso   1.00
H401   H     0.43529   0.42522   0.41574   0.00000  Uiso   1.00
C402   C     0.36152   0.41951   0.41110   0.00000  Uiso   1.00
H403   H     0.65744   0.42509   0.43234   0.00000  Uiso   1.00
H404   H     0.36778   0.43930   0.38064   0.00000  Uiso   1.00
C405   C     0.36619   0.37423   0.39654   0.00000  Uiso   1.00
H406   H     0.40299   0.36827   0.37430   0.00000  Uiso   1.00
H407   H     0.33904   0.36694   0.37764   0.00000  Uiso   1.00
H408   H     0.35956   0.35363   0.42638   0.00000  Uiso   1.00
Br409  Br    0.57692   0.37991   0.32502   0.00000  Uiso   1.00
Br410  Br    0.42348   0.62019   0.17568   0.00000  Uiso   1.00
C411   C     0.99957   0.42078   0.25107   0.00000  Uiso   1.00
C412   C     0.66707   0.57923   0.24911   0.00000  Uiso   1.00
C413   C     0.85777   0.52735   0.04468   0.00000  Uiso   1.00
C414   C     0.80634   0.49133   0.45207   0.00000  Uiso   1.00
C415   C     0.90589   0.53607   0.02190   0.00000  Uiso   1.00
C416   C     0.75785   0.48394   0.47421   0.00000  Uiso   1.00
C417   C     0.96161   0.35383   0.28050   0.00000  Uiso   1.00
C418   C     0.70520   0.64620   0.22001   0.00000  Uiso   1.00
C419   C     0.96238   0.64430   0.27887   0.00000  Uiso   1.00
C420   C     0.70438   0.35571   0.22161   0.00000  Uiso   1.00
C421   C     0.66732   0.62382   0.24900   0.00000  Uiso   1.00
C422   C     0.99938   0.37619   0.25138   0.00000  Uiso   1.00
C423   C     0.84879   0.47862   0.28194   0.00000  Uiso   1.00
C424   C     0.81787   0.52138   0.21807   0.00000  Uiso   1.00
C425   C     0.79923   0.47864   0.28194   0.00000  Uiso   1.00
C426   C     0.86743   0.52136   0.21807   0.00000  Uiso   1.00
C427   C     0.97285   0.50069   0.33609   0.00000  Uiso   1.00
C428   C     0.69384   0.49983   0.16382   0.00000  Uiso   1.00
C429   C     0.95793   0.50573   0.38502   0.00000  Uiso   1.00
C430   C     0.70877   0.49861   0.11445   0.00000  Uiso   1.00
C431   C     0.97214   0.53206   0.45373   0.00000  Uiso   1.00
C432   C     0.69230   0.48385   0.04308   0.00000  Uiso   1.00
C433   C     0.98919   0.52303   0.40814   0.00000  Uiso   1.00
C434   C     0.67599   0.48835   0.08956   0.00000  Uiso   1.00
C435   C     0.90995   0.49688   0.40789   0.00000  Uiso   1.00
C436   C     0.75743   0.50605   0.09231   0.00000  Uiso   1.00
C437   C     0.89082   0.50832   0.45311   0.00000  Uiso   1.00
C438   C     0.77480   0.50284   0.04530   0.00000  Uiso   1.00
C439   C     0.92308   0.52535   0.47649   0.00000  Uiso   1.00
C440   C     0.74154   0.49027   0.02069   0.00000  Uiso   1.00
C441   C     0.84071   0.50310   0.47548   0.00000  Uiso   1.00
C442   C     0.82435   0.51086   0.02241   0.00000  Uiso   1.00
Cu443  Cu    0.71355   0.50001   0.25000   0.00000  Uiso   1.00
Cu444  Cu    0.95311   0.49999   0.25000   0.00000  Uiso   1.00
H445   H     0.78132   0.51308   0.11299   0.00000  Uiso   1.00
H446   H     0.88836   0.48088   0.38930   0.00000  Uiso   1.00
H447   H     0.97145   0.48255   0.10609   0.00000  Uiso   1.00
H448   H     0.69320   0.53017   0.39088   0.00000  Uiso   1.00
H449   H     0.99735   0.54516   0.47081   0.00000  Uiso   1.00
H450   H     0.99963   0.47473   0.02485   0.00000  Uiso   1.00
H451   H     0.84780   0.53520   0.07983   0.00000  Uiso   1.00
H452   H     0.81533   0.48883   0.41597   0.00000  Uiso   1.00
H453   H     0.93363   0.62688   0.30162   0.00000  Uiso   1.00
H454   H     0.73317   0.37313   0.19889   0.00000  Uiso   1.00
H455   H     0.85988   0.46144   0.30755   0.00000  Uiso   1.00
H456   H     0.80678   0.53857   0.19247   0.00000  Uiso   1.00
H457   H     0.77316   0.46145   0.30748   0.00000  Uiso   1.00
H458   H     0.89350   0.53855   0.19252   0.00000  Uiso   1.00
N459   N     0.78403   0.50001   0.24999   0.00000  Uiso   1.00
N460   N     0.88264   0.49999   0.25001   0.00000  Uiso   1.00
O461   O     0.70625   0.43989   0.25000   0.00000  Uiso   1.00
O462   O     0.96042   0.56011   0.25000   0.00000  Uiso   1.00
O463   O     0.96039   0.43988   0.25001   0.00000  Uiso   1.00
O464   O     0.70628   0.56012   0.25000   0.00000  Uiso   1.00
O465   O     0.68519   0.50001   0.31492   0.00000  Uiso   1.00
O466   O     0.98148   0.49999   0.18509   0.00000  Uiso   1.00
O467   O     0.93933   0.50000   0.31492   0.00000  Uiso   1.00
O468   O     0.72733   0.50000   0.18508   0.00000  Uiso   1.00
O469   O     0.93753   0.55140   0.04534   0.00000  Uiso   1.00
C470   C     0.92699   0.59333   0.05737   0.00000  Uiso   1.00
H471   H     0.93810   0.59926   0.08875   0.00000  Uiso   1.00
H472   H     0.88762   0.60088   0.06512   0.00000  Uiso   1.00
C473   C     0.95617   0.62220   0.02050   0.00000  Uiso   1.00
H474   H     0.99540   0.61484   0.01354   0.00000  Uiso   1.00
H475   H     0.94470   0.61742   0.48911   0.00000  Uiso   1.00
C476   C     0.94857   0.33419   0.03445   0.00000  Uiso   1.00
H477   H     0.90966   0.34244   0.04088   0.00000  Uiso   1.00
H478   H     0.97006   0.35427   0.00709   0.00000  Uiso   1.00
H479   H     0.96068   0.34003   0.06532   0.00000  Uiso   1.00
O480   O     0.72555   0.47335   0.44954   0.00000  Uiso   1.00
C481   C     0.73140   0.43114   0.43746   0.00000  Uiso   1.00
H482   H     0.72458   0.41135   0.46812   0.00000  Uiso   1.00
H483   H     0.76863   0.42522   0.41574   0.00000  Uiso   1.00
C484   C     0.69485   0.41951   0.41110   0.00000  Uiso   1.00
H485   H     0.99077   0.42509   0.43234   0.00000  Uiso   1.00
H486   H     0.70111   0.43930   0.38064   0.00000  Uiso   1.00
C487   C     0.69952   0.37423   0.39654   0.00000  Uiso   1.00
H488   H     0.73633   0.36827   0.37430   0.00000  Uiso   1.00
H489   H     0.67237   0.36694   0.37764   0.00000  Uiso   1.00
H490   H     0.69289   0.35363   0.42638   0.00000  Uiso   1.00
Br491  Br    0.91026   0.37991   0.32502   0.00000  Uiso   1.00
Br492  Br    0.75681   0.62019   0.17568   0.00000  Uiso   1.00
C493   C     0.33290   0.75411   0.25107   0.00000  Uiso   1.00
C494   C     0.00040   0.91256   0.24911   0.00000  Uiso   1.00
C495   C     0.19110   0.86069   0.04468   0.00000  Uiso   1.00
C496   C     0.13967   0.82466   0.45207   0.00000  Uiso   1.00
C497   C     0.23922   0.86941   0.02190   0.00000  Uiso   1.00
C498   C     0.09119   0.81728   0.47421   0.00000  Uiso   1.00
C499   C     0.29494   0.68716   0.28050   0.00000  Uiso   1.00
C500   C     0.03853   0.97953   0.22001   0.00000  Uiso   1.00
C501   C     0.29572   0.97764   0.27887   0.00000  Uiso   1.00
C502   C     0.03772   0.68905   0.22161   0.00000  Uiso   1.00
C503   C     0.00066   0.95716   0.24900   0.00000  Uiso   1.00
C504   C     0.33271   0.70953   0.25138   0.00000  Uiso   1.00
C505   C     0.18213   0.81196   0.28194   0.00000  Uiso   1.00
C506   C     0.15120   0.85472   0.21807   0.00000  Uiso   1.00
C507   C     0.13257   0.81197   0.28194   0.00000  Uiso   1.00
C508   C     0.20076   0.85470   0.21807   0.00000  Uiso   1.00
C509   C     0.30618   0.83403   0.33609   0.00000  Uiso   1.00
C510   C     0.02718   0.83316   0.16382   0.00000  Uiso   1.00
C511   C     0.29126   0.83906   0.38502   0.00000  Uiso   1.00
C512   C     0.04211   0.83194   0.11445   0.00000  Uiso   1.00
C513   C     0.30547   0.86539   0.45373   0.00000  Uiso   1.00
C514   C     0.02564   0.81718   0.04308   0.00000  Uiso   1.00
C515   C     0.32252   0.85636   0.40814   0.00000  Uiso   1.00
C516   C     0.00933   0.82169   0.08956   0.00000  Uiso   1.00
C517   C     0.24328   0.83022   0.40789   0.00000  Uiso   1.00
C518   C     0.09076   0.83938   0.09231   0.00000  Uiso   1.00
C519   C     0.22415   0.84166   0.45311   0.00000  Uiso   1.00
C520   C     0.10813   0.83618   0.04530   0.00000  Uiso   1.00
C521   C     0.25642   0.85868   0.47649   0.00000  Uiso   1.00
C522   C     0.07487   0.82360   0.02069   0.00000  Uiso   1.00
C523   C     0.17405   0.83644   0.47548   0.00000  Uiso   1.00
C524   C     0.15768   0.84420   0.02241   0.00000  Uiso   1.00
Cu525  Cu    0.04689   0.83334   0.25000   0.00000  Uiso   1.00
Cu526  Cu    0.28645   0.83333   0.25000   0.00000  Uiso   1.00
H527   H     0.11465   0.84642   0.11299   0.00000  Uiso   1.00
H528   H     0.22169   0.81422   0.38930   0.00000  Uiso   1.00
H529   H     0.30478   0.81588   0.10609   0.00000  Uiso   1.00
H530   H     0.02653   0.86351   0.39088   0.00000  Uiso   1.00
H531   H     0.33068   0.87849   0.47081   0.00000  Uiso   1.00
H532   H     0.33297   0.80806   0.02485   0.00000  Uiso   1.00
H533   H     0.18113   0.86854   0.07983   0.00000  Uiso   1.00
H534   H     0.14866   0.82217   0.41597   0.00000  Uiso   1.00
H535   H     0.26696   0.96022   0.30162   0.00000  Uiso   1.00
H536   H     0.06650   0.70646   0.19889   0.00000  Uiso   1.00
H537   H     0.19321   0.79478   0.30755   0.00000  Uiso   1.00
H538   H     0.14011   0.87190   0.19247   0.00000  Uiso   1.00
H539   H     0.10649   0.79479   0.30748   0.00000  Uiso   1.00
H540   H     0.22684   0.87188   0.19252   0.00000  Uiso   1.00
N541   N     0.11736   0.83334   0.24999   0.00000  Uiso   1.00
N542   N     0.21597   0.83332   0.25001   0.00000  Uiso   1.00
O543   O     0.03958   0.77322   0.25000   0.00000  Uiso   1.00
O544   O     0.29375   0.89345   0.25000   0.00000  Uiso   1.00
O545   O     0.29372   0.77321   0.25001   0.00000  Uiso   1.00
O546   O     0.03961   0.89346   0.25000   0.00000  Uiso   1.00
O547   O     0.01852   0.83334   0.31492   0.00000  Uiso   1.00
O548   O     0.31481   0.83332   0.18509   0.00000  Uiso   1.00
O549   O     0.27267   0.83333   0.31492   0.00000  Uiso   1.00
O550   O     0.06067   0.83333   0.18508   0.00000  Uiso   1.00
O551   O     0.27086   0.88473   0.04534   0.00000  Uiso   1.00
C552   C     0.26032   0.92667   0.05737   0.00000  Uiso   1.00
H553   H     0.27144   0.93259   0.08875   0.00000  Uiso   1.00
H554   H     0.22095   0.93422   0.06512   0.00000  Uiso   1.00
C555   C     0.28950   0.95553   0.02050   0.00000  Uiso   1.00
H556   H     0.32873   0.94817   0.01354   0.00000  Uiso   1.00
H557   H     0.27803   0.95075   0.48911   0.00000  Uiso   1.00
C558   C     0.28190   0.66753   0.03445   0.00000  Uiso   1.00
H559   H     0.24299   0.67578   0.04088   0.00000  Uiso   1.00
H560   H     0.30339   0.68761   0.00709   0.00000  Uiso   1.00
H561   H     0.29402   0.67336   0.06532   0.00000  Uiso   1.00
O562   O     0.05888   0.80668   0.44954   0.00000  Uiso   1.00
C563   C     0.06474   0.76448   0.43746   0.00000  Uiso   1.00
H564   H     0.05791   0.74468   0.46812   0.00000  Uiso   1.00
H565   H     0.10196   0.75855   0.41574   0.00000  Uiso   1.00
C566   C     0.02819   0.75284   0.41110   0.00000  Uiso   1.00
H567   H     0.32410   0.75842   0.43234   0.00000  Uiso   1.00
H568   H     0.03444   0.77263   0.38064   0.00000  Uiso   1.00
C569   C     0.03285   0.70756   0.39654   0.00000  Uiso   1.00
H570   H     0.06966   0.70161   0.37430   0.00000  Uiso   1.00
H571   H     0.00571   0.70028   0.37764   0.00000  Uiso   1.00
H572   H     0.02622   0.68697   0.42638   0.00000  Uiso   1.00
Br573  Br    0.24359   0.71324   0.32502   0.00000  Uiso   1.00
Br574  Br    0.09015   0.95353   0.17568   0.00000  Uiso   1.00
C575   C     0.66623   0.75411   0.25107   0.00000  Uiso   1.00
C576   C     0.33374   0.91256   0.24911   0.00000  Uiso   1.00
C577   C     0.52444   0.86069   0.04468   0.00000  Uiso   1.00
C578   C     0.47300   0.82466   0.45207   0.00000  Uiso   1.00
C579   C     0.57255   0.86941   0.02190   0.00000  Uiso   1.00
C580   C     0.42452   0.81728   0.47421   0.00000  Uiso   1.00
C581   C     0.62827   0.68716   0.28050   0.00000  Uiso   1.00
C582   C     0.37187   0.97953   0.22001   0.00000  Uiso   1.00
C583   C     0.62905   0.97764   0.27887   0.00000  Uiso   1.00
C584   C     0.37105   0.68905   0.22161   0.00000  Uiso   1.00
C585   C     0.33399   0.95716   0.24900   0.00000  Uiso   1.00
C586   C     0.66604   0.70953   0.25138   0.00000  Uiso   1.00
C587   C     0.51546   0.81196   0.28194   0.00000  Uiso   1.00
C588   C     0.48454   0.85472   0.21807   0.00000  Uiso   1.00
C589   C     0.46590   0.81197   0.28194   0.00000  Uiso   1.00
C590   C     0.53409   0.85470   0.21807   0.00000  Uiso   1.00
C591   C     0.63952   0.83403   0.33609   0.00000  Uiso   1.00
C592   C     0.36051   0.83316   0.16382   0.00000  Uiso   1.00
C593   C     0.62460   0.83906   0.38502   0.00000  Uiso   1.00
C594   C     0.37544   0.83194   0.11445   0.00000  Uiso   1.00
C595   C     0.63881   0.86539   0.45373   0.00000  Uiso   1.00
C596   C     0.35897   0.81718   0.04308   0.00000  Uiso   1.00
C597   C     0.65585   0.85636   0.40814   0.00000  Uiso   1.00
C598   C     0.34266   0.82169   0.08956   0.00000  Uiso   1.00
C599   C     0.57661   0.83022   0.40789   0.00000  Uiso   1.00
C600   C     0.42409   0.83938   0.09231   0.00000  Uiso   1.00
C601   C     0.55748   0.84166   0.45311   0.00000  Uiso   1.00
C602   C     0.44146   0.83618   0.04530   0.00000  Uiso   1.00
C603   C     0.58975   0.85868   0.47649   0.00000  Uiso   1.00
C604   C     0.40820   0.82360   0.02069   0.00000  Uiso   1.00
C605   C     0.50738   0.83644   0.47548   0.00000  Uiso   1.00
C606   C     0.49101   0.84420   0.02241   0.00000  Uiso   1.00
Cu607  Cu    0.38022   0.83334   0.25000   0.00000  Uiso   1.00
Cu608  Cu    0.61978   0.83333   0.25000   0.00000  Uiso   1.00
H609   H     0.44798   0.84642   0.11299   0.00000  Uiso   1.00
H610   H     0.55503   0.81422   0.38930   0.00000  Uiso   1.00
H611   H     0.63811   0.81588   0.10609   0.00000  Uiso   1.00
H612   H     0.35987   0.86351   0.39088   0.00000  Uiso   1.00
H613   H     0.66402   0.87849   0.47081   0.00000  Uiso   1.00
H614   H     0.66630   0.80806   0.02485   0.00000  Uiso   1.00
H615   H     0.51447   0.86854   0.07983   0.00000  Uiso   1.00
H616   H     0.48199   0.82217   0.41597   0.00000  Uiso   1.00
H617   H     0.60029   0.96022   0.30162   0.00000  Uiso   1.00
H618   H     0.39984   0.70646   0.19889   0.00000  Uiso   1.00
H619   H     0.52655   0.79478   0.30755   0.00000  Uiso   1.00
H620   H     0.47345   0.87190   0.19247   0.00000  Uiso   1.00
H621   H     0.43983   0.79479   0.30748   0.00000  Uiso   1.00
H622   H     0.56017   0.87188   0.19252   0.00000  Uiso   1.00
N623   N     0.45069   0.83334   0.24999   0.00000  Uiso   1.00
N624   N     0.54931   0.83332   0.25001   0.00000  Uiso   1.00
O625   O     0.37291   0.77322   0.25000   0.00000  Uiso   1.00
O626   O     0.62709   0.89345   0.25000   0.00000  Uiso   1.00
O627   O     0.62706   0.77321   0.25001   0.00000  Uiso   1.00
O628   O     0.37294   0.89346   0.25000   0.00000  Uiso   1.00
O629   O     0.35186   0.83334   0.31492   0.00000  Uiso   1.00
O630   O     0.64814   0.83332   0.18509   0.00000  Uiso   1.00
O631   O     0.60600   0.83333   0.31492   0.00000  Uiso   1.00
O632   O     0.39400   0.83333   0.18508   0.00000  Uiso   1.00
O633   O     0.60419   0.88473   0.04534   0.00000  Uiso   1.00
C634   C     0.59366   0.92667   0.05737   0.00000  Uiso   1.00
H635   H     0.60477   0.93259   0.08875   0.00000  Uiso   1.00
H636   H     0.55428   0.93422   0.06512   0.00000  Uiso   1.00
C637   C     0.62283   0.95553   0.02050   0.00000  Uiso   1.00
H638   H     0.66206   0.94817   0.01354   0.00000  Uiso   1.00
H639   H     0.61137   0.95075   0.48911   0.00000  Uiso   1.00
C640   C     0.61524   0.66753   0.03445   0.00000  Uiso   1.00
H641   H     0.57633   0.67578   0.04088   0.00000  Uiso   1.00
H642   H     0.63672   0.68761   0.00709   0.00000  Uiso   1.00
H643   H     0.62735   0.67336   0.06532   0.00000  Uiso   1.00
O644   O     0.39222   0.80668   0.44954   0.00000  Uiso   1.00
C645   C     0.39807   0.76448   0.43746   0.00000  Uiso   1.00
H646   H     0.39124   0.74468   0.46812   0.00000  Uiso   1.00
H647   H     0.43529   0.75855   0.41574   0.00000  Uiso   1.00
C648   C     0.36152   0.75284   0.41110   0.00000  Uiso   1.00
H649   H     0.65744   0.75842   0.43234   0.00000  Uiso   1.00
H650   H     0.36778   0.77263   0.38064   0.00000  Uiso   1.00
C651   C     0.36619   0.70756   0.39654   0.00000  Uiso   1.00
H652   H     0.40299   0.70161   0.37430   0.00000  Uiso   1.00
H653   H     0.33904   0.70028   0.37764   0.00000  Uiso   1.00
H654   H     0.35956   0.68697   0.42638   0.00000  Uiso   1.00
Br655  Br    0.57692   0.71324   0.32502   0.00000  Uiso   1.00
Br656  Br    0.42348   0.95353   0.17568   0.00000  Uiso   1.00
C657   C     0.99957   0.75411   0.25107   0.00000  Uiso   1.00
C658   C     0.66707   0.91256   0.24911   0.00000  Uiso   1.00
C659   C     0.85777   0.86069   0.04468   0.00000  Uiso   1.00
C660   C     0.80634   0.82466   0.45207   0.00000  Uiso   1.00
C661   C     0.90589   0.86941   0.02190   0.00000  Uiso   1.00
C662   C     0.75785   0.81728   0.47421   0.00000  Uiso   1.00
C663   C     0.96161   0.68716   0.28050   0.00000  Uiso   1.00
C664   C     0.70520   0.97953   0.22001   0.00000  Uiso   1.00
C665   C     0.96238   0.97764   0.27887   0.00000  Uiso   1.00
C666   C     0.70438   0.68905   0.22161   0.00000  Uiso   1.00
C667   C     0.66732   0.95716   0.24900   0.00000  Uiso   1.00
C668   C     0.99938   0.70953   0.25138   0.00000  Uiso   1.00
C669   C     0.84879   0.81196   0.28194   0.00000  Uiso   1.00
C670   C     0.81787   0.85472   0.21807   0.00000  Uiso   1.00
C671   C     0.79923   0.81197   0.28194   0.00000  Uiso   1.00
C672   C     0.86743   0.85470   0.21807   0.00000  Uiso   1.00
C673   C     0.97285   0.83403   0.33609   0.00000  Uiso   1.00
C674   C     0.69384   0.83316   0.16382   0.00000  Uiso   1.00
C675   C     0.95793   0.83906   0.38502   0.00000  Uiso   1.00
C676   C     0.70877   0.83194   0.11445   0.00000  Uiso   1.00
C677   C     0.97214   0.86539   0.45373   0.00000  Uiso   1.00
C678   C     0.69230   0.81718   0.04308   0.00000  Uiso   1.00
C679   C     0.98919   0.85636   0.40814   0.00000  Uiso   1.00
C680   C     0.67599   0.82169   0.08956   0.00000  Uiso   1.00
C681   C     0.90995   0.83022   0.40789   0.00000  Uiso   1.00
C682   C     0.75743   0.83938   0.09231   0.00000  Uiso   1.00
C683   C     0.89082   0.84166   0.45311   0.00000  Uiso   1.00
C684   C     0.77480   0.83618   0.04530   0.00000  Uiso   1.00
C685   C     0.92308   0.85868   0.47649   0.00000  Uiso   1.00
C686   C     0.74154   0.82360   0.02069   0.00000  Uiso   1.00
C687   C     0.84071   0.83644   0.47548   0.00000  Uiso   1.00
C688   C     0.82435   0.84420   0.02241   0.00000  Uiso   1.00
Cu689  Cu    0.71355   0.83334   0.25000   0.00000  Uiso   1.00
Cu690  Cu    0.95311   0.83333   0.25000   0.00000  Uiso   1.00
H691   H     0.78132   0.84642   0.11299   0.00000  Uiso   1.00
H692   H     0.88836   0.81422   0.38930   0.00000  Uiso   1.00
H693   H     0.97145   0.81588   0.10609   0.00000  Uiso   1.00
H694   H     0.69320   0.86351   0.39088   0.00000  Uiso   1.00
H695   H     0.99735   0.87849   0.47081   0.00000  Uiso   1.00
H696   H     0.99963   0.80806   0.02485   0.00000  Uiso   1.00
H697   H     0.84780   0.86854   0.07983   0.00000  Uiso   1.00
H698   H     0.81533   0.82217   0.41597   0.00000  Uiso   1.00
H699   H     0.93363   0.96022   0.30162   0.00000  Uiso   1.00
H700   H     0.73317   0.70646   0.19889   0.00000  Uiso   1.00
H701   H     0.85988   0.79478   0.30755   0.00000  Uiso   1.00
H702   H     0.80678   0.87190   0.19247   0.00000  Uiso   1.00
H703   H     0.77316   0.79479   0.30748   0.00000  Uiso   1.00
H704   H     0.89350   0.87188   0.19252   0.00000  Uiso   1.00
N705   N     0.78403   0.83334   0.24999   0.00000  Uiso   1.00
N706   N     0.88264   0.83332   0.25001   0.00000  Uiso   1.00
O707   O     0.70625   0.77322   0.25000   0.00000  Uiso   1.00
O708   O     0.96042   0.89345   0.25000   0.00000  Uiso   1.00
O709   O     0.96039   0.77321   0.25001   0.00000  Uiso   1.00
O710   O     0.70628   0.89346   0.25000   0.00000  Uiso   1.00
O711   O     0.68519   0.83334   0.31492   0.00000  Uiso   1.00
O712   O     0.98148   0.83332   0.18509   0.00000  Uiso   1.00
O713   O     0.93933   0.83333   0.31492   0.00000  Uiso   1.00
O714   O     0.72733   0.83333   0.18508   0.00000  Uiso   1.00
O715   O     0.93753   0.88473   0.04534   0.00000  Uiso   1.00
C716   C     0.92699   0.92667   0.05737   0.00000  Uiso   1.00
H717   H     0.93810   0.93259   0.08875   0.00000  Uiso   1.00
H718   H     0.88762   0.93422   0.06512   0.00000  Uiso   1.00
C719   C     0.95617   0.95553   0.02050   0.00000  Uiso   1.00
H720   H     0.99540   0.94817   0.01354   0.00000  Uiso   1.00
H721   H     0.94470   0.95075   0.48911   0.00000  Uiso   1.00
C722   C     0.94857   0.66753   0.03445   0.00000  Uiso   1.00
H723   H     0.90966   0.67578   0.04088   0.00000  Uiso   1.00
H724   H     0.97006   0.68761   0.00709   0.00000  Uiso   1.00
H725   H     0.96068   0.67336   0.06532   0.00000  Uiso   1.00
O726   O     0.72555   0.80668   0.44954   0.00000  Uiso   1.00
C727   C     0.73140   0.76448   0.43746   0.00000  Uiso   1.00
H728   H     0.72458   0.74468   0.46812   0.00000  Uiso   1.00
H729   H     0.76863   0.75855   0.41574   0.00000  Uiso   1.00
C730   C     0.69485   0.75284   0.41110   0.00000  Uiso   1.00
H731   H     0.99077   0.75842   0.43234   0.00000  Uiso   1.00
H732   H     0.70111   0.77263   0.38064   0.00000  Uiso   1.00
C733   C     0.69952   0.70756   0.39654   0.00000  Uiso   1.00
H734   H     0.73633   0.70161   0.37430   0.00000  Uiso   1.00
H735   H     0.67237   0.70028   0.37764   0.00000  Uiso   1.00
H736   H     0.69289   0.68697   0.42638   0.00000  Uiso   1.00
Br737  Br    0.91026   0.71324   0.32502   0.00000  Uiso   1.00
Br738  Br    0.75681   0.95353   0.17568   0.00000  Uiso   1.00
C739   C     0.33290   0.08745   0.75107   0.00000  Uiso   1.00
C740   C     0.00040   0.24589   0.74911   0.00000  Uiso   1.00
C741   C     0.19110   0.19402   0.54468   0.00000  Uiso   1.00
C742   C     0.13967   0.15800   0.95207   0.00000  Uiso   1.00
C743   C     0.23922   0.20274   0.52190   0.00000  Uiso   1.00
C744   C     0.09119   0.15061   0.97421   0.00000  Uiso   1.00
C745   C     0.29494   0.02050   0.78050   0.00000  Uiso   1.00
C746   C     0.03853   0.31287   0.72001   0.00000  Uiso   1.00
C747   C     0.29572   0.31097   0.77887   0.00000  Uiso   1.00
C748   C     0.03772   0.02238   0.72161   0.00000  Uiso   1.00
C749   C     0.00066   0.29049   0.74900   0.00000  Uiso   1.00
C750   C     0.33271   0.04286   0.75138   0.00000  Uiso   1.00
C751   C     0.18213   0.14529   0.78194   0.00000  Uiso   1.00
C752   C     0.15120   0.18805   0.71807   0.00000  Uiso   1.00
C753   C     0.13257   0.14531   0.78194   0.00000  Uiso   1.00
C754   C     0.20076   0.18803   0.71807   0.00000  Uiso   1.00
C755   C     0.30618   0.16736   0.83609   0.00000  Uiso   1.00
C756   C     0.02718   0.16650   0.66382   0.00000  Uiso   1.00
C757   C     0.29126   0.17240   0.88502   0.00000  Uiso   1.00
C758   C     0.04211   0.16527   0.61445   0.00000  Uiso   1.00
C759   C     0.30547   0.19873   0.95373   0.00000  Uiso   1.00
C760   C     0.02564   0.15052   0.54308   0.00000  Uiso   1.00
C761   C     0.32252   0.18969   0.90814   0.00000  Uiso   1.00
C762   C     0.00933   0.15502   0.58956   0.00000  Uiso   1.00
C763   C     0.24328   0.16355   0.90789   0.00000  Uiso   1.00
C764   C     0.09076   0.17271   0.59231   0.00000  Uiso   1.00
C765   C     0.22415   0.17499   0.95311   0.00000  Uiso   1.00
C766   C     0.10813   0.16951   0.54530   0.00000  Uiso   1.00
C767   C     0.25642   0.19202   0.97649   0.00000  Uiso   1.00
C768   C     0.07487   0.15693   0.52069   0.00000  Uiso   1.00
C769   C     0.17405   0.16977   0.97548   0.00000  Uiso   1.00
C770   C     0.15768   0.17753   0.52241   0.00000  Uiso   1.00
Cu771  Cu    0.04689   0.16667   0.75000   0.00000  Uiso   1.00
Cu772  Cu    0.28645   0.16666   0.75000   0.00000  Uiso   1.00
H773   H     0.11465   0.17975   0.61299   0.00000  Uiso   1.00
H774   H     0.22169   0.14755   0.88930   0.00000  Uiso   1.00
H775   H     0.30478   0.14921   0.60609   0.00000  Uiso   1.00
H776   H     0.02653   0.19684   0.89088   0.00000  Uiso   1.00
H777   H     0.33068   0.21183   0.97081   0.00000  Uiso   1.00
H778   H     0.33297   0.14139   0.52485   0.00000  Uiso   1.00
H779   H     0.18113   0.20187   0.57983   0.00000  Uiso   1.00
H780   H     0.14866   0.15550   0.91597   0.00000  Uiso   1.00
H781   H     0.26696   0.29355   0.80162   0.00000  Uiso   1.00
H782   H     0.06650   0.03979   0.69889   0.00000  Uiso   1.00
H783   H     0.19321   0.12811   0.80755   0.00000  Uiso   1.00
H784   H     0.14011   0.20523   0.69247   0.00000  Uiso   1.00
H785   H     0.10649   0.12812   0.80748   0.00000  Uiso   1.00
H786   H     0.22684   0.20521   0.69252   0.00000  Uiso   1.00
N787   N     0.11736   0.16668   0.74999   0.00000  Uiso   1.00
N788   N     0.21597   0.16666   0.75001   0.00000  Uiso   1.00
O789   O     0.03958   0.10655   0.75000   0.00000  Uiso   1.00
O790   O     0.29375   0.22678   0.75000   0.00000  Uiso   1.00
O791   O     0.29372   0.10654   0.75001   0.00000  Uiso   1.00
O792   O     0.03961   0.22679   0.75000   0.00000  Uiso   1.00
O793   O     0.01852   0.16668   0.81492   0.00000  Uiso   1.00
O794   O     0.31481   0.16666   0.68509   0.00000  Uiso   1.00
O795   O     0.27267   0.16667   0.81492   0.00000  Uiso   1.00
O796   O     0.06067   0.16667   0.68508   0.00000  Uiso   1.00
O797   O     0.27086   0.21807   0.54534   0.00000  Uiso   1.00
C798   C     0.26032   0.26000   0.55737   0.00000  Uiso   1.00
H799   H     0.27144   0.26593   0.58875   0.00000  Uiso   1.00
H800   H     0.22095   0.26755   0.56512   0.00000  Uiso   1.00
C801   C     0.28950   0.28886   0.52050   0.00000  Uiso   1.00
H802   H     0.32873   0.28151   0.51354   0.00000  Uiso   1.00
H803   H     0.27803   0.28409   0.98911   0.00000  Uiso   1.00
C804   C     0.28190   0.00086   0.53445   0.00000  Uiso   1.00
H805   H     0.24299   0.00911   0.54088   0.00000  Uiso   1.00
H806   H     0.30339   0.02094   0.50709   0.00000  Uiso   1.00
H807   H     0.29402   0.00670   0.56532   0.00000  Uiso   1.00
O808   O     0.05888   0.14001   0.94954   0.00000  Uiso   1.00
C809   C     0.06474   0.09781   0.93746   0.00000  Uiso   1.00
H810   H     0.05791   0.07801   0.96812   0.00000  Uiso   1.00
H811   H     0.10196   0.09188   0.91574   0.00000  Uiso   1.00
C812   C     0.02819   0.08618   0.91110   0.00000  Uiso   1.00
H813   H     0.32410   0.09175   0.93234   0.00000  Uiso   1.00
H814   H     0.03444   0.10597   0.88064   0.00000  Uiso   1.00
C815   C     0.03285   0.04090   0.89654   0.00000  Uiso   1.00
H816   H     0.06966   0.03494   0.87430   0.00000  Uiso   1.00
H817   H     0.00571   0.03361   0.87764   0.00000  Uiso   1.00
H818   H     0.02622   0.02030   0.92638   0.00000  Uiso   1.00
Br819  Br    0.24359   0.04658   0.82502   0.00000  Uiso   1.00
Br820  Br    0.09015   0.28686   0.67568   0.00000  Uiso   1.00
C821   C     0.66623   0.08745   0.75107   0.00000  Uiso   1.00
C822   C     0.33374   0.24589   0.74911   0.00000  Uiso   1.00
C823   C     0.52444   0.19402   0.54468   0.00000  Uiso   1.00
C824   C     0.47300   0.15800   0.95207   0.00000  Uiso   1.00
C825   C     0.57255   0.20274   0.52190   0.00000  Uiso   1.00
C826   C     0.42452   0.15061   0.97421   0.00000  Uiso   1.00
C827   C     0.62827   0.02050   0.78050   0.00000  Uiso   1.00
C828   C     0.37187   0.31287   0.72001   0.00000  Uiso   1.00
C829   C     0.62905   0.31097   0.77887   0.00000  Uiso   1.00
C830   C     0.37105   0.02238   0.72161   0.00000  Uiso   1.00
C831   C     0.33399   0.29049   0.74900   0.00000  Uiso   1.00
C832   C     0.66604   0.04286   0.75138   0.00000  Uiso   1.00
C833   C     0.51546   0.14529   0.78194   0.00000  Uiso   1.00
C834   C     0.48454   0.18805   0.71807   0.00000  Uiso   1.00
C835   C     0.46590   0.14531   0.78194   0.00000  Uiso   1.00
C836   C     0.53409   0.18803   0.71807   0.00000  Uiso   1.00
C837   C     0.63952   0.16736   0.83609   0.00000  Uiso   1.00
C838   C     0.36051   0.16650   0.66382   0.00000  Uiso   1.00
C839   C     0.62460   0.17240   0.88502   0.00000  Uiso   1.00
C840   C     0.37544   0.16527   0.61445   0.00000  Uiso   1.00
C841   C     0.63881   0.19873   0.95373   0.00000  Uiso   1.00
C842   C     0.35897   0.15052   0.54308   0.00000  Uiso   1.00
C843   C     0.65585   0.18969   0.90814   0.00000  Uiso   1.00
C844   C     0.34266   0.15502   0.58956   0.00000  Uiso   1.00
C845   C     0.57661   0.16355   0.90789   0.00000  Uiso   1.00
C846   C     0.42409   0.17271   0.59231   0.00000  Uiso   1.00
C847   C     0.55748   0.17499   0.95311   0.00000  Uiso   1.00
C848   C     0.44146   0.16951   0.54530   0.00000  Uiso   1.00
C849   C     0.58975   0.19202   0.97649   0.00000  Uiso   1.00
C850   C     0.40820   0.15693   0.52069   0.00000  Uiso   1.00
C851   C     0.50738   0.16977   0.97548   0.00000  Uiso   1.00
C852   C     0.49101   0.17753   0.52241   0.00000  Uiso   1.00
Cu853  Cu    0.38022   0.16667   0.75000   0.00000  Uiso   1.00
Cu854  Cu    0.61978   0.16666   0.75000   0.00000  Uiso   1.00
H855   H     0.44798   0.17975   0.61299   0.00000  Uiso   1.00
H856   H     0.55503   0.14755   0.88930   0.00000  Uiso   1.00
H857   H     0.63811   0.14921   0.60609   0.00000  Uiso   1.00
H858   H     0.35987   0.19684   0.89088   0.00000  Uiso   1.00
H859   H     0.66402   0.21183   0.97081   0.00000  Uiso   1.00
H860   H     0.66630   0.14139   0.52485   0.00000  Uiso   1.00
H861   H     0.51447   0.20187   0.57983   0.00000  Uiso   1.00
H862   H     0.48199   0.15550   0.91597   0.00000  Uiso   1.00
H863   H     0.60029   0.29355   0.80162   0.00000  Uiso   1.00
H864   H     0.39984   0.03979   0.69889   0.00000  Uiso   1.00
H865   H     0.52655   0.12811   0.80755   0.00000  Uiso   1.00
H866   H     0.47345   0.20523   0.69247   0.00000  Uiso   1.00
H867   H     0.43983   0.12812   0.80748   0.00000  Uiso   1.00
H868   H     0.56017   0.20521   0.69252   0.00000  Uiso   1.00
N869   N     0.45069   0.16668   0.74999   0.00000  Uiso   1.00
N870   N     0.54931   0.16666   0.75001   0.00000  Uiso   1.00
O871   O     0.37291   0.10655   0.75000   0.00000  Uiso   1.00
O872   O     0.62709   0.22678   0.75000   0.00000  Uiso   1.00
O873   O     0.62706   0.10654   0.75001   0.00000  Uiso   1.00
O874   O     0.37294   0.22679   0.75000   0.00000  Uiso   1.00
O875   O     0.35186   0.16668   0.81492   0.00000  Uiso   1.00
O876   O     0.64814   0.16666   0.68509   0.00000  Uiso   1.00
O877   O     0.60600   0.16667   0.81492   0.00000  Uiso   1.00
O878   O     0.39400   0.16667   0.68508   0.00000  Uiso   1.00
O879   O     0.60419   0.21807   0.54534   0.00000  Uiso   1.00
C880   C     0.59366   0.26000   0.55737   0.00000  Uiso   1.00
H881   H     0.60477   0.26593   0.58875   0.00000  Uiso   1.00
H882   H     0.55428   0.26755   0.56512   0.00000  Uiso   1.00
C883   C     0.62283   0.28886   0.52050   0.00000  Uiso   1.00
H884   H     0.66206   0.28151   0.51354   0.00000  Uiso   1.00
H885   H     0.61137   0.28409   0.98911   0.00000  Uiso   1.00
C886   C     0.61524   0.00086   0.53445   0.00000  Uiso   1.00
H887   H     0.57633   0.00911   0.54088   0.00000  Uiso   1.00
H888   H     0.63672   0.02094   0.50709   0.00000  Uiso   1.00
H889   H     0.62735   0.00670   0.56532   0.00000  Uiso   1.00
O890   O     0.39222   0.14001   0.94954   0.00000  Uiso   1.00
C891   C     0.39807   0.09781   0.93746   0.00000  Uiso   1.00
H892   H     0.39124   0.07801   0.96812   0.00000  Uiso   1.00
H893   H     0.43529   0.09188   0.91574   0.00000  Uiso   1.00
C894   C     0.36152   0.08618   0.91110   0.00000  Uiso   1.00
H895   H     0.65744   0.09175   0.93234   0.00000  Uiso   1.00
H896   H     0.36778   0.10597   0.88064   0.00000  Uiso   1.00
C897   C     0.36619   0.04090   0.89654   0.00000  Uiso   1.00
H898   H     0.40299   0.03494   0.87430   0.00000  Uiso   1.00
H899   H     0.33904   0.03361   0.87764   0.00000  Uiso   1.00
H900   H     0.35956   0.02030   0.92638   0.00000  Uiso   1.00
Br901  Br    0.57692   0.04658   0.82502   0.00000  Uiso   1.00
Br902  Br    0.42348   0.28686   0.67568   0.00000  Uiso   1.00
C903   C     0.99957   0.08745   0.75107   0.00000  Uiso   1.00
C904   C     0.66707   0.24589   0.74911   0.00000  Uiso   1.00
C905   C     0.85777   0.19402   0.54468   0.00000  Uiso   1.00
C906   C     0.80634   0.15800   0.95207   0.00000  Uiso   1.00
C907   C     0.90589   0.20274   0.52190   0.00000  Uiso   1.00
C908   C     0.75785   0.15061   0.97421   0.00000  Uiso   1.00
C909   C     0.96161   0.02050   0.78050   0.00000  Uiso   1.00
C910   C     0.70520   0.31287   0.72001   0.00000  Uiso   1.00
C911   C     0.96238   0.31097   0.77887   0.00000  Uiso   1.00
C912   C     0.70438   0.02238   0.72161   0.00000  Uiso   1.00
C913   C     0.66732   0.29049   0.74900   0.00000  Uiso   1.00
C914   C     0.99938   0.04286   0.75138   0.00000  Uiso   1.00
C915   C     0.84879   0.14529   0.78194   0.00000  Uiso   1.00
C916   C     0.81787   0.18805   0.71807   0.00000  Uiso   1.00
C917   C     0.79923   0.14531   0.78194   0.00000  Uiso   1.00
C918   C     0.86743   0.18803   0.71807   0.00000  Uiso   1.00
C919   C     0.97285   0.16736   0.83609   0.00000  Uiso   1.00
C920   C     0.69384   0.16650   0.66382   0.00000  Uiso   1.00
C921   C     0.95793   0.17240   0.88502   0.00000  Uiso   1.00
C922   C     0.70877   0.16527   0.61445   0.00000  Uiso   1.00
C923   C     0.97214   0.19873   0.95373   0.00000  Uiso   1.00
C924   C     0.69230   0.15052   0.54308   0.00000  Uiso   1.00
C925   C     0.98919   0.18969   0.90814   0.00000  Uiso   1.00
C926   C     0.67599   0.15502   0.58956   0.00000  Uiso   1.00
C927   C     0.90995   0.16355   0.90789   0.00000  Uiso   1.00
C928   C     0.75743   0.17271   0.59231   0.00000  Uiso   1.00
C929   C     0.89082   0.17499   0.95311   0.00000  Uiso   1.00
C930   C     0.77480   0.16951   0.54530   0.00000  Uiso   1.00
C931   C     0.92308   0.19202   0.97649   0.00000  Uiso   1.00
C932   C     0.74154   0.15693   0.52069   0.00000  Uiso   1.00
C933   C     0.84071   0.16977   0.97548   0.00000  Uiso   1.00
C934   C     0.82435   0.17753   0.52241   0.00000  Uiso   1.00
Cu935  Cu    0.71355   0.16667   0.75000   0.00000  Uiso   1.00
Cu936  Cu    0.95311   0.16666   0.75000   0.00000  Uiso   1.00
H937   H     0.78132   0.17975   0.61299   0.00000  Uiso   1.00
H938   H     0.88836   0.14755   0.88930   0.00000  Uiso   1.00
H939   H     0.97145   0.14921   0.60609   0.00000  Uiso   1.00
H940   H     0.69320   0.19684   0.89088   0.00000  Uiso   1.00
H941   H     0.99735   0.21183   0.97081   0.00000  Uiso   1.00
H942   H     0.99963   0.14139   0.52485   0.00000  Uiso   1.00
H943   H     0.84780   0.20187   0.57983   0.00000  Uiso   1.00
H944   H     0.81533   0.15550   0.91597   0.00000  Uiso   1.00
H945   H     0.93363   0.29355   0.80162   0.00000  Uiso   1.00
H946   H     0.73317   0.03979   0.69889   0.00000  Uiso   1.00
H947   H     0.85988   0.12811   0.80755   0.00000  Uiso   1.00
H948   H     0.80678   0.20523   0.69247   0.00000  Uiso   1.00
H949   H     0.77316   0.12812   0.80748   0.00000  Uiso   1.00
H950   H     0.89350   0.20521   0.69252   0.00000  Uiso   1.00
N951   N     0.78403   0.16668   0.74999   0.00000  Uiso   1.00
N952   N     0.88264   0.16666   0.75001   0.00000  Uiso   1.00
O953   O     0.70625   0.10655   0.75000   0.00000  Uiso   1.00
O954   O     0.96042   0.22678   0.75000   0.00000  Uiso   1.00
O955   O     0.96039   0.10654   0.75001   0.00000  Uiso   1.00
O956   O     0.70628   0.22679   0.75000   0.00000  Uiso   1.00
O957   O     0.68519   0.16668   0.81492   0.00000  Uiso   1.00
O958   O     0.98148   0.16666   0.68509   0.00000  Uiso   1.00
O959   O     0.93933   0.16667   0.81492   0.00000  Uiso   1.00
O960   O     0.72733   0.16667   0.68508   0.00000  Uiso   1.00
O961   O     0.93753   0.21807   0.54534   0.00000  Uiso   1.00
C962   C     0.92699   0.26000   0.55737   0.00000  Uiso   1.00
H963   H     0.93810   0.26593   0.58875   0.00000  Uiso   1.00
H964   H     0.88762   0.26755   0.56512   0.00000  Uiso   1.00
C965   C     0.95617   0.28886   0.52050   0.00000  Uiso   1.00
H966   H     0.99540   0.28151   0.51354   0.00000  Uiso   1.00
H967   H     0.94470   0.28409   0.98911   0.00000  Uiso   1.00
C968   C     0.94857   0.00086   0.53445   0.00000  Uiso   1.00
H969   H     0.90966   0.00911   0.54088   0.00000  Uiso   1.00
H970   H     0.97006   0.02094   0.50709   0.00000  Uiso   1.00
H971   H     0.96068   0.00670   0.56532   0.00000  Uiso   1.00
O972   O     0.72555   0.14001   0.94954   0.00000  Uiso   1.00
C973   C     0.73140   0.09781   0.93746   0.00000  Uiso   1.00
H974   H     0.72458   0.07801   0.96812   0.00000  Uiso   1.00
H975   H     0.76863   0.09188   0.91574   0.00000  Uiso   1.00
C976   C     0.69485   0.08618   0.91110   0.00000  Uiso   1.00
H977   H     0.99077   0.09175   0.93234   0.00000  Uiso   1.00
H978   H     0.70111   0.10597   0.88064   0.00000  Uiso   1.00
C979   C     0.69952   0.04090   0.89654   0.00000  Uiso   1.00
H980   H     0.73633   0.03494   0.87430   0.00000  Uiso   1.00
H981   H     0.67237   0.03361   0.87764   0.00000  Uiso   1.00
H982   H     0.69289   0.02030   0.92638   0.00000  Uiso   1.00
Br983  Br    0.91026   0.04658   0.82502   0.00000  Uiso   1.00
Br984  Br    0.75681   0.28686   0.67568   0.00000  Uiso   1.00
C985   C     0.33290   0.42078   0.75107   0.00000  Uiso   1.00
C986   C     0.00040   0.57923   0.74911   0.00000  Uiso   1.00
C987   C     0.19110   0.52735   0.54468   0.00000  Uiso   1.00
C988   C     0.13967   0.49133   0.95207   0.00000  Uiso   1.00
C989   C     0.23922   0.53607   0.52190   0.00000  Uiso   1.00
C990   C     0.09119   0.48394   0.97421   0.00000  Uiso   1.00
C991   C     0.29494   0.35383   0.78050   0.00000  Uiso   1.00
C992   C     0.03853   0.64620   0.72001   0.00000  Uiso   1.00
C993   C     0.29572   0.64430   0.77887   0.00000  Uiso   1.00
C994   C     0.03772   0.35571   0.72161   0.00000  Uiso   1.00
C995   C     0.00066   0.62382   0.74900   0.00000  Uiso   1.00
C996   C     0.33271   0.37619   0.75138   0.00000  Uiso   1.00
C997   C     0.18213   0.47862   0.78194   0.00000  Uiso   1.00
C998   C     0.15120   0.52138   0.71807   0.00000  Uiso   1.00
C999   C     0.13257   0.47864   0.78194   0.00000  Uiso   1.00
C1000  C     0.20076   0.52136   0.71807   0.00000  Uiso   1.00
C1001  C     0.30618   0.50069   0.83609   0.00000  Uiso   1.00
C1002  C     0.02718   0.49983   0.66382   0.00000  Uiso   1.00
C1003  C     0.29126   0.50573   0.88502   0.00000  Uiso   1.00
C1004  C     0.04211   0.49861   0.61445   0.00000  Uiso   1.00
C1005  C     0.30547   0.53206   0.95373   0.00000  Uiso   1.00
C1006  C     0.02564   0.48385   0.54308   0.00000  Uiso   1.00
C1007  C     0.32252   0.52303   0.90814   0.00000  Uiso   1.00
C1008  C     0.00933   0.48835   0.58956   0.00000  Uiso   1.00
C1009  C     0.24328   0.49688   0.90789   0.00000  Uiso   1.00
C1010  C     0.09076   0.50605   0.59231   0.00000  Uiso   1.00
C1011  C     0.22415   0.50832   0.95311   0.00000  Uiso   1.00
C1012  C     0.10813   0.50284   0.54530   0.00000  Uiso   1.00
C1013  C     0.25642   0.52535   0.97649   0.00000  Uiso   1.00
C1014  C     0.07487   0.49027   0.52069   0.00000  Uiso   1.00
C1015  C     0.17405   0.50310   0.97548   0.00000  Uiso   1.00
C1016  C     0.15768   0.51086   0.52241   0.00000  Uiso   1.00
Cu1017 Cu    0.04689   0.50001   0.75000   0.00000  Uiso   1.00
Cu1018 Cu    0.28645   0.49999   0.75000   0.00000  Uiso   1.00
H1019  H     0.11465   0.51308   0.61299   0.00000  Uiso   1.00
H1020  H     0.22169   0.48088   0.88930   0.00000  Uiso   1.00
H1021  H     0.30478   0.48255   0.60609   0.00000  Uiso   1.00
H1022  H     0.02653   0.53017   0.89088   0.00000  Uiso   1.00
H1023  H     0.33068   0.54516   0.97081   0.00000  Uiso   1.00
H1024  H     0.33297   0.47473   0.52485   0.00000  Uiso   1.00
H1025  H     0.18113   0.53520   0.57983   0.00000  Uiso   1.00
H1026  H     0.14866   0.48883   0.91597   0.00000  Uiso   1.00
H1027  H     0.26696   0.62688   0.80162   0.00000  Uiso   1.00
H1028  H     0.06650   0.37313   0.69889   0.00000  Uiso   1.00
H1029  H     0.19321   0.46144   0.80755   0.00000  Uiso   1.00
H1030  H     0.14011   0.53857   0.69247   0.00000  Uiso   1.00
H1031  H     0.10649   0.46145   0.80748   0.00000  Uiso   1.00
H1032  H     0.22684   0.53855   0.69252   0.00000  Uiso   1.00
N1033  N     0.11736   0.50001   0.74999   0.00000  Uiso   1.00
N1034  N     0.21597   0.49999   0.75001   0.00000  Uiso   1.00
O1035  O     0.03958   0.43989   0.75000   0.00000  Uiso   1.00
O1036  O     0.29375   0.56011   0.75000   0.00000  Uiso   1.00
O1037  O     0.29372   0.43988   0.75001   0.00000  Uiso   1.00
O1038  O     0.03961   0.56012   0.75000   0.00000  Uiso   1.00
O1039  O     0.01852   0.50001   0.81492   0.00000  Uiso   1.00
O1040  O     0.31481   0.49999   0.68509   0.00000  Uiso   1.00
O1041  O     0.27267   0.50000   0.81492   0.00000  Uiso   1.00
O1042  O     0.06067   0.50000   0.68508   0.00000  Uiso   1.00
O1043  O     0.27086   0.55140   0.54534   0.00000  Uiso   1.00
C1044  C     0.26032   0.59333   0.55737   0.00000  Uiso   1.00
H1045  H     0.27144   0.59926   0.58875   0.00000  Uiso   1.00
H1046  H     0.22095   0.60088   0.56512   0.00000  Uiso   1.00
C1047  C     0.28950   0.62220   0.52050   0.00000  Uiso   1.00
H1048  H     0.32873   0.61484   0.51354   0.00000  Uiso   1.00
H1049  H     0.27803   0.61742   0.98911   0.00000  Uiso   1.00
C1050  C     0.28190   0.33419   0.53445   0.00000  Uiso   1.00
H1051  H     0.24299   0.34244   0.54088   0.00000  Uiso   1.00
H1052  H     0.30339   0.35427   0.50709   0.00000  Uiso   1.00
H1053  H     0.29402   0.34003   0.56532   0.00000  Uiso   1.00
O1054  O     0.05888   0.47335   0.94954   0.00000  Uiso   1.00
C1055  C     0.06474   0.43114   0.93746   0.00000  Uiso   1.00
H1056  H     0.05791   0.41135   0.96812   0.00000  Uiso   1.00
H1057  H     0.10196   0.42522   0.91574   0.00000  Uiso   1.00
C1058  C     0.02819   0.41951   0.91110   0.00000  Uiso   1.00
H1059  H     0.32410   0.42509   0.93234   0.00000  Uiso   1.00
H1060  H     0.03444   0.43930   0.88064   0.00000  Uiso   1.00
C1061  C     0.03285   0.37423   0.89654   0.00000  Uiso   1.00
H1062  H     0.06966   0.36827   0.87430   0.00000  Uiso   1.00
H1063  H     0.00571   0.36694   0.87764   0.00000  Uiso   1.00
H1064  H     0.02622   0.35363   0.92638   0.00000  Uiso   1.00
Br1065 Br    0.24359   0.37991   0.82502   0.00000  Uiso   1.00
Br1066 Br    0.09015   0.62019   0.67568   0.00000  Uiso   1.00
C1067  C     0.66623   0.42078   0.75107   0.00000  Uiso   1.00
C1068  C     0.33374   0.57923   0.74911   0.00000  Uiso   1.00
C1069  C     0.52444   0.52735   0.54468   0.00000  Uiso   1.00
C1070  C     0.47300   0.49133   0.95207   0.00000  Uiso   1.00
C1071  C     0.57255   0.53607   0.52190   0.00000  Uiso   1.00
C1072  C     0.42452   0.48394   0.97421   0.00000  Uiso   1.00
C1073  C     0.62827   0.35383   0.78050   0.00000  Uiso   1.00
C1074  C     0.37187   0.64620   0.72001   0.00000  Uiso   1.00
C1075  C     0.62905   0.64430   0.77887   0.00000  Uiso   1.00
C1076  C     0.37105   0.35571   0.72161   0.00000  Uiso   1.00
C1077  C     0.33399   0.62382   0.74900   0.00000  Uiso   1.00
C1078  C     0.66604   0.37619   0.75138   0.00000  Uiso   1.00
C1079  C     0.51546   0.47862   0.78194   0.00000  Uiso   1.00
C1080  C     0.48454   0.52138   0.71807   0.00000  Uiso   1.00
C1081  C     0.46590   0.47864   0.78194   0.00000  Uiso   1.00
C1082  C     0.53409   0.52136   0.71807   0.00000  Uiso   1.00
C1083  C     0.63952   0.50069   0.83609   0.00000  Uiso   1.00
C1084  C     0.36051   0.49983   0.66382   0.00000  Uiso   1.00
C1085  C     0.62460   0.50573   0.88502   0.00000  Uiso   1.00
C1086  C     0.37544   0.49861   0.61445   0.00000  Uiso   1.00
C1087  C     0.63881   0.53206   0.95373   0.00000  Uiso   1.00
C1088  C     0.35897   0.48385   0.54308   0.00000  Uiso   1.00
C1089  C     0.65585   0.52303   0.90814   0.00000  Uiso   1.00
C1090  C     0.34266   0.48835   0.58956   0.00000  Uiso   1.00
C1091  C     0.57661   0.49688   0.90789   0.00000  Uiso   1.00
C1092  C     0.42409   0.50605   0.59231   0.00000  Uiso   1.00
C1093  C     0.55748   0.50832   0.95311   0.00000  Uiso   1.00
C1094  C     0.44146   0.50284   0.54530   0.00000  Uiso   1.00
C1095  C     0.58975   0.52535   0.97649   0.00000  Uiso   1.00
C1096  C     0.40820   0.49027   0.52069   0.00000  Uiso   1.00
C1097  C     0.50738   0.50310   0.97548   0.00000  Uiso   1.00
C1098  C     0.49101   0.51086   0.52241   0.00000  Uiso   1.00
Cu1099 Cu    0.38022   0.50001   0.75000   0.00000  Uiso   1.00
Cu1100 Cu    0.61978   0.49999   0.75000   0.00000  Uiso   1.00
H1101  H     0.44798   0.51308   0.61299   0.00000  Uiso   1.00
H1102  H     0.55503   0.48088   0.88930   0.00000  Uiso   1.00
H1103  H     0.63811   0.48255   0.60609   0.00000  Uiso   1.00
H1104  H     0.35987   0.53017   0.89088   0.00000  Uiso   1.00
H1105  H     0.66402   0.54516   0.97081   0.00000  Uiso   1.00
H1106  H     0.66630   0.47473   0.52485   0.00000  Uiso   1.00
H1107  H     0.51447   0.53520   0.57983   0.00000  Uiso   1.00
H1108  H     0.48199   0.48883   0.91597   0.00000  Uiso   1.00
H1109  H     0.60029   0.62688   0.80162   0.00000  Uiso   1.00
H1110  H     0.39984   0.37313   0.69889   0.00000  Uiso   1.00
H1111  H     0.52655   0.46144   0.80755   0.00000  Uiso   1.00
H1112  H     0.47345   0.53857   0.69247   0.00000  Uiso   1.00
H1113  H     0.43983   0.46145   0.80748   0.00000  Uiso   1.00
H1114  H     0.56017   0.53855   0.69252   0.00000  Uiso   1.00
N1115  N     0.45069   0.50001   0.74999   0.00000  Uiso   1.00
N1116  N     0.54931   0.49999   0.75001   0.00000  Uiso   1.00
O1117  O     0.37291   0.43989   0.75000   0.00000  Uiso   1.00
O1118  O     0.62709   0.56011   0.75000   0.00000  Uiso   1.00
O1119  O     0.62706   0.43988   0.75001   0.00000  Uiso   1.00
O1120  O     0.37294   0.56012   0.75000   0.00000  Uiso   1.00
O1121  O     0.35186   0.50001   0.81492   0.00000  Uiso   1.00
O1122  O     0.64814   0.49999   0.68509   0.00000  Uiso   1.00
O1123  O     0.60600   0.50000   0.81492   0.00000  Uiso   1.00
O1124  O     0.39400   0.50000   0.68508   0.00000  Uiso   1.00
O1125  O     0.60419   0.55140   0.54534   0.00000  Uiso   1.00
C1126  C     0.59366   0.59333   0.55737   0.00000  Uiso   1.00
H1127  H     0.60477   0.59926   0.58875   0.00000  Uiso   1.00
H1128  H     0.55428   0.60088   0.56512   0.00000  Uiso   1.00
C1129  C     0.62283   0.62220   0.52050   0.00000  Uiso   1.00
H1130  H     0.66206   0.61484   0.51354   0.00000  Uiso   1.00
H1131  H     0.61137   0.61742   0.98911   0.00000  Uiso   1.00
C1132  C     0.61524   0.33419   0.53445   0.00000  Uiso   1.00
H1133  H     0.57633   0.34244   0.54088   0.00000  Uiso   1.00
H1134  H     0.63672   0.35427   0.50709   0.00000  Uiso   1.00
H1135  H     0.62735   0.34003   0.56532   0.00000  Uiso   1.00
O1136  O     0.39222   0.47335   0.94954   0.00000  Uiso   1.00
C1137  C     0.39807   0.43114   0.93746   0.00000  Uiso   1.00
H1138  H     0.39124   0.41135   0.96812   0.00000  Uiso   1.00
H1139  H     0.43529   0.42522   0.91574   0.00000  Uiso   1.00
C1140  C     0.36152   0.41951   0.91110   0.00000  Uiso   1.00
H1141  H     0.65744   0.42509   0.93234   0.00000  Uiso   1.00
H1142  H     0.36778   0.43930   0.88064   0.00000  Uiso   1.00
C1143  C     0.36619   0.37423   0.89654   0.00000  Uiso   1.00
H1144  H     0.40299   0.36827   0.87430   0.00000  Uiso   1.00
H1145  H     0.33904   0.36694   0.87764   0.00000  Uiso   1.00
H1146  H     0.35956   0.35363   0.92638   0.00000  Uiso   1.00
Br1147 Br    0.57692   0.37991   0.82502   0.00000  Uiso   1.00
Br1148 Br    0.42348   0.62019   0.67568   0.00000  Uiso   1.00
C1149  C     0.99957   0.42078   0.75107   0.00000  Uiso   1.00
C1150  C     0.66707   0.57923   0.74911   0.00000  Uiso   1.00
C1151  C     0.85777   0.52735   0.54468   0.00000  Uiso   1.00
C1152  C     0.80634   0.49133   0.95207   0.00000  Uiso   1.00
C1153  C     0.90589   0.53607   0.52190   0.00000  Uiso   1.00
C1154  C     0.75785   0.48394   0.97421   0.00000  Uiso   1.00
C1155  C     0.96161   0.35383   0.78050   0.00000  Uiso   1.00
C1156  C     0.70520   0.64620   0.72001   0.00000  Uiso   1.00
C1157  C     0.96238   0.64430   0.77887   0.00000  Uiso   1.00
C1158  C     0.70438   0.35571   0.72161   0.00000  Uiso   1.00
C1159  C     0.66732   0.62382   0.74900   0.00000  Uiso   1.00
C1160  C     0.99938   0.37619   0.75138   0.00000  Uiso   1.00
C1161  C     0.84879   0.47862   0.78194   0.00000  Uiso   1.00
C1162  C     0.81787   0.52138   0.71807   0.00000  Uiso   1.00
C1163  C     0.79923   0.47864   0.78194   0.00000  Uiso   1.00
C1164  C     0.86743   0.52136   0.71807   0.00000  Uiso   1.00
C1165  C     0.97285   0.50069   0.83609   0.00000  Uiso   1.00
C1166  C     0.69384   0.49983   0.66382   0.00000  Uiso   1.00
C1167  C     0.95793   0.50573   0.88502   0.00000  Uiso   1.00
C1168  C     0.70877   0.49861   0.61445   0.00000  Uiso   1.00
C1169  C     0.97214   0.53206   0.95373   0.00000  Uiso   1.00
C1170  C     0.69230   0.48385   0.54308   0.00000  Uiso   1.00
C1171  C     0.98919   0.52303   0.90814   0.00000  Uiso   1.00
C1172  C     0.67599   0.48835   0.58956   0.00000  Uiso   1.00
C1173  C     0.90995   0.49688   0.90789   0.00000  Uiso   1.00
C1174  C     0.75743   0.50605   0.59231   0.00000  Uiso   1.00
C1175  C     0.89082   0.50832   0.95311   0.00000  Uiso   1.00
C1176  C     0.77480   0.50284   0.54530   0.00000  Uiso   1.00
C1177  C     0.92308   0.52535   0.97649   0.00000  Uiso   1.00
C1178  C     0.74154   0.49027   0.52069   0.00000  Uiso   1.00
C1179  C     0.84071   0.50310   0.97548   0.00000  Uiso   1.00
C1180  C     0.82435   0.51086   0.52241   0.00000  Uiso   1.00
Cu1181 Cu    0.71355   0.50001   0.75000   0.00000  Uiso   1.00
Cu1182 Cu    0.95311   0.49999   0.75000   0.00000  Uiso   1.00
H1183  H     0.78132   0.51308   0.61299   0.00000  Uiso   1.00
H1184  H     0.88836   0.48088   0.88930   0.00000  Uiso   1.00
H1185  H     0.97145   0.48255   0.60609   0.00000  Uiso   1.00
H1186  H     0.69320   0.53017   0.89088   0.00000  Uiso   1.00
H1187  H     0.99735   0.54516   0.97081   0.00000  Uiso   1.00
H1188  H     0.99963   0.47473   0.52485   0.00000  Uiso   1.00
H1189  H     0.84780   0.53520   0.57983   0.00000  Uiso   1.00
H1190  H     0.81533   0.48883   0.91597   0.00000  Uiso   1.00
H1191  H     0.93363   0.62688   0.80162   0.00000  Uiso   1.00
H1192  H     0.73317   0.37313   0.69889   0.00000  Uiso   1.00
H1193  H     0.85988   0.46144   0.80755   0.00000  Uiso   1.00
H1194  H     0.80678   0.53857   0.69247   0.00000  Uiso   1.00
H1195  H     0.77316   0.46145   0.80748   0.00000  Uiso   1.00
H1196  H     0.89350   0.53855   0.69252   0.00000  Uiso   1.00
N1197  N     0.78403   0.50001   0.74999   0.00000  Uiso   1.00
N1198  N     0.88264   0.49999   0.75001   0.00000  Uiso   1.00
O1199  O     0.70625   0.43989   0.75000   0.00000  Uiso   1.00
O1200  O     0.96042   0.56011   0.75000   0.00000  Uiso   1.00
O1201  O     0.96039   0.43988   0.75001   0.00000  Uiso   1.00
O1202  O     0.70628   0.56012   0.75000   0.00000  Uiso   1.00
O1203  O     0.68519   0.50001   0.81492   0.00000  Uiso   1.00
O1204  O     0.98148   0.49999   0.68509   0.00000  Uiso   1.00
O1205  O     0.93933   0.50000   0.81492   0.00000  Uiso   1.00
O1206  O     0.72733   0.50000   0.68508   0.00000  Uiso   1.00
O1207  O     0.93753   0.55140   0.54534   0.00000  Uiso   1.00
C1208  C     0.92699   0.59333   0.55737   0.00000  Uiso   1.00
H1209  H     0.93810   0.59926   0.58875   0.00000  Uiso   1.00
H1210  H     0.88762   0.60088   0.56512   0.00000  Uiso   1.00
C1211  C     0.95617   0.62220   0.52050   0.00000  Uiso   1.00
H1212  H     0.99540   0.61484   0.51354   0.00000  Uiso   1.00
H1213  H     0.94470   0.61742   0.98911   0.00000  Uiso   1.00
C1214  C     0.94857   0.33419   0.53445   0.00000  Uiso   1.00
H1215  H     0.90966   0.34244   0.54088   0.00000  Uiso   1.00
H1216  H     0.97006   0.35427   0.50709   0.00000  Uiso   1.00
H1217  H     0.96068   0.34003   0.56532   0.00000  Uiso   1.00
O1218  O     0.72555   0.47335   0.94954   0.00000  Uiso   1.00
C1219  C     0.73140   0.43114   0.93746   0.00000  Uiso   1.00
H1220  H     0.72458   0.41135   0.96812   0.00000  Uiso   1.00
H1221  H     0.76863   0.42522   0.91574   0.00000  Uiso   1.00
C1222  C     0.69485   0.41951   0.91110   0.00000  Uiso   1.00
H1223  H     0.99077   0.42509   0.93234   0.00000  Uiso   1.00
H1224  H     0.70111   0.43930   0.88064   0.00000  Uiso   1.00
C1225  C     0.69952   0.37423   0.89654   0.00000  Uiso   1.00
H1226  H     0.73633   0.36827   0.87430   0.00000  Uiso   1.00
H1227  H     0.67237   0.36694   0.87764   0.00000  Uiso   1.00
H1228  H     0.69289   0.35363   0.92638   0.00000  Uiso   1.00
Br1229 Br    0.91026   0.37991   0.82502   0.00000  Uiso   1.00
Br1230 Br    0.75681   0.62019   0.67568   0.00000  Uiso   1.00
C1231  C     0.33290   0.75411   0.75107   0.00000  Uiso   1.00
C1232  C     0.00040   0.91256   0.74911   0.00000  Uiso   1.00
C1233  C     0.19110   0.86069   0.54468   0.00000  Uiso   1.00
C1234  C     0.13967   0.82466   0.95207   0.00000  Uiso   1.00
C1235  C     0.23922   0.86941   0.52190   0.00000  Uiso   1.00
C1236  C     0.09119   0.81728   0.97421   0.00000  Uiso   1.00
C1237  C     0.29494   0.68716   0.78050   0.00000  Uiso   1.00
C1238  C     0.03853   0.97953   0.72001   0.00000  Uiso   1.00
C1239  C     0.29572   0.97764   0.77887   0.00000  Uiso   1.00
C1240  C     0.03772   0.68905   0.72161   0.00000  Uiso   1.00
C1241  C     0.00066   0.95716   0.74900   0.00000  Uiso   1.00
C1242  C     0.33271   0.70953   0.75138   0.00000  Uiso   1.00
C1243  C     0.18213   0.81196   0.78194   0.00000  Uiso   1.00
C1244  C     0.15120   0.85472   0.71807   0.00000  Uiso   1.00
C1245  C     0.13257   0.81197   0.78194   0.00000  Uiso   1.00
C1246  C     0.20076   0.85470   0.71807   0.00000  Uiso   1.00
C1247  C     0.30618   0.83403   0.83609   0.00000  Uiso   1.00
C1248  C     0.02718   0.83316   0.66382   0.00000  Uiso   1.00
C1249  C     0.29126   0.83906   0.88502   0.00000  Uiso   1.00
C1250  C     0.04211   0.83194   0.61445   0.00000  Uiso   1.00
C1251  C     0.30547   0.86539   0.95373   0.00000  Uiso   1.00
C1252  C     0.02564   0.81718   0.54308   0.00000  Uiso   1.00
C1253  C     0.32252   0.85636   0.90814   0.00000  Uiso   1.00
C1254  C     0.00933   0.82169   0.58956   0.00000  Uiso   1.00
C1255  C     0.24328   0.83022   0.90789   0.00000  Uiso   1.00
C1256  C     0.09076   0.83938   0.59231   0.00000  Uiso   1.00
C1257  C     0.22415   0.84166   0.95311   0.00000  Uiso   1.00
C1258  C     0.10813   0.83618   0.54530   0.00000  Uiso   1.00
C1259  C     0.25642   0.85868   0.97649   0.00000  Uiso   1.00
C1260  C     0.07487   0.82360   0.52069   0.00000  Uiso   1.00
C1261  C     0.17405   0.83644   0.97548   0.00000  Uiso   1.00
C1262  C     0.15768   0.84420   0.52241   0.00000  Uiso   1.00
Cu1263 Cu    0.04689   0.83334   0.75000   0.00000  Uiso   1.00
Cu1264 Cu    0.28645   0.83333   0.75000   0.00000  Uiso   1.00
H1265  H     0.11465   0.84642   0.61299   0.00000  Uiso   1.00
H1266  H     0.22169   0.81422   0.88930   0.00000  Uiso   1.00
H1267  H     0.30478   0.81588   0.60609   0.00000  Uiso   1.00
H1268  H     0.02653   0.86351   0.89088   0.00000  Uiso   1.00
H1269  H     0.33068   0.87849   0.97081   0.00000  Uiso   1.00
H1270  H     0.33297   0.80806   0.52485   0.00000  Uiso   1.00
H1271  H     0.18113   0.86854   0.57983   0.00000  Uiso   1.00
H1272  H     0.14866   0.82217   0.91597   0.00000  Uiso   1.00
H1273  H     0.26696   0.96022   0.80162   0.00000  Uiso   1.00
H1274  H     0.06650   0.70646   0.69889   0.00000  Uiso   1.00
H1275  H     0.19321   0.79478   0.80755   0.00000  Uiso   1.00
H1276  H     0.14011   0.87190   0.69247   0.00000  Uiso   1.00
H1277  H     0.10649   0.79479   0.80748   0.00000  Uiso   1.00
H1278  H     0.22684   0.87188   0.69252   0.00000  Uiso   1.00
N1279  N     0.11736   0.83334   0.74999   0.00000  Uiso   1.00
N1280  N     0.21597   0.83332   0.75001   0.00000  Uiso   1.00
O1281  O     0.03958   0.77322   0.75000   0.00000  Uiso   1.00
O1282  O     0.29375   0.89345   0.75000   0.00000  Uiso   1.00
O1283  O     0.29372   0.77321   0.75001   0.00000  Uiso   1.00
O1284  O     0.03961   0.89346   0.75000   0.00000  Uiso   1.00
O1285  O     0.01852   0.83334   0.81492   0.00000  Uiso   1.00
O1286  O     0.31481   0.83332   0.68509   0.00000  Uiso   1.00
O1287  O     0.27267   0.83333   0.81492   0.00000  Uiso   1.00
O1288  O     0.06067   0.83333   0.68508   0.00000  Uiso   1.00
O1289  O     0.27086   0.88473   0.54534   0.00000  Uiso   1.00
C1290  C     0.26032   0.92667   0.55737   0.00000  Uiso   1.00
H1291  H     0.27144   0.93259   0.58875   0.00000  Uiso   1.00
H1292  H     0.22095   0.93422   0.56512   0.00000  Uiso   1.00
C1293  C     0.28950   0.95553   0.52050   0.00000  Uiso   1.00
H1294  H     0.32873   0.94817   0.51354   0.00000  Uiso   1.00
H1295  H     0.27803   0.95075   0.98911   0.00000  Uiso   1.00
C1296  C     0.28190   0.66753   0.53445   0.00000  Uiso   1.00
H1297  H     0.24299   0.67578   0.54088   0.00000  Uiso   1.00
H1298  H     0.30339   0.68761   0.50709   0.00000  Uiso   1.00
H1299  H     0.29402   0.67336   0.56532   0.00000  Uiso   1.00
O1300  O     0.05888   0.80668   0.94954   0.00000  Uiso   1.00
C1301  C     0.06474   0.76448   0.93746   0.00000  Uiso   1.00
H1302  H     0.05791   0.74468   0.96812   0.00000  Uiso   1.00
H1303  H     0.10196   0.75855   0.91574   0.00000  Uiso   1.00
C1304  C     0.02819   0.75284   0.91110   0.00000  Uiso   1.00
H1305  H     0.32410   0.75842   0.93234   0.00000  Uiso   1.00
H1306  H     0.03444   0.77263   0.88064   0.00000  Uiso   1.00
C1307  C     0.03285   0.70756   0.89654   0.00000  Uiso   1.00
H1308  H     0.06966   0.70161   0.87430   0.00000  Uiso   1.00
H1309  H     0.00571   0.70028   0.87764   0.00000  Uiso   1.00
H1310  H     0.02622   0.68697   0.92638   0.00000  Uiso   1.00
Br1311 Br    0.24359   0.71324   0.82502   0.00000  Uiso   1.00
Br1312 Br    0.09015   0.95353   0.67568   0.00000  Uiso   1.00
C1313  C     0.66623   0.75411   0.75107   0.00000  Uiso   1.00
C1314  C     0.33374   0.91256   0.74911   0.00000  Uiso   1.00
C1315  C     0.52444   0.86069   0.54468   0.00000  Uiso   1.00
C1316  C     0.47300   0.82466   0.95207   0.00000  Uiso   1.00
C1317  C     0.57255   0.86941   0.52190   0.00000  Uiso   1.00
C1318  C     0.42452   0.81728   0.97421   0.00000  Uiso   1.00
C1319  C     0.62827   0.68716   0.78050   0.00000  Uiso   1.00
C1320  C     0.37187   0.97953   0.72001   0.00000  Uiso   1.00
C1321  C     0.62905   0.97764   0.77887   0.00000  Uiso   1.00
C1322  C     0.37105   0.68905   0.72161   0.00000  Uiso   1.00
C1323  C     0.33399   0.95716   0.74900   0.00000  Uiso   1.00
C1324  C     0.66604   0.70953   0.75138   0.00000  Uiso   1.00
C1325  C     0.51546   0.81196   0.78194   0.00000  Uiso   1.00
C1326  C     0.48454   0.85472   0.71807   0.00000  Uiso   1.00
C1327  C     0.46590   0.81197   0.78194   0.00000  Uiso   1.00
C1328  C     0.53409   0.85470   0.71807   0.00000  Uiso   1.00
C1329  C     0.63952   0.83403   0.83609   0.00000  Uiso   1.00
C1330  C     0.36051   0.83316   0.66382   0.00000  Uiso   1.00
C1331  C     0.62460   0.83906   0.88502   0.00000  Uiso   1.00
C1332  C     0.37544   0.83194   0.61445   0.00000  Uiso   1.00
C1333  C     0.63881   0.86539   0.95373   0.00000  Uiso   1.00
C1334  C     0.35897   0.81718   0.54308   0.00000  Uiso   1.00
C1335  C     0.65585   0.85636   0.90814   0.00000  Uiso   1.00
C1336  C     0.34266   0.82169   0.58956   0.00000  Uiso   1.00
C1337  C     0.57661   0.83022   0.90789   0.00000  Uiso   1.00
C1338  C     0.42409   0.83938   0.59231   0.00000  Uiso   1.00
C1339  C     0.55748   0.84166   0.95311   0.00000  Uiso   1.00
C1340  C     0.44146   0.83618   0.54530   0.00000  Uiso   1.00
C1341  C     0.58975   0.85868   0.97649   0.00000  Uiso   1.00
C1342  C     0.40820   0.82360   0.52069   0.00000  Uiso   1.00
C1343  C     0.50738   0.83644   0.97548   0.00000  Uiso   1.00
C1344  C     0.49101   0.84420   0.52241   0.00000  Uiso   1.00
Cu1345 Cu    0.38022   0.83334   0.75000   0.00000  Uiso   1.00
Cu1346 Cu    0.61978   0.83333   0.75000   0.00000  Uiso   1.00
H1347  H     0.44798   0.84642   0.61299   0.00000  Uiso   1.00
H1348  H     0.55503   0.81422   0.88930   0.00000  Uiso   1.00
H1349  H     0.63811   0.81588   0.60609   0.00000  Uiso   1.00
H1350  H     0.35987   0.86351   0.89088   0.00000  Uiso   1.00
H1351  H     0.66402   0.87849   0.97081   0.00000  Uiso   1.00
H1352  H     0.66630   0.80806   0.52485   0.00000  Uiso   1.00
H1353  H     0.51447   0.86854   0.57983   0.00000  Uiso   1.00
H1354  H     0.48199   0.82217   0.91597   0.00000  Uiso   1.00
H1355  H     0.60029   0.96022   0.80162   0.00000  Uiso   1.00
H1356  H     0.39984   0.70646   0.69889   0.00000  Uiso   1.00
H1357  H     0.52655   0.79478   0.80755   0.00000  Uiso   1.00
H1358  H     0.47345   0.87190   0.69247   0.00000  Uiso   1.00
H1359  H     0.43983   0.79479   0.80748   0.00000  Uiso   1.00
H1360  H     0.56017   0.87188   0.69252   0.00000  Uiso   1.00
N1361  N     0.45069   0.83334   0.74999   0.00000  Uiso   1.00
N1362  N     0.54931   0.83332   0.75001   0.00000  Uiso   1.00
O1363  O     0.37291   0.77322   0.75000   0.00000  Uiso   1.00
O1364  O     0.62709   0.89345   0.75000   0.00000  Uiso   1.00
O1365  O     0.62706   0.77321   0.75001   0.00000  Uiso   1.00
O1366  O     0.37294   0.89346   0.75000   0.00000  Uiso   1.00
O1367  O     0.35186   0.83334   0.81492   0.00000  Uiso   1.00
O1368  O     0.64814   0.83332   0.68509   0.00000  Uiso   1.00
O1369  O     0.60600   0.83333   0.81492   0.00000  Uiso   1.00
O1370  O     0.39400   0.83333   0.68508   0.00000  Uiso   1.00
O1371  O     0.60419   0.88473   0.54534   0.00000  Uiso   1.00
C1372  C     0.59366   0.92667   0.55737   0.00000  Uiso   1.00
H1373  H     0.60477   0.93259   0.58875   0.00000  Uiso   1.00
H1374  H     0.55428   0.93422   0.56512   0.00000  Uiso   1.00
C1375  C     0.62283   0.95553   0.52050   0.00000  Uiso   1.00
H1376  H     0.66206   0.94817   0.51354   0.00000  Uiso   1.00
H1377  H     0.61137   0.95075   0.98911   0.00000  Uiso   1.00
C1378  C     0.61524   0.66753   0.53445   0.00000  Uiso   1.00
H1379  H     0.57633   0.67578   0.54088   0.00000  Uiso   1.00
H1380  H     0.63672   0.68761   0.50709   0.00000  Uiso   1.00
H1381  H     0.62735   0.67336   0.56532   0.00000  Uiso   1.00
O1382  O     0.39222   0.80668   0.94954   0.00000  Uiso   1.00
C1383  C     0.39807   0.76448   0.93746   0.00000  Uiso   1.00
H1384  H     0.39124   0.74468   0.96812   0.00000  Uiso   1.00
H1385  H     0.43529   0.75855   0.91574   0.00000  Uiso   1.00
C1386  C     0.36152   0.75284   0.91110   0.00000  Uiso   1.00
H1387  H     0.65744   0.75842   0.93234   0.00000  Uiso   1.00
H1388  H     0.36778   0.77263   0.88064   0.00000  Uiso   1.00
C1389  C     0.36619   0.70756   0.89654   0.00000  Uiso   1.00
H1390  H     0.40299   0.70161   0.87430   0.00000  Uiso   1.00
H1391  H     0.33904   0.70028   0.87764   0.00000  Uiso   1.00
H1392  H     0.35956   0.68697   0.92638   0.00000  Uiso   1.00
Br1393 Br    0.57692   0.71324   0.82502   0.00000  Uiso   1.00
Br1394 Br    0.42348   0.95353   0.67568   0.00000  Uiso   1.00
C1395  C     0.99957   0.75411   0.75107   0.00000  Uiso   1.00
C1396  C     0.66707   0.91256   0.74911   0.00000  Uiso   1.00
C1397  C     0.85777   0.86069   0.54468   0.00000  Uiso   1.00
C1398  C     0.80634   0.82466   0.95207   0.00000  Uiso   1.00
C1399  C     0.90589   0.86941   0.52190   0.00000  Uiso   1.00
C1400  C     0.75785   0.81728   0.97421   0.00000  Uiso   1.00
C1401  C     0.96161   0.68716   0.78050   0.00000  Uiso   1.00
C1402  C     0.70520   0.97953   0.72001   0.00000  Uiso   1.00
C1403  C     0.96238   0.97764   0.77887   0.00000  Uiso   1.00
C1404  C     0.70438   0.68905   0.72161   0.00000  Uiso   1.00
C1405  C     0.66732   0.95716   0.74900   0.00000  Uiso   1.00
C1406  C     0.99938   0.70953   0.75138   0.00000  Uiso   1.00
C1407  C     0.84879   0.81196   0.78194   0.00000  Uiso   1.00
C1408  C     0.81787   0.85472   0.71807   0.00000  Uiso   1.00
C1409  C     0.79923   0.81197   0.78194   0.00000  Uiso   1.00
C1410  C     0.86743   0.85470   0.71807   0.00000  Uiso   1.00
C1411  C     0.97285   0.83403   0.83609   0.00000  Uiso   1.00
C1412  C     0.69384   0.83316   0.66382   0.00000  Uiso   1.00
C1413  C     0.95793   0.83906   0.88502   0.00000  Uiso   1.00
C1414  C     0.70877   0.83194   0.61445   0.00000  Uiso   1.00
C1415  C     0.97214   0.86539   0.95373   0.00000  Uiso   1.00
C1416  C     0.69230   0.81718   0.54308   0.00000  Uiso   1.00
C1417  C     0.98919   0.85636   0.90814   0.00000  Uiso   1.00
C1418  C     0.67599   0.82169   0.58956   0.00000  Uiso   1.00
C1419  C     0.90995   0.83022   0.90789   0.00000  Uiso   1.00
C1420  C     0.75743   0.83938   0.59231   0.00000  Uiso   1.00
C1421  C     0.89082   0.84166   0.95311   0.00000  Uiso   1.00
C1422  C     0.77480   0.83618   0.54530   0.00000  Uiso   1.00
C1423  C     0.92308   0.85868   0.97649   0.00000  Uiso   1.00
C1424  C     0.74154   0.82360   0.52069   0.00000  Uiso   1.00
C1425  C     0.84071   0.83644   0.97548   0.00000  Uiso   1.00
C1426  C     0.82435   0.84420   0.52241   0.00000  Uiso   1.00
Cu1427 Cu    0.71355   0.83334   0.75000   0.00000  Uiso   1.00
Cu1428 Cu    0.95311   0.83333   0.75000   0.00000  Uiso   1.00
H1429  H     0.78132   0.84642   0.61299   0.00000  Uiso   1.00
H1430  H     0.88836   0.81422   0.88930   0.00000  Uiso   1.00
H1431  H     0.97145   0.81588   0.60609   0.00000  Uiso   1.00
H1432  H     0.69320   0.86351   0.89088   0.00000  Uiso   1.00
H1433  H     0.99735   0.87849   0.97081   0.00000  Uiso   1.00
H1434  H     0.99963   0.80806   0.52485   0.00000  Uiso   1.00
H1435  H     0.84780   0.86854   0.57983   0.00000  Uiso   1.00
H1436  H     0.81533   0.82217   0.91597   0.00000  Uiso   1.00
H1437  H     0.93363   0.96022   0.80162   0.00000  Uiso   1.00
H1438  H     0.73317   0.70646   0.69889   0.00000  Uiso   1.00
H1439  H     0.85988   0.79478   0.80755   0.00000  Uiso   1.00
H1440  H     0.80678   0.87190   0.69247   0.00000  Uiso   1.00
H1441  H     0.77316   0.79479   0.80748   0.00000  Uiso   1.00
H1442  H     0.89350   0.87188   0.69252   0.00000  Uiso   1.00
N1443  N     0.78403   0.83334   0.74999   0.00000  Uiso   1.00
N1444  N     0.88264   0.83332   0.75001   0.00000  Uiso   1.00
O1445  O     0.70625   0.77322   0.75000   0.00000  Uiso   1.00
O1446  O     0.96042   0.89345   0.75000   0.00000  Uiso   1.00
O1447  O     0.96039   0.77321   0.75001   0.00000  Uiso   1.00
O1448  O     0.70628   0.89346   0.75000   0.00000  Uiso   1.00
O1449  O     0.68519   0.83334   0.81492   0.00000  Uiso   1.00
O1450  O     0.98148   0.83332   0.68509   0.00000  Uiso   1.00
O1451  O     0.93933   0.83333   0.81492   0.00000  Uiso   1.00
O1452  O     0.72733   0.83333   0.68508   0.00000  Uiso   1.00
O1453  O     0.93753   0.88473   0.54534   0.00000  Uiso   1.00
C1454  C     0.92699   0.92667   0.55737   0.00000  Uiso   1.00
H1455  H     0.93810   0.93259   0.58875   0.00000  Uiso   1.00
H1456  H     0.88762   0.93422   0.56512   0.00000  Uiso   1.00
C1457  C     0.95617   0.95553   0.52050   0.00000  Uiso   1.00
H1458  H     0.99540   0.94817   0.51354   0.00000  Uiso   1.00
H1459  H     0.94470   0.95075   0.98911   0.00000  Uiso   1.00
C1460  C     0.94857   0.66753   0.53445   0.00000  Uiso   1.00
H1461  H     0.90966   0.67578   0.54088   0.00000  Uiso   1.00
H1462  H     0.97006   0.68761   0.50709   0.00000  Uiso   1.00
H1463  H     0.96068   0.67336   0.56532   0.00000  Uiso   1.00
O1464  O     0.72555   0.80668   0.94954   0.00000  Uiso   1.00
C1465  C     0.73140   0.76448   0.93746   0.00000  Uiso   1.00
H1466  H     0.72458   0.74468   0.96812   0.00000  Uiso   1.00
H1467  H     0.76863   0.75855   0.91574   0.00000  Uiso   1.00
C1468  C     0.69485   0.75284   0.91110   0.00000  Uiso   1.00
H1469  H     0.99077   0.75842   0.93234   0.00000  Uiso   1.00
H1470  H     0.70111   0.77263   0.88064   0.00000  Uiso   1.00
C1471  C     0.69952   0.70756   0.89654   0.00000  Uiso   1.00
H1472  H     0.73633   0.70161   0.87430   0.00000  Uiso   1.00
H1473  H     0.67237   0.70028   0.87764   0.00000  Uiso   1.00
H1474  H     0.69289   0.68697   0.92638   0.00000  Uiso   1.00
Br1475 Br    0.91026   0.71324   0.82502   0.00000  Uiso   1.00
Br1476 Br    0.75681   0.95353   0.67568   0.00000  Uiso   1.00
loop_
_geom_bond_atom_site_label_1
_geom_bond_atom_site_label_2
_geom_bond_distance
_geom_bond_site_symmetry_2
_ccdc_geom_bond_type
C1     O53     1.290   .     A
C1     C12     1.441   .     S
C1     O133    1.289   .     S
C2     C11     1.441   .     S
C2     O54     1.289   .     A
C2     O216    1.290   1_455 S
C3     C5      1.396   .     A
C3     H41     1.075   .     S
C3     C32     1.417   .     A
C4     C6      1.393   .     A
C4     H42     1.077   .     S
C4     C31     1.415   .     A
C5     O59     1.387   .     S
C5     C767    1.399   1_554 S
C6     O70     1.384   .     S
C6     C768    1.399   .     S
C7     C12     1.405   .     A
C7     Br81    1.922   .     S
C7     C501    1.386   1_545 S
C8     Br82    1.922   .     S
C8     C11     1.405   .     A
C8     C256    1.386   .     S
C9     H43     1.084   .     S
C9     C253    1.386   .     S
C9     C93     1.399   .     S
C10    H44     1.084   .     S
C10    C500    1.386   1_545 S
C10    C176    1.398   1_455 S
C11    C173    1.399   1_455 S
C12    C92     1.398   .     S
C13    N50     1.368   .     A
C13    C15     1.417   .     A
C13    H45     1.081   .     S
C14    H46     1.081   .     S
C14    C16     1.417   .     A
C14    N49     1.368   .     A
C15    H47     1.082   .     S
C15    N49     1.367   .     A
C16    H48     1.082   .     S
C16    N50     1.367   .     A
C17    C19     1.464   .     S
C17    O57     1.294   .     A
C17    O137    1.296   .     S
C18    O58     1.295   .     A
C18    C20     1.468   .     S
C18    O220    1.297   1_455 S
C19    C23     1.396   .     A
C19    C25     1.394   .     A
C20    C24     1.397   .     A
C20    C26     1.397   .     A
C21    C23     1.391   .     A
C21    C29     1.408   .     A
C21    H39     1.083   .     S
C22    C24     1.392   .     A
C22    C30     1.408   .     A
C22    H204    1.083   1_455 S
C23    H120    1.083   .     S
C24    H201    1.083   1_455 S
C25    C27     1.406   .     A
C25    H36     1.076   .     S
C26    C28     1.406   .     A
C26    H35     1.074   .     S
C27    C29     1.420   .     A
C27    C31     1.425   .     A
C28    C32     1.428   .     A
C28    C30     1.422   .     A
C29    C743    1.399   .     S
C30    C744    1.399   1_554 S
C31    C770    1.420   .     S
C32    C769    1.420   1_554 S
Cu33   O55     1.950   .     S
Cu33   O58     1.935   .     S
Cu33   N49     2.014   .     S
Cu33   O51     1.953   .     S
Cu33   O54     1.955   .     S
Cu33   Cu198   2.681   1_455 S
Cu34   O56     1.950   .     S
Cu34   O57     1.935   .     S
Cu34   N50     2.014   .     S
Cu34   O52     1.953   .     S
Cu34   O53     1.955   .     S
Cu34   Cu115   2.681   .     S
H37    C106    1.083   .     S
H38    C187    1.083   1_455 S
H40    C104    1.083   .     S
O51    C165    1.289   1_455 S
O52    C84     1.290   .     S
O55    C181    1.296   1_455 S
O56    C100    1.297   .     S
O59    C60     1.417   .     S
C60    C63     1.533   .     S
C60    H62     1.115   .     S
C60    H61     1.111   .     S
C63    H64     1.112   .     S
C63    H803    1.111   1_554 S
C63    C312    1.526   .     S
H65    C801    1.111   .     S
C66    H68     1.110   .     S
C66    H69     1.111   .     S
C66    H67     1.111   .     S
C66    C555    1.526   1_545 S
O70    C71     1.412   .     S
C71    H73     1.114   .     S
C71    C74     1.529   .     S
C71    H72     1.115   .     S
C74    H76     1.111   .     S
C74    C77     1.526   .     S
C74    H239    1.112   1_455 S
H75    C156    1.112   .     S
C77    H78     1.111   .     S
C77    H79     1.111   .     S
C77    H80     1.111   .     S
C83    O135    1.290   .     A
C83    C94     1.441   .     S
C83    O215    1.289   .     S
C84    C93     1.441   .     S
C84    O136    1.289   .     A
C85    C87     1.396   .     A
C85    H123    1.075   .     S
C85    C114    1.417   .     A
C86    C88     1.393   .     A
C86    H124    1.077   .     S
C86    C113    1.415   .     A
C87    O141    1.387   .     S
C87    C849    1.399   1_554 S
C88    O152    1.384   .     S
C88    C850    1.399   .     S
C89    C94     1.405   .     A
C89    Br163   1.922   .     S
C89    C583    1.386   1_545 S
C90    Br164   1.922   .     S
C90    C93     1.405   .     A
C90    C338    1.386   .     S
C91    H125    1.084   .     S
C91    C335    1.386   .     S
C91    C175    1.399   .     S
C92    H126    1.084   .     S
C92    C582    1.386   1_545 S
C94    C174    1.398   .     S
C95    N132    1.368   .     A
C95    C97     1.417   .     A
C95    H127    1.081   .     S
C96    H128    1.081   .     S
C96    C98     1.417   .     A
C96    N131    1.368   .     A
C97    H129    1.082   .     S
C97    N131    1.367   .     A
C98    H130    1.082   .     S
C98    N132    1.367   .     A
C99    C101    1.464   .     S
C99    O139    1.294   .     A
C99    O219    1.296   .     S
C100   O140    1.295   .     A
C100   C102    1.468   .     S
C101   C105    1.396   .     A
C101   C107    1.394   .     A
C102   C106    1.397   .     A
C102   C108    1.397   .     A
C103   C105    1.391   .     A
C103   C111    1.408   .     A
C103   H121    1.083   .     S
C104   C106    1.392   .     A
C104   C112    1.408   .     A
C105   H202    1.083   .     S
C107   C109    1.406   .     A
C107   H118    1.076   .     S
C108   C110    1.406   .     A
C108   H117    1.074   .     S
C109   C111    1.420   .     A
C109   C113    1.425   .     A
C110   C114    1.428   .     A
C110   C112    1.422   .     A
C111   C825    1.399   .     S
C112   C826    1.399   1_554 S
C113   C852    1.420   .     S
C114   C851    1.420   1_554 S
Cu115  O137    1.950   .     S
Cu115  O140    1.935   .     S
Cu115  N131    2.014   .     S
Cu115  O133    1.953   .     S
Cu115  O136    1.955   .     S
Cu116  O138    1.950   .     S
Cu116  O139    1.935   .     S
Cu116  N132    2.014   .     S
Cu116  O134    1.953   .     S
Cu116  O135    1.955   .     S
Cu116  Cu197   2.681   .     S
H119   C188    1.083   .     S
H122   C186    1.083   .     S
O134   C166    1.290   .     S
O138   C182    1.297   .     S
O141   C142    1.417   .     S
C142   C145    1.533   .     S
C142   H144    1.115   .     S
C142   H143    1.111   .     S
C145   H146    1.112   .     S
C145   H885    1.111   1_554 S
C145   C394    1.526   .     S
H147   C883    1.111   .     S
C148   H150    1.110   .     S
C148   H151    1.111   .     S
C148   H149    1.111   .     S
C148   C637    1.526   1_545 S
O152   C153    1.412   .     S
C153   H155    1.114   .     S
C153   C156    1.529   .     S
C153   H154    1.115   .     S
C156   H158    1.111   .     S
C156   C159    1.526   .     S
H157   C238    1.112   .     S
C159   H160    1.111   .     S
C159   H161    1.111   .     S
C159   H162    1.111   .     S
C165   O217    1.290   .     A
C165   C176    1.441   .     S
C165   O51     1.289   1_655 S
C166   C175    1.441   .     S
C166   O218    1.289   .     A
C167   C169    1.396   .     A
C167   H205    1.075   .     S
C167   C196    1.417   .     A
C168   C170    1.393   .     A
C168   H206    1.077   .     S
C168   C195    1.415   .     A
C169   O223    1.387   .     S
C169   C931    1.399   1_554 S
C170   O234    1.384   .     S
C170   C932    1.399   .     S
C171   C176    1.405   .     A
C171   Br245   1.922   .     S
C171   C665    1.386   1_545 S
C172   Br246   1.922   .     S
C172   C175    1.405   .     A
C172   C420    1.386   .     S
C173   H207    1.084   .     S
C173   C417    1.386   .     S
C173   C11     1.399   1_655 S
C174   H208    1.084   .     S
C174   C664    1.386   1_545 S
C176   C10     1.398   1_655 S
C177   N214    1.368   .     A
C177   C179    1.417   .     A
C177   H209    1.081   .     S
C178   H210    1.081   .     S
C178   C180    1.417   .     A
C178   N213    1.368   .     A
C179   H211    1.082   .     S
C179   N213    1.367   .     A
C180   H212    1.082   .     S
C180   N214    1.367   .     A
C181   C183    1.464   .     S
C181   O221    1.294   .     A
C181   O55     1.296   1_655 S
C182   O222    1.295   .     A
C182   C184    1.468   .     S
C183   C187    1.396   .     A
C183   C189    1.394   .     A
C184   C188    1.397   .     A
C184   C190    1.397   .     A
C185   C187    1.391   .     A
C185   C193    1.408   .     A
C185   H203    1.083   .     S
C186   C188    1.392   .     A
C186   C194    1.408   .     A
C187   H38     1.083   1_655 S
C189   C191    1.406   .     A
C189   H200    1.076   .     S
C190   C192    1.406   .     A
C190   H199    1.074   .     S
C191   C193    1.420   .     A
C191   C195    1.425   .     A
C192   C196    1.428   .     A
C192   C194    1.422   .     A
C193   C907    1.399   .     S
C194   C908    1.399   1_554 S
C195   C934    1.420   .     S
C196   C933    1.420   1_554 S
Cu197  O219    1.950   .     S
Cu197  O222    1.935   .     S
Cu197  N213    2.014   .     S
Cu197  O215    1.953   .     S
Cu197  O218    1.955   .     S
Cu198  O220    1.950   .     S
Cu198  O221    1.935   .     S
Cu198  N214    2.014   .     S
Cu198  O216    1.953   .     S
Cu198  O217    1.955   .     S
Cu198  Cu33    2.681   1_655 S
H201   C24     1.083   1_655 S
H204   C22     1.083   1_655 S
O216   C2      1.290   1_655 S
O220   C18     1.297   1_655 S
O223   C224    1.417   .     S
C224   C227    1.533   .     S
C224   H226    1.115   .     S
C224   H225    1.111   .     S
C227   H228    1.112   .     S
C227   H967    1.111   1_554 S
C227   C476    1.526   .     S
H229   C965    1.111   .     S
C230   H232    1.110   .     S
C230   H233    1.111   .     S
C230   H231    1.111   .     S
C230   C719    1.526   1_545 S
O234   C235    1.412   .     S
C235   H237    1.114   .     S
C235   C238    1.529   .     S
C235   H236    1.115   .     S
C238   H240    1.111   .     S
C238   C241    1.526   .     S
H239   C74     1.112   1_655 S
C241   H242    1.111   .     S
C241   H243    1.111   .     S
C241   H244    1.111   .     S
C247   O299    1.290   .     A
C247   C258    1.441   .     S
C247   O379    1.289   .     S
C248   C257    1.441   .     S
C248   O300    1.289   .     A
C248   O462    1.290   1_455 S
C249   C251    1.396   .     A
C249   H287    1.075   .     S
C249   C278    1.417   .     A
C250   C252    1.393   .     A
C250   H288    1.077   .     S
C250   C277    1.415   .     A
C251   O305    1.387   .     S
C251   C1013   1.399   1_554 S
C252   O316    1.384   .     S
C252   C1014   1.399   .     S
C253   C258    1.405   .     A
C253   Br327   1.922   .     S
C254   Br328   1.922   .     S
C254   C257    1.405   .     A
C254   C502    1.386   .     S
C255   H289    1.084   .     S
C255   C499    1.386   .     S
C255   C339    1.399   .     S
C256   H290    1.084   .     S
C256   C422    1.398   1_455 S
C257   C419    1.399   1_455 S
C258   C338    1.398   .     S
C259   N296    1.368   .     A
C259   C261    1.417   .     A
C259   H291    1.081   .     S
C260   H292    1.081   .     S
C260   C262    1.417   .     A
C260   N295    1.368   .     A
C261   H293    1.082   .     S
C261   N295    1.367   .     A
C262   H294    1.082   .     S
C262   N296    1.367   .     A
C263   C265    1.464   .     S
C263   O303    1.294   .     A
C263   O383    1.296   .     S
C264   O304    1.295   .     A
C264   C266    1.468   .     S
C264   O466    1.297   1_455 S
C265   C269    1.396   .     A
C265   C271    1.394   .     A
C266   C270    1.397   .     A
C266   C272    1.397   .     A
C267   C269    1.391   .     A
C267   C275    1.408   .     A
C267   H285    1.083   .     S
C268   C270    1.392   .     A
C268   C276    1.408   .     A
C268   H450    1.083   1_455 S
C269   H366    1.083   .     S
C270   H447    1.083   1_455 S
C271   C273    1.406   .     A
C271   H282    1.076   .     S
C272   C274    1.406   .     A
C272   H281    1.074   .     S
C273   C275    1.420   .     A
C273   C277    1.425   .     A
C274   C278    1.428   .     A
C274   C276    1.422   .     A
C275   C989    1.399   .     S
C276   C990    1.399   1_554 S
C277   C1016   1.420   .     S
C278   C1015   1.420   1_554 S
Cu279  O301    1.950   .     S
Cu279  O304    1.935   .     S
Cu279  N295    2.014   .     S
Cu279  O297    1.953   .     S
Cu279  O300    1.955   .     S
Cu279  Cu444   2.681   1_455 S
Cu280  O302    1.950   .     S
Cu280  O303    1.935   .     S
Cu280  N296    2.014   .     S
Cu280  O298    1.953   .     S
Cu280  O299    1.955   .     S
Cu280  Cu361   2.681   .     S
H283   C352    1.083   .     S
H284   C433    1.083   1_455 S
H286   C350    1.083   .     S
O297   C411    1.289   1_455 S
O298   C330    1.290   .     S
O301   C427    1.296   1_455 S
O302   C346    1.297   .     S
O305   C306    1.417   .     S
C306   C309    1.533   .     S
C306   H308    1.115   .     S
C306   H307    1.111   .     S
C309   H310    1.112   .     S
C309   H1049   1.111   1_554 S
C309   C558    1.526   .     S
H311   C1047   1.111   .     S
C312   H314    1.110   .     S
C312   H315    1.111   .     S
C312   H313    1.111   .     S
O316   C317    1.412   .     S
C317   H319    1.114   .     S
C317   C320    1.529   .     S
C317   H318    1.115   .     S
C320   H322    1.111   .     S
C320   C323    1.526   .     S
C320   H485    1.112   1_455 S
H321   C402    1.112   .     S
C323   H324    1.111   .     S
C323   H325    1.111   .     S
C323   H326    1.111   .     S
C329   O381    1.290   .     A
C329   C340    1.441   .     S
C329   O461    1.289   .     S
C330   C339    1.441   .     S
C330   O382    1.289   .     A
C331   C333    1.396   .     A
C331   H369    1.075   .     S
C331   C360    1.417   .     A
C332   C334    1.393   .     A
C332   H370    1.077   .     S
C332   C359    1.415   .     A
C333   O387    1.387   .     S
C333   C1095   1.399   1_554 S
C334   O398    1.384   .     S
C334   C1096   1.399   .     S
C335   C340    1.405   .     A
C335   Br409   1.922   .     S
C336   Br410   1.922   .     S
C336   C339    1.405   .     A
C336   C584    1.386   .     S
C337   H371    1.084   .     S
C337   C581    1.386   .     S
C337   C421    1.399   .     S
C338   H372    1.084   .     S
C340   C420    1.398   .     S
C341   N378    1.368   .     A
C341   C343    1.417   .     A
C341   H373    1.081   .     S
C342   H374    1.081   .     S
C342   C344    1.417   .     A
C342   N377    1.368   .     A
C343   H375    1.082   .     S
C343   N377    1.367   .     A
C344   H376    1.082   .     S
C344   N378    1.367   .     A
C345   C347    1.464   .     S
C345   O385    1.294   .     A
C345   O465    1.296   .     S
C346   O386    1.295   .     A
C346   C348    1.468   .     S
C347   C351    1.396   .     A
C347   C353    1.394   .     A
C348   C352    1.397   .     A
C348   C354    1.397   .     A
C349   C351    1.391   .     A
C349   C357    1.408   .     A
C349   H367    1.083   .     S
C350   C352    1.392   .     A
C350   C358    1.408   .     A
C351   H448    1.083   .     S
C353   C355    1.406   .     A
C353   H364    1.076   .     S
C354   C356    1.406   .     A
C354   H363    1.074   .     S
C355   C357    1.420   .     A
C355   C359    1.425   .     A
C356   C360    1.428   .     A
C356   C358    1.422   .     A
C357   C1071   1.399   .     S
C358   C1072   1.399   1_554 S
C359   C1098   1.420   .     S
C360   C1097   1.420   1_554 S
Cu361  O383    1.950   .     S
Cu361  O386    1.935   .     S
Cu361  N377    2.014   .     S
Cu361  O379    1.953   .     S
Cu361  O382    1.955   .     S
Cu362  O384    1.950   .     S
Cu362  O385    1.935   .     S
Cu362  N378    2.014   .     S
Cu362  O380    1.953   .     S
Cu362  O381    1.955   .     S
Cu362  Cu443   2.681   .     S
H365   C434    1.083   .     S
H368   C432    1.083   .     S
O380   C412    1.290   .     S
O384   C428    1.297   .     S
O387   C388    1.417   .     S
C388   C391    1.533   .     S
C388   H390    1.115   .     S
C388   H389    1.111   .     S
C391   H392    1.112   .     S
C391   H1131   1.111   1_554 S
C391   C640    1.526   .     S
H393   C1129   1.111   .     S
C394   H396    1.110   .     S
C394   H397    1.111   .     S
C394   H395    1.111   .     S
O398   C399    1.412   .     S
C399   H401    1.114   .     S
C399   C402    1.529   .     S
C399   H400    1.115   .     S
C402   H404    1.111   .     S
C402   C405    1.526   .     S
H403   C484    1.112   .     S
C405   H406    1.111   .     S
C405   H407    1.111   .     S
C405   H408    1.111   .     S
C411   O463    1.290   .     A
C411   C422    1.441   .     S
C411   O297    1.289   1_655 S
C412   C421    1.441   .     S
C412   O464    1.289   .     A
C413   C415    1.396   .     A
C413   H451    1.075   .     S
C413   C442    1.417   .     A
C414   C416    1.393   .     A
C414   H452    1.077   .     S
C414   C441    1.415   .     A
C415   O469    1.387   .     S
C415   C1177   1.399   1_554 S
C416   O480    1.384   .     S
C416   C1178   1.399   .     S
C417   C422    1.405   .     A
C417   Br491   1.922   .     S
C418   Br492   1.922   .     S
C418   C421    1.405   .     A
C418   C666    1.386   .     S
C419   H453    1.084   .     S
C419   C663    1.386   .     S
C419   C257    1.399   1_655 S
C420   H454    1.084   .     S
C422   C256    1.398   1_655 S
C423   N460    1.368   .     A
C423   C425    1.417   .     A
C423   H455    1.081   .     S
C424   H456    1.081   .     S
C424   C426    1.417   .     A
C424   N459    1.368   .     A
C425   H457    1.082   .     S
C425   N459    1.367   .     A
C426   H458    1.082   .     S
C426   N460    1.367   .     A
C427   C429    1.464   .     S
C427   O467    1.294   .     A
C427   O301    1.296   1_655 S
C428   O468    1.295   .     A
C428   C430    1.468   .     S
C429   C433    1.396   .     A
C429   C435    1.394   .     A
C430   C434    1.397   .     A
C430   C436    1.397   .     A
C431   C433    1.391   .     A
C431   C439    1.408   .     A
C431   H449    1.083   .     S
C432   C434    1.392   .     A
C432   C440    1.408   .     A
C433   H284    1.083   1_655 S
C435   C437    1.406   .     A
C435   H446    1.076   .     S
C436   C438    1.406   .     A
C436   H445    1.074   .     S
C437   C439    1.420   .     A
C437   C441    1.425   .     A
C438   C442    1.428   .     A
C438   C440    1.422   .     A
C439   C1153   1.399   .     S
C440   C1154   1.399   1_554 S
C441   C1180   1.420   .     S
C442   C1179   1.420   1_554 S
Cu443  O465    1.950   .     S
Cu443  O468    1.935   .     S
Cu443  N459    2.014   .     S
Cu443  O461    1.953   .     S
Cu443  O464    1.955   .     S
Cu444  O466    1.950   .     S
Cu444  O467    1.935   .     S
Cu444  N460    2.014   .     S
Cu444  O462    1.953   .     S
Cu444  O463    1.955   .     S
Cu444  Cu279   2.681   1_655 S
H447   C270    1.083   1_655 S
H450   C268    1.083   1_655 S
O462   C248    1.290   1_655 S
O466   C264    1.297   1_655 S
O469   C470    1.417   .     S
C470   C473    1.533   .     S
C470   H472    1.115   .     S
C470   H471    1.111   .     S
C473   H474    1.112   .     S
C473   H1213   1.111   1_554 S
C473   C722    1.526   .     S
H475   C1211   1.111   .     S
C476   H478    1.110   .     S
C476   H479    1.111   .     S
C476   H477    1.111   .     S
O480   C481    1.412   .     S
C481   H483    1.114   .     S
C481   C484    1.529   .     S
C481   H482    1.115   .     S
C484   H486    1.111   .     S
C484   C487    1.526   .     S
H485   C320    1.112   1_655 S
C487   H488    1.111   .     S
C487   H489    1.111   .     S
C487   H490    1.111   .     S
C493   O545    1.290   .     A
C493   C504    1.441   .     S
C493   O625    1.289   .     S
C494   C503    1.441   .     S
C494   O546    1.289   .     A
C494   O708    1.290   1_455 S
C495   C497    1.396   .     A
C495   H533    1.075   .     S
C495   C524    1.417   .     A
C496   C498    1.393   .     A
C496   H534    1.077   .     S
C496   C523    1.415   .     A
C497   O551    1.387   .     S
C497   C1259   1.399   1_554 S
C498   O562    1.384   .     S
C498   C1260   1.399   .     S
C499   C504    1.405   .     A
C499   Br573   1.922   .     S
C500   Br574   1.922   .     S
C500   C503    1.405   .     A
C500   C10     1.386   1_565 S
C501   H535    1.084   .     S
C501   C7      1.386   1_565 S
C501   C585    1.399   .     S
C502   H536    1.084   .     S
C502   C668    1.398   1_455 S
C503   C665    1.399   1_455 S
C504   C584    1.398   .     S
C505   N542    1.368   .     A
C505   C507    1.417   .     A
C505   H537    1.081   .     S
C506   H538    1.081   .     S
C506   C508    1.417   .     A
C506   N541    1.368   .     A
C507   H539    1.082   .     S
C507   N541    1.367   .     A
C508   H540    1.082   .     S
C508   N542    1.367   .     A
C509   C511    1.464   .     S
C509   O549    1.294   .     A
C509   O629    1.296   .     S
C510   O550    1.295   .     A
C510   C512    1.468   .     S
C510   O712    1.297   1_455 S
C511   C515    1.396   .     A
C511   C517    1.394   .     A
C512   C516    1.397   .     A
C512   C518    1.397   .     A
C513   C515    1.391   .     A
C513   C521    1.408   .     A
C513   H531    1.083   .     S
C514   C516    1.392   .     A
C514   C522    1.408   .     A
C514   H696    1.083   1_455 S
C515   H612    1.083   .     S
C516   H693    1.083   1_455 S
C517   C519    1.406   .     A
C517   H528    1.076   .     S
C518   C520    1.406   .     A
C518   H527    1.074   .     S
C519   C521    1.420   .     A
C519   C523    1.425   .     A
C520   C524    1.428   .     A
C520   C522    1.422   .     A
C521   C1235   1.399   .     S
C522   C1236   1.399   1_554 S
C523   C1262   1.420   .     S
C524   C1261   1.420   1_554 S
Cu525  O547    1.950   .     S
Cu525  O550    1.935   .     S
Cu525  N541    2.014   .     S
Cu525  O543    1.953   .     S
Cu525  O546    1.955   .     S
Cu525  Cu690   2.681   1_455 S
Cu526  O548    1.950   .     S
Cu526  O549    1.935   .     S
Cu526  N542    2.014   .     S
Cu526  O544    1.953   .     S
Cu526  O545    1.955   .     S
Cu526  Cu607   2.681   .     S
H529   C598    1.083   .     S
H530   C679    1.083   1_455 S
H532   C596    1.083   .     S
O543   C657    1.289   1_455 S
O544   C576    1.290   .     S
O547   C673    1.296   1_455 S
O548   C592    1.297   .     S
O551   C552    1.417   .     S
C552   C555    1.533   .     S
C552   H554    1.115   .     S
C552   H553    1.111   .     S
C555   H556    1.112   .     S
C555   H1295   1.111   1_554 S
C555   C66     1.526   1_565 S
H557   C1293   1.111   .     S
C558   H560    1.110   .     S
C558   H561    1.111   .     S
C558   H559    1.111   .     S
O562   C563    1.412   .     S
C563   H565    1.114   .     S
C563   C566    1.529   .     S
C563   H564    1.115   .     S
C566   H568    1.111   .     S
C566   C569    1.526   .     S
C566   H731    1.112   1_455 S
H567   C648    1.112   .     S
C569   H570    1.111   .     S
C569   H571    1.111   .     S
C569   H572    1.111   .     S
C575   O627    1.290   .     A
C575   C586    1.441   .     S
C575   O707    1.289   .     S
C576   C585    1.441   .     S
C576   O628    1.289   .     A
C577   C579    1.396   .     A
C577   H615    1.075   .     S
C577   C606    1.417   .     A
C578   C580    1.393   .     A
C578   H616    1.077   .     S
C578   C605    1.415   .     A
C579   O633    1.387   .     S
C579   C1341   1.399   1_554 S
C580   O644    1.384   .     S
C580   C1342   1.399   .     S
C581   C586    1.405   .     A
C581   Br655   1.922   .     S
C582   Br656   1.922   .     S
C582   C585    1.405   .     A
C582   C92     1.386   1_565 S
C583   H617    1.084   .     S
C583   C89     1.386   1_565 S
C583   C667    1.399   .     S
C584   H618    1.084   .     S
C586   C666    1.398   .     S
C587   N624    1.368   .     A
C587   C589    1.417   .     A
C587   H619    1.081   .     S
C588   H620    1.081   .     S
C588   C590    1.417   .     A
C588   N623    1.368   .     A
C589   H621    1.082   .     S
C589   N623    1.367   .     A
C590   H622    1.082   .     S
C590   N624    1.367   .     A
C591   C593    1.464   .     S
C591   O631    1.294   .     A
C591   O711    1.296   .     S
C592   O632    1.295   .     A
C592   C594    1.468   .     S
C593   C597    1.396   .     A
C593   C599    1.394   .     A
C594   C598    1.397   .     A
C594   C600    1.397   .     A
C595   C597    1.391   .     A
C595   C603    1.408   .     A
C595   H613    1.083   .     S
C596   C598    1.392   .     A
C596   C604    1.408   .     A
C597   H694    1.083   .     S
C599   C601    1.406   .     A
C599   H610    1.076   .     S
C600   C602    1.406   .     A
C600   H609    1.074   .     S
C601   C603    1.420   .     A
C601   C605    1.425   .     A
C602   C606    1.428   .     A
C602   C604    1.422   .     A
C603   C1317   1.399   .     S
C604   C1318   1.399   1_554 S
C605   C1344   1.420   .     S
C606   C1343   1.420   1_554 S
Cu607  O629    1.950   .     S
Cu607  O632    1.935   .     S
Cu607  N623    2.014   .     S
Cu607  O625    1.953   .     S
Cu607  O628    1.955   .     S
Cu608  O630    1.950   .     S
Cu608  O631    1.935   .     S
Cu608  N624    2.014   .     S
Cu608  O626    1.953   .     S
Cu608  O627    1.955   .     S
Cu608  Cu689   2.681   .     S
H611   C680    1.083   .     S
H614   C678    1.083   .     S
O626   C658    1.290   .     S
O630   C674    1.297   .     S
O633   C634    1.417   .     S
C634   C637    1.533   .     S
C634   H636    1.115   .     S
C634   H635    1.111   .     S
C637   H638    1.112   .     S
C637   H1377   1.111   1_554 S
C637   C148    1.526   1_565 S
H639   C1375   1.111   .     S
C640   H642    1.110   .     S
C640   H643    1.111   .     S
C640   H641    1.111   .     S
O644   C645    1.412   .     S
C645   H647    1.114   .     S
C645   C648    1.529   .     S
C645   H646    1.115   .     S
C648   H650    1.111   .     S
C648   C651    1.526   .     S
H649   C730    1.112   .     S
C651   H652    1.111   .     S
C651   H653    1.111   .     S
C651   H654    1.111   .     S
C657   O709    1.290   .     A
C657   C668    1.441   .     S
C657   O543    1.289   1_655 S
C658   C667    1.441   .     S
C658   O710    1.289   .     A
C659   C661    1.396   .     A
C659   H697    1.075   .     S
C659   C688    1.417   .     A
C660   C662    1.393   .     A
C660   H698    1.077   .     S
C660   C687    1.415   .     A
C661   O715    1.387   .     S
C661   C1423   1.399   1_554 S
C662   O726    1.384   .     S
C662   C1424   1.399   .     S
C663   C668    1.405   .     A
C663   Br737   1.922   .     S
C664   Br738   1.922   .     S
C664   C667    1.405   .     A
C664   C174    1.386   1_565 S
C665   H699    1.084   .     S
C665   C171    1.386   1_565 S
C665   C503    1.399   1_655 S
C666   H700    1.084   .     S
C668   C502    1.398   1_655 S
C669   N706    1.368   .     A
C669   C671    1.417   .     A
C669   H701    1.081   .     S
C670   H702    1.081   .     S
C670   C672    1.417   .     A
C670   N705    1.368   .     A
C671   H703    1.082   .     S
C671   N705    1.367   .     A
C672   H704    1.082   .     S
C672   N706    1.367   .     A
C673   C675    1.464   .     S
C673   O713    1.294   .     A
C673   O547    1.296   1_655 S
C674   O714    1.295   .     A
C674   C676    1.468   .     S
C675   C679    1.396   .     A
C675   C681    1.394   .     A
C676   C680    1.397   .     A
C676   C682    1.397   .     A
C677   C679    1.391   .     A
C677   C685    1.408   .     A
C677   H695    1.083   .     S
C678   C680    1.392   .     A
C678   C686    1.408   .     A
C679   H530    1.083   1_655 S
C681   C683    1.406   .     A
C681   H692    1.076   .     S
C682   C684    1.406   .     A
C682   H691    1.074   .     S
C683   C685    1.420   .     A
C683   C687    1.425   .     A
C684   C688    1.428   .     A
C684   C686    1.422   .     A
C685   C1399   1.399   .     S
C686   C1400   1.399   1_554 S
C687   C1426   1.420   .     S
C688   C1425   1.420   1_554 S
Cu689  O711    1.950   .     S
Cu689  O714    1.935   .     S
Cu689  N705    2.014   .     S
Cu689  O707    1.953   .     S
Cu689  O710    1.955   .     S
Cu690  O712    1.950   .     S
Cu690  O713    1.935   .     S
Cu690  N706    2.014   .     S
Cu690  O708    1.953   .     S
Cu690  O709    1.955   .     S
Cu690  Cu525   2.681   1_655 S
H693   C516    1.083   1_655 S
H696   C514    1.083   1_655 S
O708   C494    1.290   1_655 S
O712   C510    1.297   1_655 S
O715   C716    1.417   .     S
C716   C719    1.533   .     S
C716   H718    1.115   .     S
C716   H717    1.111   .     S
C719   H720    1.112   .     S
C719   H1459   1.111   1_554 S
C719   C230    1.526   1_565 S
H721   C1457   1.111   .     S
C722   H724    1.110   .     S
C722   H725    1.111   .     S
C722   H723    1.111   .     S
O726   C727    1.412   .     S
C727   H729    1.114   .     S
C727   C730    1.529   .     S
C727   H728    1.115   .     S
C730   H732    1.111   .     S
C730   C733    1.526   .     S
H731   C566    1.112   1_655 S
C733   H734    1.111   .     S
C733   H735    1.111   .     S
C733   H736    1.111   .     S
C739   O791    1.290   .     A
C739   C750    1.441   .     S
C739   O871    1.289   .     S
C740   C749    1.441   .     S
C740   O792    1.289   .     A
C740   O954    1.290   1_455 S
C741   C743    1.396   .     A
C741   H779    1.075   .     S
C741   C770    1.417   .     A
C742   C744    1.393   .     A
C742   H780    1.077   .     S
C742   C769    1.415   .     A
C743   O797    1.387   .     S
C744   O808    1.384   .     S
C744   C30     1.399   1_556 S
C745   C750    1.405   .     A
C745   Br819   1.922   .     S
C745   C1239   1.386   1_545 S
C746   Br820   1.922   .     S
C746   C749    1.405   .     A
C746   C994    1.386   .     S
C747   H781    1.084   .     S
C747   C991    1.386   .     S
C747   C831    1.399   .     S
C748   H782    1.084   .     S
C748   C1238   1.386   1_545 S
C748   C914    1.398   1_455 S
C749   C911    1.399   1_455 S
C750   C830    1.398   .     S
C751   N788    1.368   .     A
C751   C753    1.417   .     A
C751   H783    1.081   .     S
C752   H784    1.081   .     S
C752   C754    1.417   .     A
C752   N787    1.368   .     A
C753   H785    1.082   .     S
C753   N787    1.367   .     A
C754   H786    1.082   .     S
C754   N788    1.367   .     A
C755   C757    1.464   .     S
C755   O795    1.294   .     A
C755   O875    1.296   .     S
C756   O796    1.295   .     A
C756   C758    1.468   .     S
C756   O958    1.297   1_455 S
C757   C761    1.396   .     A
C757   C763    1.394   .     A
C758   C762    1.397   .     A
C758   C764    1.397   .     A
C759   C761    1.391   .     A
C759   C767    1.408   .     A
C759   H777    1.083   .     S
C760   C762    1.392   .     A
C760   C768    1.408   .     A
C760   H942    1.083   1_455 S
C761   H858    1.083   .     S
C762   H939    1.083   1_455 S
C763   C765    1.406   .     A
C763   H774    1.076   .     S
C764   C766    1.406   .     A
C764   H773    1.074   .     S
C765   C767    1.420   .     A
C765   C769    1.425   .     A
C766   C770    1.428   .     A
C766   C768    1.422   .     A
C767   C5      1.399   1_556 S
C769   C32     1.420   1_556 S
Cu771  O793    1.950   .     S
Cu771  O796    1.935   .     S
Cu771  N787    2.014   .     S
Cu771  O789    1.953   .     S
Cu771  O792    1.955   .     S
Cu771  Cu936   2.681   1_455 S
Cu772  O794    1.950   .     S
Cu772  O795    1.935   .     S
Cu772  N788    2.014   .     S
Cu772  O790    1.953   .     S
Cu772  O791    1.955   .     S
Cu772  Cu853   2.681   .     S
H775   C844    1.083   .     S
H776   C925    1.083   1_455 S
H778   C842    1.083   .     S
O789   C903    1.289   1_455 S
O790   C822    1.290   .     S
O793   C919    1.296   1_455 S
O794   C838    1.297   .     S
O797   C798    1.417   .     S
C798   C801    1.533   .     S
C798   H800    1.115   .     S
C798   H799    1.111   .     S
C801   H802    1.112   .     S
C801   C1050   1.526   .     S
H803   C63     1.111   1_556 S
C804   H806    1.110   .     S
C804   H807    1.111   .     S
C804   H805    1.111   .     S
C804   C1293   1.526   1_545 S
O808   C809    1.412   .     S
C809   H811    1.114   .     S
C809   C812    1.529   .     S
C809   H810    1.115   .     S
C812   H814    1.111   .     S
C812   C815    1.526   .     S
C812   H977    1.112   1_455 S
H813   C894    1.112   .     S
C815   H816    1.111   .     S
C815   H817    1.111   .     S
C815   H818    1.111   .     S
C821   O873    1.290   .     A
C821   C832    1.441   .     S
C821   O953    1.289   .     S
C822   C831    1.441   .     S
C822   O874    1.289   .     A
C823   C825    1.396   .     A
C823   H861    1.075   .     S
C823   C852    1.417   .     A
C824   C826    1.393   .     A
C824   H862    1.077   .     S
C824   C851    1.415   .     A
C825   O879    1.387   .     S
C826   O890    1.384   .     S
C826   C112    1.399   1_556 S
C827   C832    1.405   .     A
C827   Br901   1.922   .     S
C827   C1321   1.386   1_545 S
C828   Br902   1.922   .     S
C828   C831    1.405   .     A
C828   C1076   1.386   .     S
C829   H863    1.084   .     S
C829   C1073   1.386   .     S
C829   C913    1.399   .     S
C830   H864    1.084   .     S
C830   C1320   1.386   1_545 S
C832   C912    1.398   .     S
C833   N870    1.368   .     A
C833   C835    1.417   .     A
C833   H865    1.081   .     S
C834   H866    1.081   .     S
C834   C836    1.417   .     A
C834   N869    1.368   .     A
C835   H867    1.082   .     S
C835   N869    1.367   .     A
C836   H868    1.082   .     S
C836   N870    1.367   .     A
C837   C839    1.464   .     S
C837   O877    1.294   .     A
C837   O957    1.296   .     S
C838   O878    1.295   .     A
C838   C840    1.468   .     S
C839   C843    1.396   .     A
C839   C845    1.394   .     A
C840   C844    1.397   .     A
C840   C846    1.397   .     A
C841   C843    1.391   .     A
C841   C849    1.408   .     A
C841   H859    1.083   .     S
C842   C844    1.392   .     A
C842   C850    1.408   .     A
C843   H940    1.083   .     S
C845   C847    1.406   .     A
C845   H856    1.076   .     S
C846   C848    1.406   .     A
C846   H855    1.074   .     S
C847   C849    1.420   .     A
C847   C851    1.425   .     A
C848   C852    1.428   .     A
C848   C850    1.422   .     A
C849   C87     1.399   1_556 S
C851   C114    1.420   1_556 S
Cu853  O875    1.950   .     S
Cu853  O878    1.935   .     S
Cu853  N869    2.014   .     S
Cu853  O871    1.953   .     S
Cu853  O874    1.955   .     S
Cu854  O876    1.950   .     S
Cu854  O877    1.935   .     S
Cu854  N870    2.014   .     S
Cu854  O872    1.953   .     S
Cu854  O873    1.955   .     S
Cu854  Cu935   2.681   .     S
H857   C926    1.083   .     S
H860   C924    1.083   .     S
O872   C904    1.290   .     S
O876   C920    1.297   .     S
O879   C880    1.417   .     S
C880   C883    1.533   .     S
C880   H882    1.115   .     S
C880   H881    1.111   .     S
C883   H884    1.112   .     S
C883   C1132   1.526   .     S
H885   C145    1.111   1_556 S
C886   H888    1.110   .     S
C886   H889    1.111   .     S
C886   H887    1.111   .     S
C886   C1375   1.526   1_545 S
O890   C891    1.412   .     S
C891   H893    1.114   .     S
C891   C894    1.529   .     S
C891   H892    1.115   .     S
C894   H896    1.111   .     S
C894   C897    1.526   .     S
H895   C976    1.112   .     S
C897   H898    1.111   .     S
C897   H899    1.111   .     S
C897   H900    1.111   .     S
C903   O955    1.290   .     A
C903   C914    1.441   .     S
C903   O789    1.289   1_655 S
C904   C913    1.441   .     S
C904   O956    1.289   .     A
C905   C907    1.396   .     A
C905   H943    1.075   .     S
C905   C934    1.417   .     A
C906   C908    1.393   .     A
C906   H944    1.077   .     S
C906   C933    1.415   .     A
C907   O961    1.387   .     S
C908   O972    1.384   .     S
C908   C194    1.399   1_556 S
C909   C914    1.405   .     A
C909   Br983   1.922   .     S
C909   C1403   1.386   1_545 S
C910   Br984   1.922   .     S
C910   C913    1.405   .     A
C910   C1158   1.386   .     S
C911   H945    1.084   .     S
C911   C1155   1.386   .     S
C911   C749    1.399   1_655 S
C912   H946    1.084   .     S
C912   C1402   1.386   1_545 S
C914   C748    1.398   1_655 S
C915   N952    1.368   .     A
C915   C917    1.417   .     A
C915   H947    1.081   .     S
C916   H948    1.081   .     S
C916   C918    1.417   .     A
C916   N951    1.368   .     A
C917   H949    1.082   .     S
C917   N951    1.367   .     A
C918   H950    1.082   .     S
C918   N952    1.367   .     A
C919   C921    1.464   .     S
C919   O959    1.294   .     A
C919   O793    1.296   1_655 S
C920   O960    1.295   .     A
C920   C922    1.468   .     S
C921   C925    1.396   .     A
C921   C927    1.394   .     A
C922   C926    1.397   .     A
C922   C928    1.397   .     A
C923   C925    1.391   .     A
C923   C931    1.408   .     A
C923   H941    1.083   .     S
C924   C926    1.392   .     A
C924   C932    1.408   .     A
C925   H776    1.083   1_655 S
C927   C929    1.406   .     A
C927   H938    1.076   .     S
C928   C930    1.406   .     A
C928   H937    1.074   .     S
C929   C931    1.420   .     A
C929   C933    1.425   .     A
C930   C934    1.428   .     A
C930   C932    1.422   .     A
C931   C169    1.399   1_556 S
C933   C196    1.420   1_556 S
Cu935  O957    1.950   .     S
Cu935  O960    1.935   .     S
Cu935  N951    2.014   .     S
Cu935  O953    1.953   .     S
Cu935  O956    1.955   .     S
Cu936  O958    1.950   .     S
Cu936  O959    1.935   .     S
Cu936  N952    2.014   .     S
Cu936  O954    1.953   .     S
Cu936  O955    1.955   .     S
Cu936  Cu771   2.681   1_655 S
H939   C762    1.083   1_655 S
H942   C760    1.083   1_655 S
O954   C740    1.290   1_655 S
O958   C756    1.297   1_655 S
O961   C962    1.417   .     S
C962   C965    1.533   .     S
C962   H964    1.115   .     S
C962   H963    1.111   .     S
C965   H966    1.112   .     S
C965   C1214   1.526   .     S
H967   C227    1.111   1_556 S
C968   H970    1.110   .     S
C968   H971    1.111   .     S
C968   H969    1.111   .     S
C968   C1457   1.526   1_545 S
O972   C973    1.412   .     S
C973   H975    1.114   .     S
C973   C976    1.529   .     S
C973   H974    1.115   .     S
C976   H978    1.111   .     S
C976   C979    1.526   .     S
H977   C812    1.112   1_655 S
C979   H980    1.111   .     S
C979   H981    1.111   .     S
C979   H982    1.111   .     S
C985   O1037   1.290   .     A
C985   C996    1.441   .     S
C985   O1117   1.289   .     S
C986   C995    1.441   .     S
C986   O1038   1.289   .     A
C986   O1200   1.290   1_455 S
C987   C989    1.396   .     A
C987   H1025   1.075   .     S
C987   C1016   1.417   .     A
C988   C990    1.393   .     A
C988   H1026   1.077   .     S
C988   C1015   1.415   .     A
C989   O1043   1.387   .     S
C990   O1054   1.384   .     S
C990   C276    1.399   1_556 S
C991   C996    1.405   .     A
C991   Br1065  1.922   .     S
C992   Br1066  1.922   .     S
C992   C995    1.405   .     A
C992   C1240   1.386   .     S
C993   H1027   1.084   .     S
C993   C1237   1.386   .     S
C993   C1077   1.399   .     S
C994   H1028   1.084   .     S
C994   C1160   1.398   1_455 S
C995   C1157   1.399   1_455 S
C996   C1076   1.398   .     S
C997   N1034   1.368   .     A
C997   C999    1.417   .     A
C997   H1029   1.081   .     S
C998   H1030   1.081   .     S
C998   C1000   1.417   .     A
C998   N1033   1.368   .     A
C999   H1031   1.082   .     S
C999   N1033   1.367   .     A
C1000  H1032   1.082   .     S
C1000  N1034   1.367   .     A
C1001  C1003   1.464   .     S
C1001  O1041   1.294   .     A
C1001  O1121   1.296   .     S
C1002  O1042   1.295   .     A
C1002  C1004   1.468   .     S
C1002  O1204   1.297   1_455 S
C1003  C1007   1.396   .     A
C1003  C1009   1.394   .     A
C1004  C1008   1.397   .     A
C1004  C1010   1.397   .     A
C1005  C1007   1.391   .     A
C1005  C1013   1.408   .     A
C1005  H1023   1.083   .     S
C1006  C1008   1.392   .     A
C1006  C1014   1.408   .     A
C1006  H1188   1.083   1_455 S
C1007  H1104   1.083   .     S
C1008  H1185   1.083   1_455 S
C1009  C1011   1.406   .     A
C1009  H1020   1.076   .     S
C1010  C1012   1.406   .     A
C1010  H1019   1.074   .     S
C1011  C1013   1.420   .     A
C1011  C1015   1.425   .     A
C1012  C1016   1.428   .     A
C1012  C1014   1.422   .     A
C1013  C251    1.399   1_556 S
C1015  C278    1.420   1_556 S
Cu1017 O1039   1.950   .     S
Cu1017 O1042   1.935   .     S
Cu1017 N1033   2.014   .     S
Cu1017 O1035   1.953   .     S
Cu1017 O1038   1.955   .     S
Cu1017 Cu1182  2.681   1_455 S
Cu1018 O1040   1.950   .     S
Cu1018 O1041   1.935   .     S
Cu1018 N1034   2.014   .     S
Cu1018 O1036   1.953   .     S
Cu1018 O1037   1.955   .     S
Cu1018 Cu1099  2.681   .     S
H1021  C1090   1.083   .     S
H1022  C1171   1.083   1_455 S
H1024  C1088   1.083   .     S
O1035  C1149   1.289   1_455 S
O1036  C1068   1.290   .     S
O1039  C1165   1.296   1_455 S
O1040  C1084   1.297   .     S
O1043  C1044   1.417   .     S
C1044  C1047   1.533   .     S
C1044  H1046   1.115   .     S
C1044  H1045   1.111   .     S
C1047  H1048   1.112   .     S
C1047  C1296   1.526   .     S
H1049  C309    1.111   1_556 S
C1050  H1052   1.110   .     S
C1050  H1053   1.111   .     S
C1050  H1051   1.111   .     S
O1054  C1055   1.412   .     S
C1055  H1057   1.114   .     S
C1055  C1058   1.529   .     S
C1055  H1056   1.115   .     S
C1058  H1060   1.111   .     S
C1058  C1061   1.526   .     S
C1058  H1223   1.112   1_455 S
H1059  C1140   1.112   .     S
C1061  H1062   1.111   .     S
C1061  H1063   1.111   .     S
C1061  H1064   1.111   .     S
C1067  O1119   1.290   .     A
C1067  C1078   1.441   .     S
C1067  O1199   1.289   .     S
C1068  C1077   1.441   .     S
C1068  O1120   1.289   .     A
C1069  C1071   1.396   .     A
C1069  H1107   1.075   .     S
C1069  C1098   1.417   .     A
C1070  C1072   1.393   .     A
C1070  H1108   1.077   .     S
C1070  C1097   1.415   .     A
C1071  O1125   1.387   .     S
C1072  O1136   1.384   .     S
C1072  C358    1.399   1_556 S
C1073  C1078   1.405   .     A
C1073  Br1147  1.922   .     S
C1074  Br1148  1.922   .     S
C1074  C1077   1.405   .     A
C1074  C1322   1.386   .     S
C1075  H1109   1.084   .     S
C1075  C1319   1.386   .     S
C1075  C1159   1.399   .     S
C1076  H1110   1.084   .     S
C1078  C1158   1.398   .     S
C1079  N1116   1.368   .     A
C1079  C1081   1.417   .     A
C1079  H1111   1.081   .     S
C1080  H1112   1.081   .     S
C1080  C1082   1.417   .     A
C1080  N1115   1.368   .     A
C1081  H1113   1.082   .     S
C1081  N1115   1.367   .     A
C1082  H1114   1.082   .     S
C1082  N1116   1.367   .     A
C1083  C1085   1.464   .     S
C1083  O1123   1.294   .     A
C1083  O1203   1.296   .     S
C1084  O1124   1.295   .     A
C1084  C1086   1.468   .     S
C1085  C1089   1.396   .     A
C1085  C1091   1.394   .     A
C1086  C1090   1.397   .     A
C1086  C1092   1.397   .     A
C1087  C1089   1.391   .     A
C1087  C1095   1.408   .     A
C1087  H1105   1.083   .     S
C1088  C1090   1.392   .     A
C1088  C1096   1.408   .     A
C1089  H1186   1.083   .     S
C1091  C1093   1.406   .     A
C1091  H1102   1.076   .     S
C1092  C1094   1.406   .     A
C1092  H1101   1.074   .     S
C1093  C1095   1.420   .     A
C1093  C1097   1.425   .     A
C1094  C1098   1.428   .     A
C1094  C1096   1.422   .     A
C1095  C333    1.399   1_556 S
C1097  C360    1.420   1_556 S
Cu1099 O1121   1.950   .     S
Cu1099 O1124   1.935   .     S
Cu1099 N1115   2.014   .     S
Cu1099 O1117   1.953   .     S
Cu1099 O1120   1.955   .     S
Cu1100 O1122   1.950   .     S
Cu1100 O1123   1.935   .     S
Cu1100 N1116   2.014   .     S
Cu1100 O1118   1.953   .     S
Cu1100 O1119   1.955   .     S
Cu1100 Cu1181  2.681   .     S
H1103  C1172   1.083   .     S
H1106  C1170   1.083   .     S
O1118  C1150   1.290   .     S
O1122  C1166   1.297   .     S
O1125  C1126   1.417   .     S
C1126  C1129   1.533   .     S
C1126  H1128   1.115   .     S
C1126  H1127   1.111   .     S
C1129  H1130   1.112   .     S
C1129  C1378   1.526   .     S
H1131  C391    1.111   1_556 S
C1132  H1134   1.110   .     S
C1132  H1135   1.111   .     S
C1132  H1133   1.111   .     S
O1136  C1137   1.412   .     S
C1137  H1139   1.114   .     S
C1137  C1140   1.529   .     S
C1137  H1138   1.115   .     S
C1140  H1142   1.111   .     S
C1140  C1143   1.526   .     S
H1141  C1222   1.112   .     S
C1143  H1144   1.111   .     S
C1143  H1145   1.111   .     S
C1143  H1146   1.111   .     S
C1149  O1201   1.290   .     A
C1149  C1160   1.441   .     S
C1149  O1035   1.289   1_655 S
C1150  C1159   1.441   .     S
C1150  O1202   1.289   .     A
C1151  C1153   1.396   .     A
C1151  H1189   1.075   .     S
C1151  C1180   1.417   .     A
C1152  C1154   1.393   .     A
C1152  H1190   1.077   .     S
C1152  C1179   1.415   .     A
C1153  O1207   1.387   .     S
C1154  O1218   1.384   .     S
C1154  C440    1.399   1_556 S
C1155  C1160   1.405   .     A
C1155  Br1229  1.922   .     S
C1156  Br1230  1.922   .     S
C1156  C1159   1.405   .     A
C1156  C1404   1.386   .     S
C1157  H1191   1.084   .     S
C1157  C1401   1.386   .     S
C1157  C995    1.399   1_655 S
C1158  H1192   1.084   .     S
C1160  C994    1.398   1_655 S
C1161  N1198   1.368   .     A
C1161  C1163   1.417   .     A
C1161  H1193   1.081   .     S
C1162  H1194   1.081   .     S
C1162  C1164   1.417   .     A
C1162  N1197   1.368   .     A
C1163  H1195   1.082   .     S
C1163  N1197   1.367   .     A
C1164  H1196   1.082   .     S
C1164  N1198   1.367   .     A
C1165  C1167   1.464   .     S
C1165  O1205   1.294   .     A
C1165  O1039   1.296   1_655 S
C1166  O1206   1.295   .     A
C1166  C1168   1.468   .     S
C1167  C1171   1.396   .     A
C1167  C1173   1.394   .     A
C1168  C1172   1.397   .     A
C1168  C1174   1.397   .     A
C1169  C1171   1.391   .     A
C1169  C1177   1.408   .     A
C1169  H1187   1.083   .     S
C1170  C1172   1.392   .     A
C1170  C1178   1.408   .     A
C1171  H1022   1.083   1_655 S
C1173  C1175   1.406   .     A
C1173  H1184   1.076   .     S
C1174  C1176   1.406   .     A
C1174  H1183   1.074   .     S
C1175  C1177   1.420   .     A
C1175  C1179   1.425   .     A
C1176  C1180   1.428   .     A
C1176  C1178   1.422   .     A
C1177  C415    1.399   1_556 S
C1179  C442    1.420   1_556 S
Cu1181 O1203   1.950   .     S
Cu1181 O1206   1.935   .     S
Cu1181 N1197   2.014   .     S
Cu1181 O1199   1.953   .     S
Cu1181 O1202   1.955   .     S
Cu1182 O1204   1.950   .     S
Cu1182 O1205   1.935   .     S
Cu1182 N1198   2.014   .     S
Cu1182 O1200   1.953   .     S
Cu1182 O1201   1.955   .     S
Cu1182 Cu1017  2.681   1_655 S
H1185  C1008   1.083   1_655 S
H1188  C1006   1.083   1_655 S
O1200  C986    1.290   1_655 S
O1204  C1002   1.297   1_655 S
O1207  C1208   1.417   .     S
C1208  C1211   1.533   .     S
C1208  H1210   1.115   .     S
C1208  H1209   1.111   .     S
C1211  H1212   1.112   .     S
C1211  C1460   1.526   .     S
H1213  C473    1.111   1_556 S
C1214  H1216   1.110   .     S
C1214  H1217   1.111   .     S
C1214  H1215   1.111   .     S
O1218  C1219   1.412   .     S
C1219  H1221   1.114   .     S
C1219  C1222   1.529   .     S
C1219  H1220   1.115   .     S
C1222  H1224   1.111   .     S
C1222  C1225   1.526   .     S
H1223  C1058   1.112   1_655 S
C1225  H1226   1.111   .     S
C1225  H1227   1.111   .     S
C1225  H1228   1.111   .     S
C1231  O1283   1.290   .     A
C1231  C1242   1.441   .     S
C1231  O1363   1.289   .     S
C1232  C1241   1.441   .     S
C1232  O1284   1.289   .     A
C1232  O1446   1.290   1_455 S
C1233  C1235   1.396   .     A
C1233  H1271   1.075   .     S
C1233  C1262   1.417   .     A
C1234  C1236   1.393   .     A
C1234  H1272   1.077   .     S
C1234  C1261   1.415   .     A
C1235  O1289   1.387   .     S
C1236  O1300   1.384   .     S
C1236  C522    1.399   1_556 S
C1237  C1242   1.405   .     A
C1237  Br1311  1.922   .     S
C1238  Br1312  1.922   .     S
C1238  C1241   1.405   .     A
C1238  C748    1.386   1_565 S
C1239  H1273   1.084   .     S
C1239  C745    1.386   1_565 S
C1239  C1323   1.399   .     S
C1240  H1274   1.084   .     S
C1240  C1406   1.398   1_455 S
C1241  C1403   1.399   1_455 S
C1242  C1322   1.398   .     S
C1243  N1280   1.368   .     A
C1243  C1245   1.417   .     A
C1243  H1275   1.081   .     S
C1244  H1276   1.081   .     S
C1244  C1246   1.417   .     A
C1244  N1279   1.368   .     A
C1245  H1277   1.082   .     S
C1245  N1279   1.367   .     A
C1246  H1278   1.082   .     S
C1246  N1280   1.367   .     A
C1247  C1249   1.464   .     S
C1247  O1287   1.294   .     A
C1247  O1367   1.296   .     S
C1248  O1288   1.295   .     A
C1248  C1250   1.468   .     S
C1248  O1450   1.297   1_455 S
C1249  C1253   1.396   .     A
C1249  C1255   1.394   .     A
C1250  C1254   1.397   .     A
C1250  C1256   1.397   .     A
C1251  C1253   1.391   .     A
C1251  C1259   1.408   .     A
C1251  H1269   1.083   .     S
C1252  C1254   1.392   .     A
C1252  C1260   1.408   .     A
C1252  H1434   1.083   1_455 S
C1253  H1350   1.083   .     S
C1254  H1431   1.083   1_455 S
C1255  C1257   1.406   .     A
C1255  H1266   1.076   .     S
C1256  C1258   1.406   .     A
C1256  H1265   1.074   .     S
C1257  C1259   1.420   .     A
C1257  C1261   1.425   .     A
C1258  C1262   1.428   .     A
C1258  C1260   1.422   .     A
C1259  C497    1.399   1_556 S
C1261  C524    1.420   1_556 S
Cu1263 O1285   1.950   .     S
Cu1263 O1288   1.935   .     S
Cu1263 N1279   2.014   .     S
Cu1263 O1281   1.953   .     S
Cu1263 O1284   1.955   .     S
Cu1263 Cu1428  2.681   1_455 S
Cu1264 O1286   1.950   .     S
Cu1264 O1287   1.935   .     S
Cu1264 N1280   2.014   .     S
Cu1264 O1282   1.953   .     S
Cu1264 O1283   1.955   .     S
Cu1264 Cu1345  2.681   .     S
H1267  C1336   1.083   .     S
H1268  C1417   1.083   1_455 S
H1270  C1334   1.083   .     S
O1281  C1395   1.289   1_455 S
O1282  C1314   1.290   .     S
O1285  C1411   1.296   1_455 S
O1286  C1330   1.297   .     S
O1289  C1290   1.417   .     S
C1290  C1293   1.533   .     S
C1290  H1292   1.115   .     S
C1290  H1291   1.111   .     S
C1293  H1294   1.112   .     S
C1293  C804    1.526   1_565 S
H1295  C555    1.111   1_556 S
C1296  H1298   1.110   .     S
C1296  H1299   1.111   .     S
C1296  H1297   1.111   .     S
O1300  C1301   1.412   .     S
C1301  H1303   1.114   .     S
C1301  C1304   1.529   .     S
C1301  H1302   1.115   .     S
C1304  H1306   1.111   .     S
C1304  C1307   1.526   .     S
C1304  H1469   1.112   1_455 S
H1305  C1386   1.112   .     S
C1307  H1308   1.111   .     S
C1307  H1309   1.111   .     S
C1307  H1310   1.111   .     S
C1313  O1365   1.290   .     A
C1313  C1324   1.441   .     S
C1313  O1445   1.289   .     S
C1314  C1323   1.441   .     S
C1314  O1366   1.289   .     A
C1315  C1317   1.396   .     A
C1315  H1353   1.075   .     S
C1315  C1344   1.417   .     A
C1316  C1318   1.393   .     A
C1316  H1354   1.077   .     S
C1316  C1343   1.415   .     A
C1317  O1371   1.387   .     S
C1318  O1382   1.384   .     S
C1318  C604    1.399   1_556 S
C1319  C1324   1.405   .     A
C1319  Br1393  1.922   .     S
C1320  Br1394  1.922   .     S
C1320  C1323   1.405   .     A
C1320  C830    1.386   1_565 S
C1321  H1355   1.084   .     S
C1321  C827    1.386   1_565 S
C1321  C1405   1.399   .     S
C1322  H1356   1.084   .     S
C1324  C1404   1.398   .     S
C1325  N1362   1.368   .     A
C1325  C1327   1.417   .     A
C1325  H1357   1.081   .     S
C1326  H1358   1.081   .     S
C1326  C1328   1.417   .     A
C1326  N1361   1.368   .     A
C1327  H1359   1.082   .     S
C1327  N1361   1.367   .     A
C1328  H1360   1.082   .     S
C1328  N1362   1.367   .     A
C1329  C1331   1.464   .     S
C1329  O1369   1.294   .     A
C1329  O1449   1.296   .     S
C1330  O1370   1.295   .     A
C1330  C1332   1.468   .     S
C1331  C1335   1.396   .     A
C1331  C1337   1.394   .     A
C1332  C1336   1.397   .     A
C1332  C1338   1.397   .     A
C1333  C1335   1.391   .     A
C1333  C1341   1.408   .     A
C1333  H1351   1.083   .     S
C1334  C1336   1.392   .     A
C1334  C1342   1.408   .     A
C1335  H1432   1.083   .     S
C1337  C1339   1.406   .     A
C1337  H1348   1.076   .     S
C1338  C1340   1.406   .     A
C1338  H1347   1.074   .     S
C1339  C1341   1.420   .     A
C1339  C1343   1.425   .     A
C1340  C1344   1.428   .     A
C1340  C1342   1.422   .     A
C1341  C579    1.399   1_556 S
C1343  C606    1.420   1_556 S
Cu1345 O1367   1.950   .     S
Cu1345 O1370   1.935   .     S
Cu1345 N1361   2.014   .     S
Cu1345 O1363   1.953   .     S
Cu1345 O1366   1.955   .     S
Cu1346 O1368   1.950   .     S
Cu1346 O1369   1.935   .     S
Cu1346 N1362   2.014   .     S
Cu1346 O1364   1.953   .     S
Cu1346 O1365   1.955   .     S
Cu1346 Cu1427  2.681   .     S
H1349  C1418   1.083   .     S
H1352  C1416   1.083   .     S
O1364  C1396   1.290   .     S
O1368  C1412   1.297   .     S
O1371  C1372   1.417   .     S
C1372  C1375   1.533   .     S
C1372  H1374   1.115   .     S
C1372  H1373   1.111   .     S
C1375  H1376   1.112   .     S
C1375  C886    1.526   1_565 S
H1377  C637    1.111   1_556 S
C1378  H1380   1.110   .     S
C1378  H1381   1.111   .     S
C1378  H1379   1.111   .     S
O1382  C1383   1.412   .     S
C1383  H1385   1.114   .     S
C1383  C1386   1.529   .     S
C1383  H1384   1.115   .     S
C1386  H1388   1.111   .     S
C1386  C1389   1.526   .     S
H1387  C1468   1.112   .     S
C1389  H1390   1.111   .     S
C1389  H1391   1.111   .     S
C1389  H1392   1.111   .     S
C1395  O1447   1.290   .     A
C1395  C1406   1.441   .     S
C1395  O1281   1.289   1_655 S
C1396  C1405   1.441   .     S
C1396  O1448   1.289   .     A
C1397  C1399   1.396   .     A
C1397  H1435   1.075   .     S
C1397  C1426   1.417   .     A
C1398  C1400   1.393   .     A
C1398  H1436   1.077   .     S
C1398  C1425   1.415   .     A
C1399  O1453   1.387   .     S
C1400  O1464   1.384   .     S
C1400  C686    1.399   1_556 S
C1401  C1406   1.405   .     A
C1401  Br1475  1.922   .     S
C1402  Br1476  1.922   .     S
C1402  C1405   1.405   .     A
C1402  C912    1.386   1_565 S
C1403  H1437   1.084   .     S
C1403  C909    1.386   1_565 S
C1403  C1241   1.399   1_655 S
C1404  H1438   1.084   .     S
C1406  C1240   1.398   1_655 S
C1407  N1444   1.368   .     A
C1407  C1409   1.417   .     A
C1407  H1439   1.081   .     S
C1408  H1440   1.081   .     S
C1408  C1410   1.417   .     A
C1408  N1443   1.368   .     A
C1409  H1441   1.082   .     S
C1409  N1443   1.367   .     A
C1410  H1442   1.082   .     S
C1410  N1444   1.367   .     A
C1411  C1413   1.464   .     S
C1411  O1451   1.294   .     A
C1411  O1285   1.296   1_655 S
C1412  O1452   1.295   .     A
C1412  C1414   1.468   .     S
C1413  C1417   1.396   .     A
C1413  C1419   1.394   .     A
C1414  C1418   1.397   .     A
C1414  C1420   1.397   .     A
C1415  C1417   1.391   .     A
C1415  C1423   1.408   .     A
C1415  H1433   1.083   .     S
C1416  C1418   1.392   .     A
C1416  C1424   1.408   .     A
C1417  H1268   1.083   1_655 S
C1419  C1421   1.406   .     A
C1419  H1430   1.076   .     S
C1420  C1422   1.406   .     A
C1420  H1429   1.074   .     S
C1421  C1423   1.420   .     A
C1421  C1425   1.425   .     A
C1422  C1426   1.428   .     A
C1422  C1424   1.422   .     A
C1423  C661    1.399   1_556 S
C1425  C688    1.420   1_556 S
Cu1427 O1449   1.950   .     S
Cu1427 O1452   1.935   .     S
Cu1427 N1443   2.014   .     S
Cu1427 O1445   1.953   .     S
Cu1427 O1448   1.955   .     S
Cu1428 O1450   1.950   .     S
Cu1428 O1451   1.935   .     S
Cu1428 N1444   2.014   .     S
Cu1428 O1446   1.953   .     S
Cu1428 O1447   1.955   .     S
Cu1428 Cu1263  2.681   1_655 S
H1431  C1254   1.083   1_655 S
H1434  C1252   1.083   1_655 S
O1446  C1232   1.290   1_655 S
O1450  C1248   1.297   1_655 S
O1453  C1454   1.417   .     S
C1454  C1457   1.533   .     S
C1454  H1456   1.115   .     S
C1454  H1455   1.111   .     S
C1457  H1458   1.112   .     S
C1457  C968    1.526   1_565 S
H1459  C719    1.111   1_556 S
C1460  H1462   1.110   .     S
C1460  H1463   1.111   .     S
C1460  H1461   1.111   .     S
O1464  C1465   1.412   .     S
C1465  H1467   1.114   .     S
C1465  C1468   1.529   .     S
C1465  H1466   1.115   .     S
C1468  H1470   1.111   .     S
C1468  C1471   1.526   .     S
H1469  C1304   1.112   1_655 S
C1471  H1472   1.111   .     S
C1471  H1473   1.111   .     S
C1471  H1474   1.111   .     S
