data_str_m1_o1_o17_pcu_sym.47
_audit_creation_date              2020-01-03
_audit_creation_method            'Materials Studio'
_symmetry_space_group_name_H-M    'P1'
_symmetry_Int_Tables_number       1
_symmetry_cell_setting            triclinic
loop_
_symmetry_equiv_pos_as_xyz
  x,y,z
_cell_length_a                    36.6410
_cell_length_b                    36.6410
_cell_length_c                    34.4641
_cell_angle_alpha                 90.0000
_cell_angle_beta                  90.0000
_cell_angle_gamma                 90.0078
loop_
_atom_site_label
_atom_site_type_symbol
_atom_site_fract_x
_atom_site_fract_y
_atom_site_fract_z
_atom_site_U_iso_or_equiv
_atom_site_adp_type
_atom_site_occupancy
C1     C     0.46876   0.26058   0.41847   0.00000  Uiso   1.00
C2     C     0.28124   0.48942   0.08153   0.00000  Uiso   1.00
C3     C     0.23902   0.03177   0.54086   0.00000  Uiso   1.00
C4     C     0.46823   0.26098   0.45914   0.00000  Uiso   1.00
C5     C     0.03177   0.23902   0.54086   0.00000  Uiso   1.00
C6     C     0.23902   0.03177   0.45914   0.00000  Uiso   1.00
C7     C     0.26098   0.46823   0.54086   0.00000  Uiso   1.00
C8     C     0.28177   0.48902   0.95914   0.00000  Uiso   1.00
C9     C     0.21823   0.01098   0.04086   0.00000  Uiso   1.00
C10    C     0.01098   0.21823   0.95914   0.00000  Uiso   1.00
C11    C     0.48902   0.28177   0.04086   0.00000  Uiso   1.00
C12    C     0.21823   0.01098   0.95914   0.00000  Uiso   1.00
C13    C     0.48942   0.28124   0.91847   0.00000  Uiso   1.00
C14    C     0.28177   0.48902   0.04086   0.00000  Uiso   1.00
C15    C     0.48902   0.28177   0.95914   0.00000  Uiso   1.00
C16    C     0.01098   0.21823   0.04086   0.00000  Uiso   1.00
C17    C     0.09807   0.34807   0.25000   0.00000  Uiso   1.00
C18    C     0.40193   0.15193   0.75000   0.00000  Uiso   1.00
C19    C     0.15193   0.09807   0.25000   0.00000  Uiso   1.00
C20    C     0.34807   0.40193   0.75000   0.00000  Uiso   1.00
C21    C     0.40193   0.15193   0.25000   0.00000  Uiso   1.00
C22    C     0.09807   0.34807   0.75000   0.00000  Uiso   1.00
C23    C     0.34807   0.40193   0.25000   0.00000  Uiso   1.00
C24    C     0.01058   0.21876   0.08153   0.00000  Uiso   1.00
C25    C     0.15193   0.09807   0.75000   0.00000  Uiso   1.00
C26    C     0.09807   0.15193   0.75000   0.00000  Uiso   1.00
C27    C     0.40193   0.34807   0.25000   0.00000  Uiso   1.00
C28    C     0.15193   0.40193   0.75000   0.00000  Uiso   1.00
C29    C     0.34807   0.09807   0.25000   0.00000  Uiso   1.00
C30    C     0.40193   0.34807   0.75000   0.00000  Uiso   1.00
C31    C     0.09807   0.15193   0.25000   0.00000  Uiso   1.00
C32    C     0.34807   0.09807   0.75000   0.00000  Uiso   1.00
C33    C     0.15193   0.40193   0.25000   0.00000  Uiso   1.00
C34    C     0.00000   0.25000   0.47960   0.00000  Uiso   1.00
C35    C     0.28124   0.48942   0.91847   0.00000  Uiso   1.00
C36    C     0.00000   0.25000   0.52040   0.00000  Uiso   1.00
C37    C     0.25000  -0.00000   0.47960   0.00000  Uiso   1.00
C38    C     0.25000  -0.00000   0.52040   0.00000  Uiso   1.00
C39    C     0.25000  -0.00000   0.97960   0.00000  Uiso   1.00
C40    C     0.25000  -0.00000   0.02040   0.00000  Uiso   1.00
C41    C     0.00000   0.25000   0.97960   0.00000  Uiso   1.00
C42    C     0.00000   0.25000   0.02040   0.00000  Uiso   1.00
C43    C     0.09585   0.21609   0.45897   0.00000  Uiso   1.00
C44    C     0.40415   0.28391   0.54103   0.00000  Uiso   1.00
C45    C     0.28390   0.40415   0.45897   0.00000  Uiso   1.00
C46    C     0.21876   0.01058   0.08153   0.00000  Uiso   1.00
C47    C     0.21610   0.09585   0.54103   0.00000  Uiso   1.00
C48    C     0.40415   0.28391   0.45897   0.00000  Uiso   1.00
C49    C     0.09585   0.21609   0.54103   0.00000  Uiso   1.00
C50    C     0.21610   0.09585   0.45897   0.00000  Uiso   1.00
C51    C     0.28390   0.40415   0.54103   0.00000  Uiso   1.00
C52    C     0.34585   0.46609   0.95897   0.00000  Uiso   1.00
C53    C     0.15415   0.03391   0.04103   0.00000  Uiso   1.00
C54    C     0.03391   0.15415   0.95897   0.00000  Uiso   1.00
C55    C     0.46610   0.34585   0.04103   0.00000  Uiso   1.00
C56    C     0.15415   0.03391   0.95897   0.00000  Uiso   1.00
C57    C     0.01058   0.21876   0.91847   0.00000  Uiso   1.00
C58    C     0.34585   0.46609   0.04103   0.00000  Uiso   1.00
C59    C     0.46609   0.34585   0.95897   0.00000  Uiso   1.00
C60    C     0.03391   0.15415   0.04103   0.00000  Uiso   1.00
C61    C     0.10476   0.45009   0.25863   0.00000  Uiso   1.00
C62    C     0.39524   0.04991   0.74137   0.00000  Uiso   1.00
C63    C     0.10222   0.15699   0.17810   0.00000  Uiso   1.00
C64    C     0.39778   0.34300   0.82190   0.00000  Uiso   1.00
C65    C     0.39524   0.04991   0.25863   0.00000  Uiso   1.00
C66    C     0.10476   0.45009   0.74137   0.00000  Uiso   1.00
C67    C     0.39778   0.34300   0.17810   0.00000  Uiso   1.00
C68    C     0.48942   0.28124   0.08153   0.00000  Uiso   1.00
C69    C     0.10222   0.15699   0.82190   0.00000  Uiso   1.00
C70    C     0.15700   0.10222   0.82190   0.00000  Uiso   1.00
C71    C     0.34301   0.39778   0.17810   0.00000  Uiso   1.00
C72    C     0.04991   0.39524   0.74137   0.00000  Uiso   1.00
C73    C     0.45009   0.10476   0.25863   0.00000  Uiso   1.00
C74    C     0.34301   0.39778   0.82190   0.00000  Uiso   1.00
C75    C     0.15700   0.10222   0.17810   0.00000  Uiso   1.00
C76    C     0.45009   0.10476   0.74137   0.00000  Uiso   1.00
C77    C     0.04991   0.39524   0.25863   0.00000  Uiso   1.00
C78    C     0.35476   0.20009   0.75863   0.00000  Uiso   1.00
C79    C     0.00000   0.25000   0.39831   0.00000  Uiso   1.00
C80    C     0.14524   0.29991   0.24137   0.00000  Uiso   1.00
C81    C     0.35222   0.40699   0.67810   0.00000  Uiso   1.00
C82    C     0.14778   0.09300   0.32190   0.00000  Uiso   1.00
C83    C     0.14524   0.29991   0.75863   0.00000  Uiso   1.00
C84    C     0.35476   0.20009   0.24137   0.00000  Uiso   1.00
C85    C     0.14778   0.09300   0.67810   0.00000  Uiso   1.00
C86    C     0.35222   0.40699   0.32190   0.00000  Uiso   1.00
C87    C     0.40700   0.35222   0.32190   0.00000  Uiso   1.00
C88    C     0.09300   0.14778   0.67810   0.00000  Uiso   1.00
C89    C     0.29991   0.14524   0.24137   0.00000  Uiso   1.00
C90    C     0.00000   0.25000   0.60169   0.00000  Uiso   1.00
C91    C     0.20009   0.35476   0.75863   0.00000  Uiso   1.00
C92    C     0.09301   0.14778   0.32190   0.00000  Uiso   1.00
C93    C     0.40700   0.35222   0.67810   0.00000  Uiso   1.00
C94    C     0.20009   0.35476   0.24137   0.00000  Uiso   1.00
C95    C     0.29991   0.14524   0.75863   0.00000  Uiso   1.00
C96    C     0.25000  -0.00000   0.39831   0.00000  Uiso   1.00
C97    C     0.03124   0.23942   0.58153   0.00000  Uiso   1.00
C98    C     0.25000  -0.00000   0.60169   0.00000  Uiso   1.00
C99    C     0.25000  -0.00000   0.89831   0.00000  Uiso   1.00
C100   C     0.25000  -0.00000   0.10169   0.00000  Uiso   1.00
C101   C     0.00000   0.25000   0.89831   0.00000  Uiso   1.00
C102   C     0.00000   0.25000   0.10169   0.00000  Uiso   1.00
C103   C     0.06329   0.22782   0.47961   0.00000  Uiso   1.00
C104   C     0.43671   0.27218   0.52040   0.00000  Uiso   1.00
C105   C     0.27218   0.43670   0.47961   0.00000  Uiso   1.00
C106   C     0.22782   0.06329   0.52040   0.00000  Uiso   1.00
C107   C     0.43671   0.27218   0.47961   0.00000  Uiso   1.00
C108   C     0.23942   0.03124   0.41847   0.00000  Uiso   1.00
C109   C     0.06329   0.22782   0.52040   0.00000  Uiso   1.00
C110   C     0.22782   0.06329   0.47961   0.00000  Uiso   1.00
C111   C     0.27218   0.43670   0.52040   0.00000  Uiso   1.00
C112   C     0.31329   0.47782   0.97961   0.00000  Uiso   1.00
C113   C     0.18671   0.02218   0.02040   0.00000  Uiso   1.00
C114   C     0.02218   0.18671   0.97961   0.00000  Uiso   1.00
C115   C     0.47782   0.31329   0.02040   0.00000  Uiso   1.00
C116   C     0.18671   0.02218   0.97961   0.00000  Uiso   1.00
C117   C     0.31329   0.47782   0.02040   0.00000  Uiso   1.00
C118   C     0.47782   0.31329   0.97961   0.00000  Uiso   1.00
C119   C     0.26058   0.46876   0.58153   0.00000  Uiso   1.00
C120   C     0.02218   0.18671   0.02040   0.00000  Uiso   1.00
C121   C     0.25000  -0.00000   0.35593   0.00000  Uiso   1.00
C122   C     0.25000  -0.00000   0.64407   0.00000  Uiso   1.00
C123   C     0.00000   0.25000   0.35593   0.00000  Uiso   1.00
C124   C     0.00000   0.25000   0.64407   0.00000  Uiso   1.00
C125   C     0.00000   0.25000   0.85593   0.00000  Uiso   1.00
C126   C     0.00000   0.25000   0.14407   0.00000  Uiso   1.00
C127   C     0.25000  -0.00000   0.85593   0.00000  Uiso   1.00
C128   C     0.25000  -0.00000   0.14407   0.00000  Uiso   1.00
C129   C     0.18004   0.06996   0.25000   0.00000  Uiso   1.00
C130   C     0.03124   0.23942   0.41847   0.00000  Uiso   1.00
C131   C     0.31996   0.43004   0.75000   0.00000  Uiso   1.00
C132   C     0.43004   0.18004   0.25000   0.00000  Uiso   1.00
C133   C     0.06996   0.31996   0.75000   0.00000  Uiso   1.00
C134   C     0.31996   0.43004   0.25000   0.00000  Uiso   1.00
C135   C     0.18004   0.06996   0.75000   0.00000  Uiso   1.00
C136   C     0.06996   0.31996   0.25000   0.00000  Uiso   1.00
C137   C     0.43004   0.18004   0.75000   0.00000  Uiso   1.00
C138   C     0.18004   0.43004   0.75000   0.00000  Uiso   1.00
C139   C     0.31996   0.06996   0.25000   0.00000  Uiso   1.00
C140   C     0.43004   0.31996   0.75000   0.00000  Uiso   1.00
C141   C     0.46876   0.26058   0.58153   0.00000  Uiso   1.00
C142   C     0.06996   0.18004   0.25000   0.00000  Uiso   1.00
C143   C     0.31996   0.06996   0.75000   0.00000  Uiso   1.00
C144   C     0.18004   0.43004   0.25000   0.00000  Uiso   1.00
C145   C     0.06996   0.18004   0.75000   0.00000  Uiso   1.00
C146   C     0.43004   0.31996   0.25000   0.00000  Uiso   1.00
C147   C     0.11496   0.41206   0.25358   0.00000  Uiso   1.00
C148   C     0.38505   0.08794   0.74642   0.00000  Uiso   1.00
C149   C     0.11333   0.14033   0.21451   0.00000  Uiso   1.00
C150   C     0.38667   0.35967   0.78549   0.00000  Uiso   1.00
C151   C     0.38505   0.08794   0.25358   0.00000  Uiso   1.00
C152   C     0.26058   0.46876   0.41847   0.00000  Uiso   1.00
C153   C     0.11496   0.41206   0.74642   0.00000  Uiso   1.00
C154   C     0.38667   0.35967   0.21451   0.00000  Uiso   1.00
C155   C     0.11333   0.14033   0.78549   0.00000  Uiso   1.00
C156   C     0.14033   0.11333   0.78549   0.00000  Uiso   1.00
C157   C     0.35967   0.38667   0.21451   0.00000  Uiso   1.00
C158   C     0.08794   0.38504   0.74642   0.00000  Uiso   1.00
C159   C     0.41206   0.11495   0.25358   0.00000  Uiso   1.00
C160   C     0.35967   0.38667   0.78549   0.00000  Uiso   1.00
C161   C     0.14033   0.11333   0.21451   0.00000  Uiso   1.00
C162   C     0.41206   0.11495   0.74642   0.00000  Uiso   1.00
C163   C     0.23942   0.03124   0.58153   0.00000  Uiso   1.00
C164   C     0.08794   0.38504   0.25358   0.00000  Uiso   1.00
C165   C     0.36496   0.16206   0.75358   0.00000  Uiso   1.00
C166   C     0.13505   0.33794   0.24642   0.00000  Uiso   1.00
C167   C     0.36333   0.39033   0.71451   0.00000  Uiso   1.00
C168   C     0.13667   0.10967   0.28549   0.00000  Uiso   1.00
C169   C     0.13505   0.33794   0.75358   0.00000  Uiso   1.00
C170   C     0.36496   0.16206   0.24642   0.00000  Uiso   1.00
C171   C     0.13667   0.10967   0.71451   0.00000  Uiso   1.00
C172   C     0.36333   0.39033   0.28549   0.00000  Uiso   1.00
C173   C     0.39033   0.36333   0.28549   0.00000  Uiso   1.00
C174   C     0.21876   0.01058   0.91847   0.00000  Uiso   1.00
C175   C     0.10967   0.13667   0.71451   0.00000  Uiso   1.00
C176   C     0.33794   0.13504   0.24642   0.00000  Uiso   1.00
C177   C     0.16206   0.36495   0.75358   0.00000  Uiso   1.00
C178   C     0.10967   0.13667   0.28549   0.00000  Uiso   1.00
C179   C     0.39033   0.36333   0.71451   0.00000  Uiso   1.00
C180   C     0.16206   0.36495   0.24642   0.00000  Uiso   1.00
C181   C     0.33794   0.13504   0.75358   0.00000  Uiso   1.00
C182   C     0.03177   0.23902   0.45914   0.00000  Uiso   1.00
C183   C     0.46823   0.26098   0.54086   0.00000  Uiso   1.00
C184   C     0.26098   0.46823   0.45914   0.00000  Uiso   1.00
H185   H     0.44497   0.26889   0.40206   0.00000  Uiso   1.00
H186   H     0.30503   0.48111   0.09794   0.00000  Uiso   1.00
H187   H     0.48111   0.30503   0.90206   0.00000  Uiso   1.00
H188   H     0.01889   0.19497   0.09794   0.00000  Uiso   1.00
H189   H     0.30503   0.48111   0.90206   0.00000  Uiso   1.00
H190   H     0.19497   0.01889   0.09794   0.00000  Uiso   1.00
H191   H     0.01889   0.19497   0.90206   0.00000  Uiso   1.00
H192   H     0.48111   0.30503   0.09794   0.00000  Uiso   1.00
H193   H     0.05503   0.23111   0.59794   0.00000  Uiso   1.00
H194   H     0.23112   0.05503   0.40206   0.00000  Uiso   1.00
H195   H     0.26888   0.44497   0.59794   0.00000  Uiso   1.00
H196   H     0.05503   0.23111   0.40206   0.00000  Uiso   1.00
H197   H     0.44497   0.26889   0.59794   0.00000  Uiso   1.00
H198   H     0.26888   0.44497   0.40206   0.00000  Uiso   1.00
H199   H     0.23112   0.05503   0.59794   0.00000  Uiso   1.00
H200   H     0.19497   0.01889   0.90206   0.00000  Uiso   1.00
N201   N     0.12177   0.20674   0.44256   0.00000  Uiso   1.00
N202   N     0.12823   0.04326   0.05745   0.00000  Uiso   1.00
N203   N     0.04326   0.12823   0.94256   0.00000  Uiso   1.00
N204   N     0.45674   0.37177   0.05745   0.00000  Uiso   1.00
N205   N     0.12823   0.04326   0.94256   0.00000  Uiso   1.00
N206   N     0.37177   0.45674   0.05745   0.00000  Uiso   1.00
N207   N     0.45674   0.37177   0.94256   0.00000  Uiso   1.00
N208   N     0.04326   0.12823   0.05745   0.00000  Uiso   1.00
N209   N     0.09665   0.48038   0.26265   0.00000  Uiso   1.00
N210   N     0.40335   0.01962   0.73735   0.00000  Uiso   1.00
N211   N     0.09336   0.17026   0.14911   0.00000  Uiso   1.00
N212   N     0.37823   0.29326   0.55745   0.00000  Uiso   1.00
N213   N     0.40664   0.32974   0.85090   0.00000  Uiso   1.00
N214   N     0.40335   0.01962   0.26265   0.00000  Uiso   1.00
N215   N     0.09665   0.48038   0.73735   0.00000  Uiso   1.00
N216   N     0.40664   0.32974   0.14911   0.00000  Uiso   1.00
N217   N     0.09336   0.17026   0.85090   0.00000  Uiso   1.00
N218   N     0.17026   0.09336   0.85090   0.00000  Uiso   1.00
N219   N     0.32974   0.40664   0.14911   0.00000  Uiso   1.00
N220   N     0.01962   0.40335   0.73735   0.00000  Uiso   1.00
N221   N     0.48038   0.09665   0.26265   0.00000  Uiso   1.00
N222   N     0.32974   0.40664   0.85090   0.00000  Uiso   1.00
N223   N     0.29326   0.37822   0.44256   0.00000  Uiso   1.00
N224   N     0.17026   0.09336   0.14911   0.00000  Uiso   1.00
N225   N     0.48038   0.09665   0.73735   0.00000  Uiso   1.00
N226   N     0.01962   0.40335   0.26265   0.00000  Uiso   1.00
N227   N     0.34665   0.23038   0.76265   0.00000  Uiso   1.00
N228   N     0.15335   0.26962   0.23735   0.00000  Uiso   1.00
N229   N     0.34336   0.42026   0.64911   0.00000  Uiso   1.00
N230   N     0.15664   0.07974   0.35090   0.00000  Uiso   1.00
N231   N     0.15335   0.26962   0.76265   0.00000  Uiso   1.00
N232   N     0.34665   0.23038   0.23735   0.00000  Uiso   1.00
N233   N     0.15664   0.07974   0.64911   0.00000  Uiso   1.00
N234   N     0.20674   0.12177   0.55745   0.00000  Uiso   1.00
N235   N     0.34336   0.42026   0.35090   0.00000  Uiso   1.00
N236   N     0.42026   0.34336   0.35090   0.00000  Uiso   1.00
N237   N     0.07974   0.15664   0.64911   0.00000  Uiso   1.00
N238   N     0.26962   0.15335   0.23735   0.00000  Uiso   1.00
N239   N     0.23038   0.34665   0.76265   0.00000  Uiso   1.00
N240   N     0.07974   0.15664   0.35090   0.00000  Uiso   1.00
N241   N     0.42026   0.34336   0.64911   0.00000  Uiso   1.00
N242   N     0.23038   0.34665   0.23735   0.00000  Uiso   1.00
N243   N     0.26962   0.15335   0.76265   0.00000  Uiso   1.00
N244   N     0.37823   0.29326   0.44256   0.00000  Uiso   1.00
N245   N     0.12177   0.20674   0.55745   0.00000  Uiso   1.00
N246   N     0.20674   0.12177   0.44256   0.00000  Uiso   1.00
N247   N     0.29326   0.37822   0.55745   0.00000  Uiso   1.00
N248   N     0.37177   0.45674   0.94256   0.00000  Uiso   1.00
O249   O     0.25000  -0.00000   0.25000   0.00000  Uiso   1.00
O250   O     0.25000   0.46963   0.66245   0.00000  Uiso   1.00
O251   O     0.46964   0.25000   0.33755   0.00000  Uiso   1.00
O252   O     0.03037   0.25000   0.66245   0.00000  Uiso   1.00
O253   O     0.00000   0.21963   0.83755   0.00000  Uiso   1.00
O254   O     0.00000   0.28036   0.16245   0.00000  Uiso   1.00
O255   O     0.28037  -0.00000   0.83755   0.00000  Uiso   1.00
O256   O     0.21964  -0.00000   0.16245   0.00000  Uiso   1.00
O257   O     0.00000   0.28036   0.83755   0.00000  Uiso   1.00
O258   O     0.00000   0.21963   0.16245   0.00000  Uiso   1.00
O259   O     0.21964  -0.00000   0.83755   0.00000  Uiso   1.00
O260   O     0.25000  -0.00000   0.75000   0.00000  Uiso   1.00
O261   O     0.28037  -0.00000   0.16245   0.00000  Uiso   1.00
O262   O     0.20725   0.07307   0.27302   0.00000  Uiso   1.00
O263   O     0.29276   0.42692   0.72698   0.00000  Uiso   1.00
O264   O     0.42693   0.20724   0.27302   0.00000  Uiso   1.00
O265   O     0.07308   0.29275   0.72698   0.00000  Uiso   1.00
O266   O     0.29276   0.42692   0.27302   0.00000  Uiso   1.00
O267   O     0.20725   0.07307   0.72698   0.00000  Uiso   1.00
O268   O     0.07308   0.29275   0.27302   0.00000  Uiso   1.00
O269   O     0.42693   0.20724   0.72698   0.00000  Uiso   1.00
O270   O     0.20725   0.42692   0.72698   0.00000  Uiso   1.00
O271   O     0.00000   0.25000   0.25000   0.00000  Uiso   1.00
O272   O     0.29276   0.07307   0.27302   0.00000  Uiso   1.00
O273   O     0.42693   0.29275   0.72698   0.00000  Uiso   1.00
O274   O     0.07308   0.20724   0.27302   0.00000  Uiso   1.00
O275   O     0.29276   0.07307   0.72698   0.00000  Uiso   1.00
O276   O     0.20725   0.42692   0.27302   0.00000  Uiso   1.00
O277   O     0.07308   0.20724   0.72698   0.00000  Uiso   1.00
O278   O     0.42693   0.29275   0.27302   0.00000  Uiso   1.00
O279   O     0.45725   0.32307   0.77302   0.00000  Uiso   1.00
O280   O     0.04276   0.17692   0.22698   0.00000  Uiso   1.00
O281   O     0.17693   0.45724   0.77302   0.00000  Uiso   1.00
O282   O     0.00000   0.25000   0.75000   0.00000  Uiso   1.00
O283   O     0.32308   0.04275   0.22698   0.00000  Uiso   1.00
O284   O     0.04276   0.17692   0.77302   0.00000  Uiso   1.00
O285   O     0.45725   0.32307   0.22698   0.00000  Uiso   1.00
O286   O     0.32308   0.04275   0.77302   0.00000  Uiso   1.00
O287   O     0.17693   0.45724   0.22698   0.00000  Uiso   1.00
O288   O     0.45725   0.17692   0.22698   0.00000  Uiso   1.00
O289   O     0.04276   0.32307   0.77302   0.00000  Uiso   1.00
O290   O     0.17693   0.04275   0.22698   0.00000  Uiso   1.00
O291   O     0.32308   0.45724   0.77302   0.00000  Uiso   1.00
O292   O     0.04276   0.32307   0.22698   0.00000  Uiso   1.00
O293   O     0.25000   0.46963   0.33755   0.00000  Uiso   1.00
O294   O     0.45725   0.17692   0.77302   0.00000  Uiso   1.00
O295   O     0.32308   0.45724   0.22698   0.00000  Uiso   1.00
O296   O     0.17693   0.04275   0.77302   0.00000  Uiso   1.00
O297   O     0.25000   0.03036   0.66245   0.00000  Uiso   1.00
O298   O     0.03037   0.25000   0.33755   0.00000  Uiso   1.00
O299   O     0.46964   0.25000   0.66245   0.00000  Uiso   1.00
O300   O     0.25000   0.03036   0.33755   0.00000  Uiso   1.00
Zn301  Zn    0.20660  -0.00000   0.21735   0.00000  Uiso   1.00
Zn302  Zn    0.04341   0.25000   0.28265   0.00000  Uiso   1.00
Zn303  Zn    0.25000   0.45659   0.71735   0.00000  Uiso   1.00
Zn304  Zn    0.25000   0.04340   0.28265   0.00000  Uiso   1.00
Zn305  Zn    0.04341   0.25000   0.71735   0.00000  Uiso   1.00
Zn306  Zn    0.45660   0.25000   0.28265   0.00000  Uiso   1.00
Zn307  Zn    0.25000   0.04340   0.71735   0.00000  Uiso   1.00
Zn308  Zn    0.25000   0.45659   0.28265   0.00000  Uiso   1.00
Zn309  Zn    0.29341  -0.00000   0.78265   0.00000  Uiso   1.00
Zn310  Zn    0.00000   0.20659   0.21735   0.00000  Uiso   1.00
Zn311  Zn    0.00000   0.29340   0.78265   0.00000  Uiso   1.00
Zn312  Zn    0.29341  -0.00000   0.21735   0.00000  Uiso   1.00
Zn313  Zn    0.20660  -0.00000   0.78265   0.00000  Uiso   1.00
Zn314  Zn    0.00000   0.29340   0.21735   0.00000  Uiso   1.00
Zn315  Zn    0.00000   0.20659   0.78265   0.00000  Uiso   1.00
Zn316  Zn    0.45660   0.25000   0.71735   0.00000  Uiso   1.00
C317   C     0.96876   0.26058   0.41847   0.00000  Uiso   1.00
C318   C     0.78124   0.48942   0.08153   0.00000  Uiso   1.00
C319   C     0.73902   0.03177   0.54086   0.00000  Uiso   1.00
C320   C     0.96823   0.26098   0.45914   0.00000  Uiso   1.00
C321   C     0.53177   0.23902   0.54086   0.00000  Uiso   1.00
C322   C     0.73902   0.03177   0.45914   0.00000  Uiso   1.00
C323   C     0.76098   0.46823   0.54086   0.00000  Uiso   1.00
C324   C     0.78177   0.48902   0.95914   0.00000  Uiso   1.00
C325   C     0.71823   0.01098   0.04086   0.00000  Uiso   1.00
C326   C     0.51098   0.21823   0.95914   0.00000  Uiso   1.00
C327   C     0.98902   0.28177   0.04086   0.00000  Uiso   1.00
C328   C     0.71823   0.01098   0.95914   0.00000  Uiso   1.00
C329   C     0.98942   0.28124   0.91847   0.00000  Uiso   1.00
C330   C     0.78177   0.48902   0.04086   0.00000  Uiso   1.00
C331   C     0.98902   0.28177   0.95914   0.00000  Uiso   1.00
C332   C     0.51098   0.21823   0.04086   0.00000  Uiso   1.00
C333   C     0.59807   0.34807   0.25000   0.00000  Uiso   1.00
C334   C     0.90193   0.15193   0.75000   0.00000  Uiso   1.00
C335   C     0.65193   0.09807   0.25000   0.00000  Uiso   1.00
C336   C     0.84807   0.40193   0.75000   0.00000  Uiso   1.00
C337   C     0.90193   0.15193   0.25000   0.00000  Uiso   1.00
C338   C     0.59807   0.34807   0.75000   0.00000  Uiso   1.00
C339   C     0.84807   0.40193   0.25000   0.00000  Uiso   1.00
C340   C     0.51058   0.21876   0.08153   0.00000  Uiso   1.00
C341   C     0.65193   0.09807   0.75000   0.00000  Uiso   1.00
C342   C     0.59807   0.15193   0.75000   0.00000  Uiso   1.00
C343   C     0.90193   0.34807   0.25000   0.00000  Uiso   1.00
C344   C     0.65193   0.40193   0.75000   0.00000  Uiso   1.00
C345   C     0.84807   0.09807   0.25000   0.00000  Uiso   1.00
C346   C     0.90193   0.34807   0.75000   0.00000  Uiso   1.00
C347   C     0.59807   0.15193   0.25000   0.00000  Uiso   1.00
C348   C     0.84807   0.09807   0.75000   0.00000  Uiso   1.00
C349   C     0.65193   0.40193   0.25000   0.00000  Uiso   1.00
C350   C     0.50000   0.25000   0.47960   0.00000  Uiso   1.00
C351   C     0.78124   0.48942   0.91847   0.00000  Uiso   1.00
C352   C     0.50000   0.25000   0.52040   0.00000  Uiso   1.00
C353   C     0.75000  -0.00000   0.47960   0.00000  Uiso   1.00
C354   C     0.75000  -0.00000   0.52040   0.00000  Uiso   1.00
C355   C     0.75000  -0.00000   0.97960   0.00000  Uiso   1.00
C356   C     0.75000  -0.00000   0.02040   0.00000  Uiso   1.00
C357   C     0.50000   0.25000   0.97960   0.00000  Uiso   1.00
C358   C     0.50000   0.25000   0.02040   0.00000  Uiso   1.00
C359   C     0.59585   0.21609   0.45897   0.00000  Uiso   1.00
C360   C     0.90415   0.28391   0.54103   0.00000  Uiso   1.00
C361   C     0.78390   0.40415   0.45897   0.00000  Uiso   1.00
C362   C     0.71876   0.01058   0.08153   0.00000  Uiso   1.00
C363   C     0.71610   0.09585   0.54103   0.00000  Uiso   1.00
C364   C     0.90415   0.28391   0.45897   0.00000  Uiso   1.00
C365   C     0.59585   0.21609   0.54103   0.00000  Uiso   1.00
C366   C     0.71610   0.09585   0.45897   0.00000  Uiso   1.00
C367   C     0.78390   0.40415   0.54103   0.00000  Uiso   1.00
C368   C     0.84585   0.46609   0.95897   0.00000  Uiso   1.00
C369   C     0.65415   0.03391   0.04103   0.00000  Uiso   1.00
C370   C     0.53391   0.15415   0.95897   0.00000  Uiso   1.00
C371   C     0.96610   0.34585   0.04103   0.00000  Uiso   1.00
C372   C     0.65415   0.03391   0.95897   0.00000  Uiso   1.00
C373   C     0.51058   0.21876   0.91847   0.00000  Uiso   1.00
C374   C     0.84585   0.46609   0.04103   0.00000  Uiso   1.00
C375   C     0.96609   0.34585   0.95897   0.00000  Uiso   1.00
C376   C     0.53391   0.15415   0.04103   0.00000  Uiso   1.00
C377   C     0.60476   0.45009   0.25863   0.00000  Uiso   1.00
C378   C     0.89524   0.04991   0.74137   0.00000  Uiso   1.00
C379   C     0.60222   0.15699   0.17810   0.00000  Uiso   1.00
C380   C     0.89778   0.34300   0.82190   0.00000  Uiso   1.00
C381   C     0.89524   0.04991   0.25863   0.00000  Uiso   1.00
C382   C     0.60476   0.45009   0.74137   0.00000  Uiso   1.00
C383   C     0.89778   0.34300   0.17810   0.00000  Uiso   1.00
C384   C     0.98942   0.28124   0.08153   0.00000  Uiso   1.00
C385   C     0.60222   0.15699   0.82190   0.00000  Uiso   1.00
C386   C     0.65700   0.10222   0.82190   0.00000  Uiso   1.00
C387   C     0.84301   0.39778   0.17810   0.00000  Uiso   1.00
C388   C     0.54991   0.39524   0.74137   0.00000  Uiso   1.00
C389   C     0.95009   0.10476   0.25863   0.00000  Uiso   1.00
C390   C     0.84301   0.39778   0.82190   0.00000  Uiso   1.00
C391   C     0.65700   0.10222   0.17810   0.00000  Uiso   1.00
C392   C     0.95009   0.10476   0.74137   0.00000  Uiso   1.00
C393   C     0.54991   0.39524   0.25863   0.00000  Uiso   1.00
C394   C     0.85476   0.20009   0.75863   0.00000  Uiso   1.00
C395   C     0.50000   0.25000   0.39831   0.00000  Uiso   1.00
C396   C     0.64524   0.29991   0.24137   0.00000  Uiso   1.00
C397   C     0.85222   0.40699   0.67810   0.00000  Uiso   1.00
C398   C     0.64778   0.09300   0.32190   0.00000  Uiso   1.00
C399   C     0.64524   0.29991   0.75863   0.00000  Uiso   1.00
C400   C     0.85476   0.20009   0.24137   0.00000  Uiso   1.00
C401   C     0.64778   0.09300   0.67810   0.00000  Uiso   1.00
C402   C     0.85222   0.40699   0.32190   0.00000  Uiso   1.00
C403   C     0.90700   0.35222   0.32190   0.00000  Uiso   1.00
C404   C     0.59300   0.14778   0.67810   0.00000  Uiso   1.00
C405   C     0.79991   0.14524   0.24137   0.00000  Uiso   1.00
C406   C     0.50000   0.25000   0.60169   0.00000  Uiso   1.00
C407   C     0.70009   0.35476   0.75863   0.00000  Uiso   1.00
C408   C     0.59301   0.14778   0.32190   0.00000  Uiso   1.00
C409   C     0.90700   0.35222   0.67810   0.00000  Uiso   1.00
C410   C     0.70009   0.35476   0.24137   0.00000  Uiso   1.00
C411   C     0.79991   0.14524   0.75863   0.00000  Uiso   1.00
C412   C     0.75000  -0.00000   0.39831   0.00000  Uiso   1.00
C413   C     0.53124   0.23942   0.58153   0.00000  Uiso   1.00
C414   C     0.75000  -0.00000   0.60169   0.00000  Uiso   1.00
C415   C     0.75000  -0.00000   0.89831   0.00000  Uiso   1.00
C416   C     0.75000  -0.00000   0.10169   0.00000  Uiso   1.00
C417   C     0.50000   0.25000   0.89831   0.00000  Uiso   1.00
C418   C     0.50000   0.25000   0.10169   0.00000  Uiso   1.00
C419   C     0.56329   0.22782   0.47961   0.00000  Uiso   1.00
C420   C     0.93671   0.27218   0.52040   0.00000  Uiso   1.00
C421   C     0.77218   0.43670   0.47961   0.00000  Uiso   1.00
C422   C     0.72782   0.06329   0.52040   0.00000  Uiso   1.00
C423   C     0.93671   0.27218   0.47961   0.00000  Uiso   1.00
C424   C     0.73942   0.03124   0.41847   0.00000  Uiso   1.00
C425   C     0.56329   0.22782   0.52040   0.00000  Uiso   1.00
C426   C     0.72782   0.06329   0.47961   0.00000  Uiso   1.00
C427   C     0.77218   0.43670   0.52040   0.00000  Uiso   1.00
C428   C     0.81329   0.47782   0.97961   0.00000  Uiso   1.00
C429   C     0.68671   0.02218   0.02040   0.00000  Uiso   1.00
C430   C     0.52218   0.18671   0.97961   0.00000  Uiso   1.00
C431   C     0.97782   0.31329   0.02040   0.00000  Uiso   1.00
C432   C     0.68671   0.02218   0.97961   0.00000  Uiso   1.00
C433   C     0.81329   0.47782   0.02040   0.00000  Uiso   1.00
C434   C     0.97782   0.31329   0.97961   0.00000  Uiso   1.00
C435   C     0.76058   0.46876   0.58153   0.00000  Uiso   1.00
C436   C     0.52218   0.18671   0.02040   0.00000  Uiso   1.00
C437   C     0.75000  -0.00000   0.35593   0.00000  Uiso   1.00
C438   C     0.75000  -0.00000   0.64407   0.00000  Uiso   1.00
C439   C     0.50000   0.25000   0.35593   0.00000  Uiso   1.00
C440   C     0.50000   0.25000   0.64407   0.00000  Uiso   1.00
C441   C     0.50000   0.25000   0.85593   0.00000  Uiso   1.00
C442   C     0.50000   0.25000   0.14407   0.00000  Uiso   1.00
C443   C     0.75000  -0.00000   0.85593   0.00000  Uiso   1.00
C444   C     0.75000  -0.00000   0.14407   0.00000  Uiso   1.00
C445   C     0.68004   0.06996   0.25000   0.00000  Uiso   1.00
C446   C     0.53124   0.23942   0.41847   0.00000  Uiso   1.00
C447   C     0.81996   0.43004   0.75000   0.00000  Uiso   1.00
C448   C     0.93004   0.18004   0.25000   0.00000  Uiso   1.00
C449   C     0.56996   0.31996   0.75000   0.00000  Uiso   1.00
C450   C     0.81996   0.43004   0.25000   0.00000  Uiso   1.00
C451   C     0.68004   0.06996   0.75000   0.00000  Uiso   1.00
C452   C     0.56996   0.31996   0.25000   0.00000  Uiso   1.00
C453   C     0.93004   0.18004   0.75000   0.00000  Uiso   1.00
C454   C     0.68004   0.43004   0.75000   0.00000  Uiso   1.00
C455   C     0.81996   0.06996   0.25000   0.00000  Uiso   1.00
C456   C     0.93004   0.31996   0.75000   0.00000  Uiso   1.00
C457   C     0.96876   0.26058   0.58153   0.00000  Uiso   1.00
C458   C     0.56996   0.18004   0.25000   0.00000  Uiso   1.00
C459   C     0.81996   0.06996   0.75000   0.00000  Uiso   1.00
C460   C     0.68004   0.43004   0.25000   0.00000  Uiso   1.00
C461   C     0.56996   0.18004   0.75000   0.00000  Uiso   1.00
C462   C     0.93004   0.31996   0.25000   0.00000  Uiso   1.00
C463   C     0.61496   0.41206   0.25358   0.00000  Uiso   1.00
C464   C     0.88505   0.08794   0.74642   0.00000  Uiso   1.00
C465   C     0.61333   0.14033   0.21451   0.00000  Uiso   1.00
C466   C     0.88667   0.35967   0.78549   0.00000  Uiso   1.00
C467   C     0.88505   0.08794   0.25358   0.00000  Uiso   1.00
C468   C     0.76058   0.46876   0.41847   0.00000  Uiso   1.00
C469   C     0.61496   0.41206   0.74642   0.00000  Uiso   1.00
C470   C     0.88667   0.35967   0.21451   0.00000  Uiso   1.00
C471   C     0.61333   0.14033   0.78549   0.00000  Uiso   1.00
C472   C     0.64033   0.11333   0.78549   0.00000  Uiso   1.00
C473   C     0.85967   0.38667   0.21451   0.00000  Uiso   1.00
C474   C     0.58794   0.38504   0.74642   0.00000  Uiso   1.00
C475   C     0.91206   0.11495   0.25358   0.00000  Uiso   1.00
C476   C     0.85967   0.38667   0.78549   0.00000  Uiso   1.00
C477   C     0.64033   0.11333   0.21451   0.00000  Uiso   1.00
C478   C     0.91206   0.11495   0.74642   0.00000  Uiso   1.00
C479   C     0.73942   0.03124   0.58153   0.00000  Uiso   1.00
C480   C     0.58794   0.38504   0.25358   0.00000  Uiso   1.00
C481   C     0.86496   0.16206   0.75358   0.00000  Uiso   1.00
C482   C     0.63505   0.33794   0.24642   0.00000  Uiso   1.00
C483   C     0.86333   0.39033   0.71451   0.00000  Uiso   1.00
C484   C     0.63667   0.10967   0.28549   0.00000  Uiso   1.00
C485   C     0.63505   0.33794   0.75358   0.00000  Uiso   1.00
C486   C     0.86496   0.16206   0.24642   0.00000  Uiso   1.00
C487   C     0.63667   0.10967   0.71451   0.00000  Uiso   1.00
C488   C     0.86333   0.39033   0.28549   0.00000  Uiso   1.00
C489   C     0.89033   0.36333   0.28549   0.00000  Uiso   1.00
C490   C     0.71876   0.01058   0.91847   0.00000  Uiso   1.00
C491   C     0.60967   0.13667   0.71451   0.00000  Uiso   1.00
C492   C     0.83794   0.13504   0.24642   0.00000  Uiso   1.00
C493   C     0.66206   0.36495   0.75358   0.00000  Uiso   1.00
C494   C     0.60967   0.13667   0.28549   0.00000  Uiso   1.00
C495   C     0.89033   0.36333   0.71451   0.00000  Uiso   1.00
C496   C     0.66206   0.36495   0.24642   0.00000  Uiso   1.00
C497   C     0.83794   0.13504   0.75358   0.00000  Uiso   1.00
C498   C     0.53177   0.23902   0.45914   0.00000  Uiso   1.00
C499   C     0.96823   0.26098   0.54086   0.00000  Uiso   1.00
C500   C     0.76098   0.46823   0.45914   0.00000  Uiso   1.00
H501   H     0.94497   0.26889   0.40206   0.00000  Uiso   1.00
H502   H     0.80503   0.48111   0.09794   0.00000  Uiso   1.00
H503   H     0.98111   0.30503   0.90206   0.00000  Uiso   1.00
H504   H     0.51889   0.19497   0.09794   0.00000  Uiso   1.00
H505   H     0.80503   0.48111   0.90206   0.00000  Uiso   1.00
H506   H     0.69497   0.01889   0.09794   0.00000  Uiso   1.00
H507   H     0.51889   0.19497   0.90206   0.00000  Uiso   1.00
H508   H     0.98111   0.30503   0.09794   0.00000  Uiso   1.00
H509   H     0.55503   0.23111   0.59794   0.00000  Uiso   1.00
H510   H     0.73112   0.05503   0.40206   0.00000  Uiso   1.00
H511   H     0.76888   0.44497   0.59794   0.00000  Uiso   1.00
H512   H     0.55503   0.23111   0.40206   0.00000  Uiso   1.00
H513   H     0.94497   0.26889   0.59794   0.00000  Uiso   1.00
H514   H     0.76888   0.44497   0.40206   0.00000  Uiso   1.00
H515   H     0.73112   0.05503   0.59794   0.00000  Uiso   1.00
H516   H     0.69497   0.01889   0.90206   0.00000  Uiso   1.00
N517   N     0.62177   0.20674   0.44256   0.00000  Uiso   1.00
N518   N     0.62823   0.04326   0.05745   0.00000  Uiso   1.00
N519   N     0.54326   0.12823   0.94256   0.00000  Uiso   1.00
N520   N     0.95674   0.37177   0.05745   0.00000  Uiso   1.00
N521   N     0.62823   0.04326   0.94256   0.00000  Uiso   1.00
N522   N     0.87177   0.45674   0.05745   0.00000  Uiso   1.00
N523   N     0.95674   0.37177   0.94256   0.00000  Uiso   1.00
N524   N     0.54326   0.12823   0.05745   0.00000  Uiso   1.00
N525   N     0.59665   0.48038   0.26265   0.00000  Uiso   1.00
N526   N     0.90335   0.01962   0.73735   0.00000  Uiso   1.00
N527   N     0.59336   0.17026   0.14911   0.00000  Uiso   1.00
N528   N     0.87823   0.29326   0.55745   0.00000  Uiso   1.00
N529   N     0.90664   0.32974   0.85090   0.00000  Uiso   1.00
N530   N     0.90335   0.01962   0.26265   0.00000  Uiso   1.00
N531   N     0.59665   0.48038   0.73735   0.00000  Uiso   1.00
N532   N     0.90664   0.32974   0.14911   0.00000  Uiso   1.00
N533   N     0.59336   0.17026   0.85090   0.00000  Uiso   1.00
N534   N     0.67026   0.09336   0.85090   0.00000  Uiso   1.00
N535   N     0.82974   0.40664   0.14911   0.00000  Uiso   1.00
N536   N     0.51962   0.40335   0.73735   0.00000  Uiso   1.00
N537   N     0.98038   0.09665   0.26265   0.00000  Uiso   1.00
N538   N     0.82974   0.40664   0.85090   0.00000  Uiso   1.00
N539   N     0.79326   0.37822   0.44256   0.00000  Uiso   1.00
N540   N     0.67026   0.09336   0.14911   0.00000  Uiso   1.00
N541   N     0.98038   0.09665   0.73735   0.00000  Uiso   1.00
N542   N     0.51962   0.40335   0.26265   0.00000  Uiso   1.00
N543   N     0.84665   0.23038   0.76265   0.00000  Uiso   1.00
N544   N     0.65335   0.26962   0.23735   0.00000  Uiso   1.00
N545   N     0.84336   0.42026   0.64911   0.00000  Uiso   1.00
N546   N     0.65664   0.07974   0.35090   0.00000  Uiso   1.00
N547   N     0.65335   0.26962   0.76265   0.00000  Uiso   1.00
N548   N     0.84665   0.23038   0.23735   0.00000  Uiso   1.00
N549   N     0.65664   0.07974   0.64911   0.00000  Uiso   1.00
N550   N     0.70674   0.12177   0.55745   0.00000  Uiso   1.00
N551   N     0.84336   0.42026   0.35090   0.00000  Uiso   1.00
N552   N     0.92026   0.34336   0.35090   0.00000  Uiso   1.00
N553   N     0.57974   0.15664   0.64911   0.00000  Uiso   1.00
N554   N     0.76962   0.15335   0.23735   0.00000  Uiso   1.00
N555   N     0.73038   0.34665   0.76265   0.00000  Uiso   1.00
N556   N     0.57974   0.15664   0.35090   0.00000  Uiso   1.00
N557   N     0.92026   0.34336   0.64911   0.00000  Uiso   1.00
N558   N     0.73038   0.34665   0.23735   0.00000  Uiso   1.00
N559   N     0.76962   0.15335   0.76265   0.00000  Uiso   1.00
N560   N     0.87823   0.29326   0.44256   0.00000  Uiso   1.00
N561   N     0.62177   0.20674   0.55745   0.00000  Uiso   1.00
N562   N     0.70674   0.12177   0.44256   0.00000  Uiso   1.00
N563   N     0.79326   0.37822   0.55745   0.00000  Uiso   1.00
N564   N     0.87177   0.45674   0.94256   0.00000  Uiso   1.00
O565   O     0.75000  -0.00000   0.25000   0.00000  Uiso   1.00
O566   O     0.75000   0.46963   0.66245   0.00000  Uiso   1.00
O567   O     0.96964   0.25000   0.33755   0.00000  Uiso   1.00
O568   O     0.53037   0.25000   0.66245   0.00000  Uiso   1.00
O569   O     0.50000   0.21963   0.83755   0.00000  Uiso   1.00
O570   O     0.50000   0.28036   0.16245   0.00000  Uiso   1.00
O571   O     0.78037  -0.00000   0.83755   0.00000  Uiso   1.00
O572   O     0.71964  -0.00000   0.16245   0.00000  Uiso   1.00
O573   O     0.50000   0.28036   0.83755   0.00000  Uiso   1.00
O574   O     0.50000   0.21963   0.16245   0.00000  Uiso   1.00
O575   O     0.71964  -0.00000   0.83755   0.00000  Uiso   1.00
O576   O     0.75000  -0.00000   0.75000   0.00000  Uiso   1.00
O577   O     0.78037  -0.00000   0.16245   0.00000  Uiso   1.00
O578   O     0.70725   0.07307   0.27302   0.00000  Uiso   1.00
O579   O     0.79276   0.42692   0.72698   0.00000  Uiso   1.00
O580   O     0.92693   0.20724   0.27302   0.00000  Uiso   1.00
O581   O     0.57308   0.29275   0.72698   0.00000  Uiso   1.00
O582   O     0.79276   0.42692   0.27302   0.00000  Uiso   1.00
O583   O     0.70725   0.07307   0.72698   0.00000  Uiso   1.00
O584   O     0.57308   0.29275   0.27302   0.00000  Uiso   1.00
O585   O     0.92693   0.20724   0.72698   0.00000  Uiso   1.00
O586   O     0.70725   0.42692   0.72698   0.00000  Uiso   1.00
O587   O     0.50000   0.25000   0.25000   0.00000  Uiso   1.00
O588   O     0.79276   0.07307   0.27302   0.00000  Uiso   1.00
O589   O     0.92693   0.29275   0.72698   0.00000  Uiso   1.00
O590   O     0.57308   0.20724   0.27302   0.00000  Uiso   1.00
O591   O     0.79276   0.07307   0.72698   0.00000  Uiso   1.00
O592   O     0.70725   0.42692   0.27302   0.00000  Uiso   1.00
O593   O     0.57308   0.20724   0.72698   0.00000  Uiso   1.00
O594   O     0.92693   0.29275   0.27302   0.00000  Uiso   1.00
O595   O     0.95725   0.32307   0.77302   0.00000  Uiso   1.00
O596   O     0.54276   0.17692   0.22698   0.00000  Uiso   1.00
O597   O     0.67693   0.45724   0.77302   0.00000  Uiso   1.00
O598   O     0.50000   0.25000   0.75000   0.00000  Uiso   1.00
O599   O     0.82308   0.04275   0.22698   0.00000  Uiso   1.00
O600   O     0.54276   0.17692   0.77302   0.00000  Uiso   1.00
O601   O     0.95725   0.32307   0.22698   0.00000  Uiso   1.00
O602   O     0.82308   0.04275   0.77302   0.00000  Uiso   1.00
O603   O     0.67693   0.45724   0.22698   0.00000  Uiso   1.00
O604   O     0.95725   0.17692   0.22698   0.00000  Uiso   1.00
O605   O     0.54276   0.32307   0.77302   0.00000  Uiso   1.00
O606   O     0.67693   0.04275   0.22698   0.00000  Uiso   1.00
O607   O     0.82308   0.45724   0.77302   0.00000  Uiso   1.00
O608   O     0.54276   0.32307   0.22698   0.00000  Uiso   1.00
O609   O     0.75000   0.46963   0.33755   0.00000  Uiso   1.00
O610   O     0.95725   0.17692   0.77302   0.00000  Uiso   1.00
O611   O     0.82308   0.45724   0.22698   0.00000  Uiso   1.00
O612   O     0.67693   0.04275   0.77302   0.00000  Uiso   1.00
O613   O     0.75000   0.03036   0.66245   0.00000  Uiso   1.00
O614   O     0.53037   0.25000   0.33755   0.00000  Uiso   1.00
O615   O     0.96964   0.25000   0.66245   0.00000  Uiso   1.00
O616   O     0.75000   0.03036   0.33755   0.00000  Uiso   1.00
Zn617  Zn    0.70660  -0.00000   0.21735   0.00000  Uiso   1.00
Zn618  Zn    0.54341   0.25000   0.28265   0.00000  Uiso   1.00
Zn619  Zn    0.75000   0.45659   0.71735   0.00000  Uiso   1.00
Zn620  Zn    0.75000   0.04340   0.28265   0.00000  Uiso   1.00
Zn621  Zn    0.54341   0.25000   0.71735   0.00000  Uiso   1.00
Zn622  Zn    0.95660   0.25000   0.28265   0.00000  Uiso   1.00
Zn623  Zn    0.75000   0.04340   0.71735   0.00000  Uiso   1.00
Zn624  Zn    0.75000   0.45659   0.28265   0.00000  Uiso   1.00
Zn625  Zn    0.79341  -0.00000   0.78265   0.00000  Uiso   1.00
Zn626  Zn    0.50000   0.20659   0.21735   0.00000  Uiso   1.00
Zn627  Zn    0.50000   0.29340   0.78265   0.00000  Uiso   1.00
Zn628  Zn    0.79341  -0.00000   0.21735   0.00000  Uiso   1.00
Zn629  Zn    0.70660  -0.00000   0.78265   0.00000  Uiso   1.00
Zn630  Zn    0.50000   0.29340   0.21735   0.00000  Uiso   1.00
Zn631  Zn    0.50000   0.20659   0.78265   0.00000  Uiso   1.00
Zn632  Zn    0.95660   0.25000   0.71735   0.00000  Uiso   1.00
C633   C     0.46876   0.76058   0.41847   0.00000  Uiso   1.00
C634   C     0.28124   0.98942   0.08153   0.00000  Uiso   1.00
C635   C     0.23902   0.53177   0.54086   0.00000  Uiso   1.00
C636   C     0.46823   0.76098   0.45914   0.00000  Uiso   1.00
C637   C     0.03177   0.73902   0.54086   0.00000  Uiso   1.00
C638   C     0.23902   0.53177   0.45914   0.00000  Uiso   1.00
C639   C     0.26098   0.96823   0.54086   0.00000  Uiso   1.00
C640   C     0.28177   0.98902   0.95914   0.00000  Uiso   1.00
C641   C     0.21823   0.51098   0.04086   0.00000  Uiso   1.00
C642   C     0.01098   0.71823   0.95914   0.00000  Uiso   1.00
C643   C     0.48902   0.78177   0.04086   0.00000  Uiso   1.00
C644   C     0.21823   0.51098   0.95914   0.00000  Uiso   1.00
C645   C     0.48942   0.78124   0.91847   0.00000  Uiso   1.00
C646   C     0.28177   0.98902   0.04086   0.00000  Uiso   1.00
C647   C     0.48902   0.78177   0.95914   0.00000  Uiso   1.00
C648   C     0.01098   0.71823   0.04086   0.00000  Uiso   1.00
C649   C     0.09807   0.84807   0.25000   0.00000  Uiso   1.00
C650   C     0.40193   0.65193   0.75000   0.00000  Uiso   1.00
C651   C     0.15193   0.59807   0.25000   0.00000  Uiso   1.00
C652   C     0.34807   0.90193   0.75000   0.00000  Uiso   1.00
C653   C     0.40193   0.65193   0.25000   0.00000  Uiso   1.00
C654   C     0.09807   0.84807   0.75000   0.00000  Uiso   1.00
C655   C     0.34807   0.90193   0.25000   0.00000  Uiso   1.00
C656   C     0.01058   0.71876   0.08153   0.00000  Uiso   1.00
C657   C     0.15193   0.59807   0.75000   0.00000  Uiso   1.00
C658   C     0.09807   0.65193   0.75000   0.00000  Uiso   1.00
C659   C     0.40193   0.84807   0.25000   0.00000  Uiso   1.00
C660   C     0.15193   0.90193   0.75000   0.00000  Uiso   1.00
C661   C     0.34807   0.59807   0.25000   0.00000  Uiso   1.00
C662   C     0.40193   0.84807   0.75000   0.00000  Uiso   1.00
C663   C     0.09807   0.65193   0.25000   0.00000  Uiso   1.00
C664   C     0.34807   0.59807   0.75000   0.00000  Uiso   1.00
C665   C     0.15193   0.90193   0.25000   0.00000  Uiso   1.00
C666   C     0.00000   0.75000   0.47960   0.00000  Uiso   1.00
C667   C     0.28124   0.98942   0.91847   0.00000  Uiso   1.00
C668   C     0.00000   0.75000   0.52040   0.00000  Uiso   1.00
C669   C     0.25000   0.50000   0.47960   0.00000  Uiso   1.00
C670   C     0.25000   0.50000   0.52040   0.00000  Uiso   1.00
C671   C     0.25000   0.50000   0.97960   0.00000  Uiso   1.00
C672   C     0.25000   0.50000   0.02040   0.00000  Uiso   1.00
C673   C     0.00000   0.75000   0.97960   0.00000  Uiso   1.00
C674   C     0.00000   0.75000   0.02040   0.00000  Uiso   1.00
C675   C     0.09585   0.71609   0.45897   0.00000  Uiso   1.00
C676   C     0.40415   0.78391   0.54103   0.00000  Uiso   1.00
C677   C     0.28390   0.90415   0.45897   0.00000  Uiso   1.00
C678   C     0.21876   0.51058   0.08153   0.00000  Uiso   1.00
C679   C     0.21610   0.59585   0.54103   0.00000  Uiso   1.00
C680   C     0.40415   0.78391   0.45897   0.00000  Uiso   1.00
C681   C     0.09585   0.71609   0.54103   0.00000  Uiso   1.00
C682   C     0.21610   0.59585   0.45897   0.00000  Uiso   1.00
C683   C     0.28390   0.90415   0.54103   0.00000  Uiso   1.00
C684   C     0.34585   0.96609   0.95897   0.00000  Uiso   1.00
C685   C     0.15415   0.53391   0.04103   0.00000  Uiso   1.00
C686   C     0.03391   0.65415   0.95897   0.00000  Uiso   1.00
C687   C     0.46610   0.84585   0.04103   0.00000  Uiso   1.00
C688   C     0.15415   0.53391   0.95897   0.00000  Uiso   1.00
C689   C     0.01058   0.71876   0.91847   0.00000  Uiso   1.00
C690   C     0.34585   0.96609   0.04103   0.00000  Uiso   1.00
C691   C     0.46609   0.84585   0.95897   0.00000  Uiso   1.00
C692   C     0.03391   0.65415   0.04103   0.00000  Uiso   1.00
C693   C     0.10476   0.95009   0.25863   0.00000  Uiso   1.00
C694   C     0.39524   0.54991   0.74137   0.00000  Uiso   1.00
C695   C     0.10222   0.65699   0.17810   0.00000  Uiso   1.00
C696   C     0.39778   0.84300   0.82190   0.00000  Uiso   1.00
C697   C     0.39524   0.54991   0.25863   0.00000  Uiso   1.00
C698   C     0.10476   0.95009   0.74137   0.00000  Uiso   1.00
C699   C     0.39778   0.84300   0.17810   0.00000  Uiso   1.00
C700   C     0.48942   0.78124   0.08153   0.00000  Uiso   1.00
C701   C     0.10222   0.65699   0.82190   0.00000  Uiso   1.00
C702   C     0.15700   0.60222   0.82190   0.00000  Uiso   1.00
C703   C     0.34301   0.89778   0.17810   0.00000  Uiso   1.00
C704   C     0.04991   0.89524   0.74137   0.00000  Uiso   1.00
C705   C     0.45009   0.60476   0.25863   0.00000  Uiso   1.00
C706   C     0.34301   0.89778   0.82190   0.00000  Uiso   1.00
C707   C     0.15700   0.60222   0.17810   0.00000  Uiso   1.00
C708   C     0.45009   0.60476   0.74137   0.00000  Uiso   1.00
C709   C     0.04991   0.89524   0.25863   0.00000  Uiso   1.00
C710   C     0.35476   0.70009   0.75863   0.00000  Uiso   1.00
C711   C     0.00000   0.75000   0.39831   0.00000  Uiso   1.00
C712   C     0.14524   0.79991   0.24137   0.00000  Uiso   1.00
C713   C     0.35222   0.90699   0.67810   0.00000  Uiso   1.00
C714   C     0.14778   0.59300   0.32190   0.00000  Uiso   1.00
C715   C     0.14524   0.79991   0.75863   0.00000  Uiso   1.00
C716   C     0.35476   0.70009   0.24137   0.00000  Uiso   1.00
C717   C     0.14778   0.59300   0.67810   0.00000  Uiso   1.00
C718   C     0.35222   0.90699   0.32190   0.00000  Uiso   1.00
C719   C     0.40700   0.85222   0.32190   0.00000  Uiso   1.00
C720   C     0.09300   0.64778   0.67810   0.00000  Uiso   1.00
C721   C     0.29991   0.64524   0.24137   0.00000  Uiso   1.00
C722   C     0.00000   0.75000   0.60169   0.00000  Uiso   1.00
C723   C     0.20009   0.85476   0.75863   0.00000  Uiso   1.00
C724   C     0.09301   0.64778   0.32190   0.00000  Uiso   1.00
C725   C     0.40700   0.85222   0.67810   0.00000  Uiso   1.00
C726   C     0.20009   0.85476   0.24137   0.00000  Uiso   1.00
C727   C     0.29991   0.64524   0.75863   0.00000  Uiso   1.00
C728   C     0.25000   0.50000   0.39831   0.00000  Uiso   1.00
C729   C     0.03124   0.73942   0.58153   0.00000  Uiso   1.00
C730   C     0.25000   0.50000   0.60169   0.00000  Uiso   1.00
C731   C     0.25000   0.50000   0.89831   0.00000  Uiso   1.00
C732   C     0.25000   0.50000   0.10169   0.00000  Uiso   1.00
C733   C     0.00000   0.75000   0.89831   0.00000  Uiso   1.00
C734   C     0.00000   0.75000   0.10169   0.00000  Uiso   1.00
C735   C     0.06329   0.72782   0.47961   0.00000  Uiso   1.00
C736   C     0.43671   0.77218   0.52040   0.00000  Uiso   1.00
C737   C     0.27218   0.93670   0.47961   0.00000  Uiso   1.00
C738   C     0.22782   0.56329   0.52040   0.00000  Uiso   1.00
C739   C     0.43671   0.77218   0.47961   0.00000  Uiso   1.00
C740   C     0.23942   0.53124   0.41847   0.00000  Uiso   1.00
C741   C     0.06329   0.72782   0.52040   0.00000  Uiso   1.00
C742   C     0.22782   0.56329   0.47961   0.00000  Uiso   1.00
C743   C     0.27218   0.93670   0.52040   0.00000  Uiso   1.00
C744   C     0.31329   0.97782   0.97961   0.00000  Uiso   1.00
C745   C     0.18671   0.52218   0.02040   0.00000  Uiso   1.00
C746   C     0.02218   0.68671   0.97961   0.00000  Uiso   1.00
C747   C     0.47782   0.81329   0.02040   0.00000  Uiso   1.00
C748   C     0.18671   0.52218   0.97961   0.00000  Uiso   1.00
C749   C     0.31329   0.97782   0.02040   0.00000  Uiso   1.00
C750   C     0.47782   0.81329   0.97961   0.00000  Uiso   1.00
C751   C     0.26058   0.96876   0.58153   0.00000  Uiso   1.00
C752   C     0.02218   0.68671   0.02040   0.00000  Uiso   1.00
C753   C     0.25000   0.50000   0.35593   0.00000  Uiso   1.00
C754   C     0.25000   0.50000   0.64407   0.00000  Uiso   1.00
C755   C     0.00000   0.75000   0.35593   0.00000  Uiso   1.00
C756   C     0.00000   0.75000   0.64407   0.00000  Uiso   1.00
C757   C     0.00000   0.75000   0.85593   0.00000  Uiso   1.00
C758   C     0.00000   0.75000   0.14407   0.00000  Uiso   1.00
C759   C     0.25000   0.50000   0.85593   0.00000  Uiso   1.00
C760   C     0.25000   0.50000   0.14407   0.00000  Uiso   1.00
C761   C     0.18004   0.56996   0.25000   0.00000  Uiso   1.00
C762   C     0.03124   0.73942   0.41847   0.00000  Uiso   1.00
C763   C     0.31996   0.93004   0.75000   0.00000  Uiso   1.00
C764   C     0.43004   0.68004   0.25000   0.00000  Uiso   1.00
C765   C     0.06996   0.81996   0.75000   0.00000  Uiso   1.00
C766   C     0.31996   0.93004   0.25000   0.00000  Uiso   1.00
C767   C     0.18004   0.56996   0.75000   0.00000  Uiso   1.00
C768   C     0.06996   0.81996   0.25000   0.00000  Uiso   1.00
C769   C     0.43004   0.68004   0.75000   0.00000  Uiso   1.00
C770   C     0.18004   0.93004   0.75000   0.00000  Uiso   1.00
C771   C     0.31996   0.56996   0.25000   0.00000  Uiso   1.00
C772   C     0.43004   0.81996   0.75000   0.00000  Uiso   1.00
C773   C     0.46876   0.76058   0.58153   0.00000  Uiso   1.00
C774   C     0.06996   0.68004   0.25000   0.00000  Uiso   1.00
C775   C     0.31996   0.56996   0.75000   0.00000  Uiso   1.00
C776   C     0.18004   0.93004   0.25000   0.00000  Uiso   1.00
C777   C     0.06996   0.68004   0.75000   0.00000  Uiso   1.00
C778   C     0.43004   0.81996   0.25000   0.00000  Uiso   1.00
C779   C     0.11496   0.91206   0.25358   0.00000  Uiso   1.00
C780   C     0.38505   0.58794   0.74642   0.00000  Uiso   1.00
C781   C     0.11333   0.64033   0.21451   0.00000  Uiso   1.00
C782   C     0.38667   0.85967   0.78549   0.00000  Uiso   1.00
C783   C     0.38505   0.58794   0.25358   0.00000  Uiso   1.00
C784   C     0.26058   0.96876   0.41847   0.00000  Uiso   1.00
C785   C     0.11496   0.91206   0.74642   0.00000  Uiso   1.00
C786   C     0.38667   0.85967   0.21451   0.00000  Uiso   1.00
C787   C     0.11333   0.64033   0.78549   0.00000  Uiso   1.00
C788   C     0.14033   0.61333   0.78549   0.00000  Uiso   1.00
C789   C     0.35967   0.88667   0.21451   0.00000  Uiso   1.00
C790   C     0.08794   0.88504   0.74642   0.00000  Uiso   1.00
C791   C     0.41206   0.61495   0.25358   0.00000  Uiso   1.00
C792   C     0.35967   0.88667   0.78549   0.00000  Uiso   1.00
C793   C     0.14033   0.61333   0.21451   0.00000  Uiso   1.00
C794   C     0.41206   0.61495   0.74642   0.00000  Uiso   1.00
C795   C     0.23942   0.53124   0.58153   0.00000  Uiso   1.00
C796   C     0.08794   0.88504   0.25358   0.00000  Uiso   1.00
C797   C     0.36496   0.66206   0.75358   0.00000  Uiso   1.00
C798   C     0.13505   0.83794   0.24642   0.00000  Uiso   1.00
C799   C     0.36333   0.89033   0.71451   0.00000  Uiso   1.00
C800   C     0.13667   0.60967   0.28549   0.00000  Uiso   1.00
C801   C     0.13505   0.83794   0.75358   0.00000  Uiso   1.00
C802   C     0.36496   0.66206   0.24642   0.00000  Uiso   1.00
C803   C     0.13667   0.60967   0.71451   0.00000  Uiso   1.00
C804   C     0.36333   0.89033   0.28549   0.00000  Uiso   1.00
C805   C     0.39033   0.86333   0.28549   0.00000  Uiso   1.00
C806   C     0.21876   0.51058   0.91847   0.00000  Uiso   1.00
C807   C     0.10967   0.63667   0.71451   0.00000  Uiso   1.00
C808   C     0.33794   0.63504   0.24642   0.00000  Uiso   1.00
C809   C     0.16206   0.86495   0.75358   0.00000  Uiso   1.00
C810   C     0.10967   0.63667   0.28549   0.00000  Uiso   1.00
C811   C     0.39033   0.86333   0.71451   0.00000  Uiso   1.00
C812   C     0.16206   0.86495   0.24642   0.00000  Uiso   1.00
C813   C     0.33794   0.63504   0.75358   0.00000  Uiso   1.00
C814   C     0.03177   0.73902   0.45914   0.00000  Uiso   1.00
C815   C     0.46823   0.76098   0.54086   0.00000  Uiso   1.00
C816   C     0.26098   0.96823   0.45914   0.00000  Uiso   1.00
H817   H     0.44497   0.76889   0.40206   0.00000  Uiso   1.00
H818   H     0.30503   0.98111   0.09794   0.00000  Uiso   1.00
H819   H     0.48111   0.80503   0.90206   0.00000  Uiso   1.00
H820   H     0.01889   0.69497   0.09794   0.00000  Uiso   1.00
H821   H     0.30503   0.98111   0.90206   0.00000  Uiso   1.00
H822   H     0.19497   0.51889   0.09794   0.00000  Uiso   1.00
H823   H     0.01889   0.69497   0.90206   0.00000  Uiso   1.00
H824   H     0.48111   0.80503   0.09794   0.00000  Uiso   1.00
H825   H     0.05503   0.73111   0.59794   0.00000  Uiso   1.00
H826   H     0.23112   0.55503   0.40206   0.00000  Uiso   1.00
H827   H     0.26888   0.94497   0.59794   0.00000  Uiso   1.00
H828   H     0.05503   0.73111   0.40206   0.00000  Uiso   1.00
H829   H     0.44497   0.76889   0.59794   0.00000  Uiso   1.00
H830   H     0.26888   0.94497   0.40206   0.00000  Uiso   1.00
H831   H     0.23112   0.55503   0.59794   0.00000  Uiso   1.00
H832   H     0.19497   0.51889   0.90206   0.00000  Uiso   1.00
N833   N     0.12177   0.70674   0.44256   0.00000  Uiso   1.00
N834   N     0.12823   0.54326   0.05745   0.00000  Uiso   1.00
N835   N     0.04326   0.62823   0.94256   0.00000  Uiso   1.00
N836   N     0.45674   0.87177   0.05745   0.00000  Uiso   1.00
N837   N     0.12823   0.54326   0.94256   0.00000  Uiso   1.00
N838   N     0.37177   0.95674   0.05745   0.00000  Uiso   1.00
N839   N     0.45674   0.87177   0.94256   0.00000  Uiso   1.00
N840   N     0.04326   0.62823   0.05745   0.00000  Uiso   1.00
N841   N     0.09665   0.98038   0.26265   0.00000  Uiso   1.00
N842   N     0.40335   0.51962   0.73735   0.00000  Uiso   1.00
N843   N     0.09336   0.67026   0.14911   0.00000  Uiso   1.00
N844   N     0.37823   0.79326   0.55745   0.00000  Uiso   1.00
N845   N     0.40664   0.82974   0.85090   0.00000  Uiso   1.00
N846   N     0.40335   0.51962   0.26265   0.00000  Uiso   1.00
N847   N     0.09665   0.98038   0.73735   0.00000  Uiso   1.00
N848   N     0.40664   0.82974   0.14911   0.00000  Uiso   1.00
N849   N     0.09336   0.67026   0.85090   0.00000  Uiso   1.00
N850   N     0.17026   0.59336   0.85090   0.00000  Uiso   1.00
N851   N     0.32974   0.90664   0.14911   0.00000  Uiso   1.00
N852   N     0.01962   0.90335   0.73735   0.00000  Uiso   1.00
N853   N     0.48038   0.59665   0.26265   0.00000  Uiso   1.00
N854   N     0.32974   0.90664   0.85090   0.00000  Uiso   1.00
N855   N     0.29326   0.87822   0.44256   0.00000  Uiso   1.00
N856   N     0.17026   0.59336   0.14911   0.00000  Uiso   1.00
N857   N     0.48038   0.59665   0.73735   0.00000  Uiso   1.00
N858   N     0.01962   0.90335   0.26265   0.00000  Uiso   1.00
N859   N     0.34665   0.73038   0.76265   0.00000  Uiso   1.00
N860   N     0.15335   0.76962   0.23735   0.00000  Uiso   1.00
N861   N     0.34336   0.92026   0.64911   0.00000  Uiso   1.00
N862   N     0.15664   0.57974   0.35090   0.00000  Uiso   1.00
N863   N     0.15335   0.76962   0.76265   0.00000  Uiso   1.00
N864   N     0.34665   0.73038   0.23735   0.00000  Uiso   1.00
N865   N     0.15664   0.57974   0.64911   0.00000  Uiso   1.00
N866   N     0.20674   0.62177   0.55745   0.00000  Uiso   1.00
N867   N     0.34336   0.92026   0.35090   0.00000  Uiso   1.00
N868   N     0.42026   0.84336   0.35090   0.00000  Uiso   1.00
N869   N     0.07974   0.65664   0.64911   0.00000  Uiso   1.00
N870   N     0.26962   0.65335   0.23735   0.00000  Uiso   1.00
N871   N     0.23038   0.84665   0.76265   0.00000  Uiso   1.00
N872   N     0.07974   0.65664   0.35090   0.00000  Uiso   1.00
N873   N     0.42026   0.84336   0.64911   0.00000  Uiso   1.00
N874   N     0.23038   0.84665   0.23735   0.00000  Uiso   1.00
N875   N     0.26962   0.65335   0.76265   0.00000  Uiso   1.00
N876   N     0.37823   0.79326   0.44256   0.00000  Uiso   1.00
N877   N     0.12177   0.70674   0.55745   0.00000  Uiso   1.00
N878   N     0.20674   0.62177   0.44256   0.00000  Uiso   1.00
N879   N     0.29326   0.87822   0.55745   0.00000  Uiso   1.00
N880   N     0.37177   0.95674   0.94256   0.00000  Uiso   1.00
O881   O     0.25000   0.50000   0.25000   0.00000  Uiso   1.00
O882   O     0.25000   0.96963   0.66245   0.00000  Uiso   1.00
O883   O     0.46964   0.75000   0.33755   0.00000  Uiso   1.00
O884   O     0.03037   0.75000   0.66245   0.00000  Uiso   1.00
O885   O     0.00000   0.71963   0.83755   0.00000  Uiso   1.00
O886   O     0.00000   0.78036   0.16245   0.00000  Uiso   1.00
O887   O     0.28037   0.50000   0.83755   0.00000  Uiso   1.00
O888   O     0.21964   0.50000   0.16245   0.00000  Uiso   1.00
O889   O     0.00000   0.78036   0.83755   0.00000  Uiso   1.00
O890   O     0.00000   0.71963   0.16245   0.00000  Uiso   1.00
O891   O     0.21964   0.50000   0.83755   0.00000  Uiso   1.00
O892   O     0.25000   0.50000   0.75000   0.00000  Uiso   1.00
O893   O     0.28037   0.50000   0.16245   0.00000  Uiso   1.00
O894   O     0.20725   0.57307   0.27302   0.00000  Uiso   1.00
O895   O     0.29276   0.92692   0.72698   0.00000  Uiso   1.00
O896   O     0.42693   0.70724   0.27302   0.00000  Uiso   1.00
O897   O     0.07308   0.79275   0.72698   0.00000  Uiso   1.00
O898   O     0.29276   0.92692   0.27302   0.00000  Uiso   1.00
O899   O     0.20725   0.57307   0.72698   0.00000  Uiso   1.00
O900   O     0.07308   0.79275   0.27302   0.00000  Uiso   1.00
O901   O     0.42693   0.70724   0.72698   0.00000  Uiso   1.00
O902   O     0.20725   0.92692   0.72698   0.00000  Uiso   1.00
O903   O     0.00000   0.75000   0.25000   0.00000  Uiso   1.00
O904   O     0.29276   0.57307   0.27302   0.00000  Uiso   1.00
O905   O     0.42693   0.79275   0.72698   0.00000  Uiso   1.00
O906   O     0.07308   0.70724   0.27302   0.00000  Uiso   1.00
O907   O     0.29276   0.57307   0.72698   0.00000  Uiso   1.00
O908   O     0.20725   0.92692   0.27302   0.00000  Uiso   1.00
O909   O     0.07308   0.70724   0.72698   0.00000  Uiso   1.00
O910   O     0.42693   0.79275   0.27302   0.00000  Uiso   1.00
O911   O     0.45725   0.82307   0.77302   0.00000  Uiso   1.00
O912   O     0.04276   0.67692   0.22698   0.00000  Uiso   1.00
O913   O     0.17693   0.95724   0.77302   0.00000  Uiso   1.00
O914   O     0.00000   0.75000   0.75000   0.00000  Uiso   1.00
O915   O     0.32308   0.54275   0.22698   0.00000  Uiso   1.00
O916   O     0.04276   0.67692   0.77302   0.00000  Uiso   1.00
O917   O     0.45725   0.82307   0.22698   0.00000  Uiso   1.00
O918   O     0.32308   0.54275   0.77302   0.00000  Uiso   1.00
O919   O     0.17693   0.95724   0.22698   0.00000  Uiso   1.00
O920   O     0.45725   0.67692   0.22698   0.00000  Uiso   1.00
O921   O     0.04276   0.82307   0.77302   0.00000  Uiso   1.00
O922   O     0.17693   0.54275   0.22698   0.00000  Uiso   1.00
O923   O     0.32308   0.95724   0.77302   0.00000  Uiso   1.00
O924   O     0.04276   0.82307   0.22698   0.00000  Uiso   1.00
O925   O     0.25000   0.96963   0.33755   0.00000  Uiso   1.00
O926   O     0.45725   0.67692   0.77302   0.00000  Uiso   1.00
O927   O     0.32308   0.95724   0.22698   0.00000  Uiso   1.00
O928   O     0.17693   0.54275   0.77302   0.00000  Uiso   1.00
O929   O     0.25000   0.53036   0.66245   0.00000  Uiso   1.00
O930   O     0.03037   0.75000   0.33755   0.00000  Uiso   1.00
O931   O     0.46964   0.75000   0.66245   0.00000  Uiso   1.00
O932   O     0.25000   0.53036   0.33755   0.00000  Uiso   1.00
Zn933  Zn    0.20660   0.50000   0.21735   0.00000  Uiso   1.00
Zn934  Zn    0.04341   0.75000   0.28265   0.00000  Uiso   1.00
Zn935  Zn    0.25000   0.95659   0.71735   0.00000  Uiso   1.00
Zn936  Zn    0.25000   0.54340   0.28265   0.00000  Uiso   1.00
Zn937  Zn    0.04341   0.75000   0.71735   0.00000  Uiso   1.00
Zn938  Zn    0.45660   0.75000   0.28265   0.00000  Uiso   1.00
Zn939  Zn    0.25000   0.54340   0.71735   0.00000  Uiso   1.00
Zn940  Zn    0.25000   0.95659   0.28265   0.00000  Uiso   1.00
Zn941  Zn    0.29341   0.50000   0.78265   0.00000  Uiso   1.00
Zn942  Zn    0.00000   0.70659   0.21735   0.00000  Uiso   1.00
Zn943  Zn    0.00000   0.79340   0.78265   0.00000  Uiso   1.00
Zn944  Zn    0.29341   0.50000   0.21735   0.00000  Uiso   1.00
Zn945  Zn    0.20660   0.50000   0.78265   0.00000  Uiso   1.00
Zn946  Zn    0.00000   0.79340   0.21735   0.00000  Uiso   1.00
Zn947  Zn    0.00000   0.70659   0.78265   0.00000  Uiso   1.00
Zn948  Zn    0.45660   0.75000   0.71735   0.00000  Uiso   1.00
C949   C     0.96876   0.76058   0.41847   0.00000  Uiso   1.00
C950   C     0.78124   0.98942   0.08153   0.00000  Uiso   1.00
C951   C     0.73902   0.53177   0.54086   0.00000  Uiso   1.00
C952   C     0.96823   0.76098   0.45914   0.00000  Uiso   1.00
C953   C     0.53177   0.73902   0.54086   0.00000  Uiso   1.00
C954   C     0.73902   0.53177   0.45914   0.00000  Uiso   1.00
C955   C     0.76098   0.96823   0.54086   0.00000  Uiso   1.00
C956   C     0.78177   0.98902   0.95914   0.00000  Uiso   1.00
C957   C     0.71823   0.51098   0.04086   0.00000  Uiso   1.00
C958   C     0.51098   0.71823   0.95914   0.00000  Uiso   1.00
C959   C     0.98902   0.78177   0.04086   0.00000  Uiso   1.00
C960   C     0.71823   0.51098   0.95914   0.00000  Uiso   1.00
C961   C     0.98942   0.78124   0.91847   0.00000  Uiso   1.00
C962   C     0.78177   0.98902   0.04086   0.00000  Uiso   1.00
C963   C     0.98902   0.78177   0.95914   0.00000  Uiso   1.00
C964   C     0.51098   0.71823   0.04086   0.00000  Uiso   1.00
C965   C     0.59807   0.84807   0.25000   0.00000  Uiso   1.00
C966   C     0.90193   0.65193   0.75000   0.00000  Uiso   1.00
C967   C     0.65193   0.59807   0.25000   0.00000  Uiso   1.00
C968   C     0.84807   0.90193   0.75000   0.00000  Uiso   1.00
C969   C     0.90193   0.65193   0.25000   0.00000  Uiso   1.00
C970   C     0.59807   0.84807   0.75000   0.00000  Uiso   1.00
C971   C     0.84807   0.90193   0.25000   0.00000  Uiso   1.00
C972   C     0.51058   0.71876   0.08153   0.00000  Uiso   1.00
C973   C     0.65193   0.59807   0.75000   0.00000  Uiso   1.00
C974   C     0.59807   0.65193   0.75000   0.00000  Uiso   1.00
C975   C     0.90193   0.84807   0.25000   0.00000  Uiso   1.00
C976   C     0.65193   0.90193   0.75000   0.00000  Uiso   1.00
C977   C     0.84807   0.59807   0.25000   0.00000  Uiso   1.00
C978   C     0.90193   0.84807   0.75000   0.00000  Uiso   1.00
C979   C     0.59807   0.65193   0.25000   0.00000  Uiso   1.00
C980   C     0.84807   0.59807   0.75000   0.00000  Uiso   1.00
C981   C     0.65193   0.90193   0.25000   0.00000  Uiso   1.00
C982   C     0.50000   0.75000   0.47960   0.00000  Uiso   1.00
C983   C     0.78124   0.98942   0.91847   0.00000  Uiso   1.00
C984   C     0.50000   0.75000   0.52040   0.00000  Uiso   1.00
C985   C     0.75000   0.50000   0.47960   0.00000  Uiso   1.00
C986   C     0.75000   0.50000   0.52040   0.00000  Uiso   1.00
C987   C     0.75000   0.50000   0.97960   0.00000  Uiso   1.00
C988   C     0.75000   0.50000   0.02040   0.00000  Uiso   1.00
C989   C     0.50000   0.75000   0.97960   0.00000  Uiso   1.00
C990   C     0.50000   0.75000   0.02040   0.00000  Uiso   1.00
C991   C     0.59585   0.71609   0.45897   0.00000  Uiso   1.00
C992   C     0.90415   0.78391   0.54103   0.00000  Uiso   1.00
C993   C     0.78390   0.90415   0.45897   0.00000  Uiso   1.00
C994   C     0.71876   0.51058   0.08153   0.00000  Uiso   1.00
C995   C     0.71610   0.59585   0.54103   0.00000  Uiso   1.00
C996   C     0.90415   0.78391   0.45897   0.00000  Uiso   1.00
C997   C     0.59585   0.71609   0.54103   0.00000  Uiso   1.00
C998   C     0.71610   0.59585   0.45897   0.00000  Uiso   1.00
C999   C     0.78390   0.90415   0.54103   0.00000  Uiso   1.00
C1000  C     0.84585   0.96609   0.95897   0.00000  Uiso   1.00
C1001  C     0.65415   0.53391   0.04103   0.00000  Uiso   1.00
C1002  C     0.53391   0.65415   0.95897   0.00000  Uiso   1.00
C1003  C     0.96610   0.84585   0.04103   0.00000  Uiso   1.00
C1004  C     0.65415   0.53391   0.95897   0.00000  Uiso   1.00
C1005  C     0.51058   0.71876   0.91847   0.00000  Uiso   1.00
C1006  C     0.84585   0.96609   0.04103   0.00000  Uiso   1.00
C1007  C     0.96609   0.84585   0.95897   0.00000  Uiso   1.00
C1008  C     0.53391   0.65415   0.04103   0.00000  Uiso   1.00
C1009  C     0.60476   0.95009   0.25863   0.00000  Uiso   1.00
C1010  C     0.89524   0.54991   0.74137   0.00000  Uiso   1.00
C1011  C     0.60222   0.65699   0.17810   0.00000  Uiso   1.00
C1012  C     0.89778   0.84300   0.82190   0.00000  Uiso   1.00
C1013  C     0.89524   0.54991   0.25863   0.00000  Uiso   1.00
C1014  C     0.60476   0.95009   0.74137   0.00000  Uiso   1.00
C1015  C     0.89778   0.84300   0.17810   0.00000  Uiso   1.00
C1016  C     0.98942   0.78124   0.08153   0.00000  Uiso   1.00
C1017  C     0.60222   0.65699   0.82190   0.00000  Uiso   1.00
C1018  C     0.65700   0.60222   0.82190   0.00000  Uiso   1.00
C1019  C     0.84301   0.89778   0.17810   0.00000  Uiso   1.00
C1020  C     0.54991   0.89524   0.74137   0.00000  Uiso   1.00
C1021  C     0.95009   0.60476   0.25863   0.00000  Uiso   1.00
C1022  C     0.84301   0.89778   0.82190   0.00000  Uiso   1.00
C1023  C     0.65700   0.60222   0.17810   0.00000  Uiso   1.00
C1024  C     0.95009   0.60476   0.74137   0.00000  Uiso   1.00
C1025  C     0.54991   0.89524   0.25863   0.00000  Uiso   1.00
C1026  C     0.85476   0.70009   0.75863   0.00000  Uiso   1.00
C1027  C     0.50000   0.75000   0.39831   0.00000  Uiso   1.00
C1028  C     0.64524   0.79991   0.24137   0.00000  Uiso   1.00
C1029  C     0.85222   0.90699   0.67810   0.00000  Uiso   1.00
C1030  C     0.64778   0.59300   0.32190   0.00000  Uiso   1.00
C1031  C     0.64524   0.79991   0.75863   0.00000  Uiso   1.00
C1032  C     0.85476   0.70009   0.24137   0.00000  Uiso   1.00
C1033  C     0.64778   0.59300   0.67810   0.00000  Uiso   1.00
C1034  C     0.85222   0.90699   0.32190   0.00000  Uiso   1.00
C1035  C     0.90700   0.85222   0.32190   0.00000  Uiso   1.00
C1036  C     0.59300   0.64778   0.67810   0.00000  Uiso   1.00
C1037  C     0.79991   0.64524   0.24137   0.00000  Uiso   1.00
C1038  C     0.50000   0.75000   0.60169   0.00000  Uiso   1.00
C1039  C     0.70009   0.85476   0.75863   0.00000  Uiso   1.00
C1040  C     0.59301   0.64778   0.32190   0.00000  Uiso   1.00
C1041  C     0.90700   0.85222   0.67810   0.00000  Uiso   1.00
C1042  C     0.70009   0.85476   0.24137   0.00000  Uiso   1.00
C1043  C     0.79991   0.64524   0.75863   0.00000  Uiso   1.00
C1044  C     0.75000   0.50000   0.39831   0.00000  Uiso   1.00
C1045  C     0.53124   0.73942   0.58153   0.00000  Uiso   1.00
C1046  C     0.75000   0.50000   0.60169   0.00000  Uiso   1.00
C1047  C     0.75000   0.50000   0.89831   0.00000  Uiso   1.00
C1048  C     0.75000   0.50000   0.10169   0.00000  Uiso   1.00
C1049  C     0.50000   0.75000   0.89831   0.00000  Uiso   1.00
C1050  C     0.50000   0.75000   0.10169   0.00000  Uiso   1.00
C1051  C     0.56329   0.72782   0.47961   0.00000  Uiso   1.00
C1052  C     0.93671   0.77218   0.52040   0.00000  Uiso   1.00
C1053  C     0.77218   0.93670   0.47961   0.00000  Uiso   1.00
C1054  C     0.72782   0.56329   0.52040   0.00000  Uiso   1.00
C1055  C     0.93671   0.77218   0.47961   0.00000  Uiso   1.00
C1056  C     0.73942   0.53124   0.41847   0.00000  Uiso   1.00
C1057  C     0.56329   0.72782   0.52040   0.00000  Uiso   1.00
C1058  C     0.72782   0.56329   0.47961   0.00000  Uiso   1.00
C1059  C     0.77218   0.93670   0.52040   0.00000  Uiso   1.00
C1060  C     0.81329   0.97782   0.97961   0.00000  Uiso   1.00
C1061  C     0.68671   0.52218   0.02040   0.00000  Uiso   1.00
C1062  C     0.52218   0.68671   0.97961   0.00000  Uiso   1.00
C1063  C     0.97782   0.81329   0.02040   0.00000  Uiso   1.00
C1064  C     0.68671   0.52218   0.97961   0.00000  Uiso   1.00
C1065  C     0.81329   0.97782   0.02040   0.00000  Uiso   1.00
C1066  C     0.97782   0.81329   0.97961   0.00000  Uiso   1.00
C1067  C     0.76058   0.96876   0.58153   0.00000  Uiso   1.00
C1068  C     0.52218   0.68671   0.02040   0.00000  Uiso   1.00
C1069  C     0.75000   0.50000   0.35593   0.00000  Uiso   1.00
C1070  C     0.75000   0.50000   0.64407   0.00000  Uiso   1.00
C1071  C     0.50000   0.75000   0.35593   0.00000  Uiso   1.00
C1072  C     0.50000   0.75000   0.64407   0.00000  Uiso   1.00
C1073  C     0.50000   0.75000   0.85593   0.00000  Uiso   1.00
C1074  C     0.50000   0.75000   0.14407   0.00000  Uiso   1.00
C1075  C     0.75000   0.50000   0.85593   0.00000  Uiso   1.00
C1076  C     0.75000   0.50000   0.14407   0.00000  Uiso   1.00
C1077  C     0.68004   0.56996   0.25000   0.00000  Uiso   1.00
C1078  C     0.53124   0.73942   0.41847   0.00000  Uiso   1.00
C1079  C     0.81996   0.93004   0.75000   0.00000  Uiso   1.00
C1080  C     0.93004   0.68004   0.25000   0.00000  Uiso   1.00
C1081  C     0.56996   0.81996   0.75000   0.00000  Uiso   1.00
C1082  C     0.81996   0.93004   0.25000   0.00000  Uiso   1.00
C1083  C     0.68004   0.56996   0.75000   0.00000  Uiso   1.00
C1084  C     0.56996   0.81996   0.25000   0.00000  Uiso   1.00
C1085  C     0.93004   0.68004   0.75000   0.00000  Uiso   1.00
C1086  C     0.68004   0.93004   0.75000   0.00000  Uiso   1.00
C1087  C     0.81996   0.56996   0.25000   0.00000  Uiso   1.00
C1088  C     0.93004   0.81996   0.75000   0.00000  Uiso   1.00
C1089  C     0.96876   0.76058   0.58153   0.00000  Uiso   1.00
C1090  C     0.56996   0.68004   0.25000   0.00000  Uiso   1.00
C1091  C     0.81996   0.56996   0.75000   0.00000  Uiso   1.00
C1092  C     0.68004   0.93004   0.25000   0.00000  Uiso   1.00
C1093  C     0.56996   0.68004   0.75000   0.00000  Uiso   1.00
C1094  C     0.93004   0.81996   0.25000   0.00000  Uiso   1.00
C1095  C     0.61496   0.91206   0.25358   0.00000  Uiso   1.00
C1096  C     0.88505   0.58794   0.74642   0.00000  Uiso   1.00
C1097  C     0.61333   0.64033   0.21451   0.00000  Uiso   1.00
C1098  C     0.88667   0.85967   0.78549   0.00000  Uiso   1.00
C1099  C     0.88505   0.58794   0.25358   0.00000  Uiso   1.00
C1100  C     0.76058   0.96876   0.41847   0.00000  Uiso   1.00
C1101  C     0.61496   0.91206   0.74642   0.00000  Uiso   1.00
C1102  C     0.88667   0.85967   0.21451   0.00000  Uiso   1.00
C1103  C     0.61333   0.64033   0.78549   0.00000  Uiso   1.00
C1104  C     0.64033   0.61333   0.78549   0.00000  Uiso   1.00
C1105  C     0.85967   0.88667   0.21451   0.00000  Uiso   1.00
C1106  C     0.58794   0.88504   0.74642   0.00000  Uiso   1.00
C1107  C     0.91206   0.61495   0.25358   0.00000  Uiso   1.00
C1108  C     0.85967   0.88667   0.78549   0.00000  Uiso   1.00
C1109  C     0.64033   0.61333   0.21451   0.00000  Uiso   1.00
C1110  C     0.91206   0.61495   0.74642   0.00000  Uiso   1.00
C1111  C     0.73942   0.53124   0.58153   0.00000  Uiso   1.00
C1112  C     0.58794   0.88504   0.25358   0.00000  Uiso   1.00
C1113  C     0.86496   0.66206   0.75358   0.00000  Uiso   1.00
C1114  C     0.63505   0.83794   0.24642   0.00000  Uiso   1.00
C1115  C     0.86333   0.89033   0.71451   0.00000  Uiso   1.00
C1116  C     0.63667   0.60967   0.28549   0.00000  Uiso   1.00
C1117  C     0.63505   0.83794   0.75358   0.00000  Uiso   1.00
C1118  C     0.86496   0.66206   0.24642   0.00000  Uiso   1.00
C1119  C     0.63667   0.60967   0.71451   0.00000  Uiso   1.00
C1120  C     0.86333   0.89033   0.28549   0.00000  Uiso   1.00
C1121  C     0.89033   0.86333   0.28549   0.00000  Uiso   1.00
C1122  C     0.71876   0.51058   0.91847   0.00000  Uiso   1.00
C1123  C     0.60967   0.63667   0.71451   0.00000  Uiso   1.00
C1124  C     0.83794   0.63504   0.24642   0.00000  Uiso   1.00
C1125  C     0.66206   0.86495   0.75358   0.00000  Uiso   1.00
C1126  C     0.60967   0.63667   0.28549   0.00000  Uiso   1.00
C1127  C     0.89033   0.86333   0.71451   0.00000  Uiso   1.00
C1128  C     0.66206   0.86495   0.24642   0.00000  Uiso   1.00
C1129  C     0.83794   0.63504   0.75358   0.00000  Uiso   1.00
C1130  C     0.53177   0.73902   0.45914   0.00000  Uiso   1.00
C1131  C     0.96823   0.76098   0.54086   0.00000  Uiso   1.00
C1132  C     0.76098   0.96823   0.45914   0.00000  Uiso   1.00
H1133  H     0.94497   0.76889   0.40206   0.00000  Uiso   1.00
H1134  H     0.80503   0.98111   0.09794   0.00000  Uiso   1.00
H1135  H     0.98111   0.80503   0.90206   0.00000  Uiso   1.00
H1136  H     0.51889   0.69497   0.09794   0.00000  Uiso   1.00
H1137  H     0.80503   0.98111   0.90206   0.00000  Uiso   1.00
H1138  H     0.69497   0.51889   0.09794   0.00000  Uiso   1.00
H1139  H     0.51889   0.69497   0.90206   0.00000  Uiso   1.00
H1140  H     0.98111   0.80503   0.09794   0.00000  Uiso   1.00
H1141  H     0.55503   0.73111   0.59794   0.00000  Uiso   1.00
H1142  H     0.73112   0.55503   0.40206   0.00000  Uiso   1.00
H1143  H     0.76888   0.94497   0.59794   0.00000  Uiso   1.00
H1144  H     0.55503   0.73111   0.40206   0.00000  Uiso   1.00
H1145  H     0.94497   0.76889   0.59794   0.00000  Uiso   1.00
H1146  H     0.76888   0.94497   0.40206   0.00000  Uiso   1.00
H1147  H     0.73112   0.55503   0.59794   0.00000  Uiso   1.00
H1148  H     0.69497   0.51889   0.90206   0.00000  Uiso   1.00
N1149  N     0.62177   0.70674   0.44256   0.00000  Uiso   1.00
N1150  N     0.62823   0.54326   0.05745   0.00000  Uiso   1.00
N1151  N     0.54326   0.62823   0.94256   0.00000  Uiso   1.00
N1152  N     0.95674   0.87177   0.05745   0.00000  Uiso   1.00
N1153  N     0.62823   0.54326   0.94256   0.00000  Uiso   1.00
N1154  N     0.87177   0.95674   0.05745   0.00000  Uiso   1.00
N1155  N     0.95674   0.87177   0.94256   0.00000  Uiso   1.00
N1156  N     0.54326   0.62823   0.05745   0.00000  Uiso   1.00
N1157  N     0.59665   0.98038   0.26265   0.00000  Uiso   1.00
N1158  N     0.90335   0.51962   0.73735   0.00000  Uiso   1.00
N1159  N     0.59336   0.67026   0.14911   0.00000  Uiso   1.00
N1160  N     0.87823   0.79326   0.55745   0.00000  Uiso   1.00
N1161  N     0.90664   0.82974   0.85090   0.00000  Uiso   1.00
N1162  N     0.90335   0.51962   0.26265   0.00000  Uiso   1.00
N1163  N     0.59665   0.98038   0.73735   0.00000  Uiso   1.00
N1164  N     0.90664   0.82974   0.14911   0.00000  Uiso   1.00
N1165  N     0.59336   0.67026   0.85090   0.00000  Uiso   1.00
N1166  N     0.67026   0.59336   0.85090   0.00000  Uiso   1.00
N1167  N     0.82974   0.90664   0.14911   0.00000  Uiso   1.00
N1168  N     0.51962   0.90335   0.73735   0.00000  Uiso   1.00
N1169  N     0.98038   0.59665   0.26265   0.00000  Uiso   1.00
N1170  N     0.82974   0.90664   0.85090   0.00000  Uiso   1.00
N1171  N     0.79326   0.87822   0.44256   0.00000  Uiso   1.00
N1172  N     0.67026   0.59336   0.14911   0.00000  Uiso   1.00
N1173  N     0.98038   0.59665   0.73735   0.00000  Uiso   1.00
N1174  N     0.51962   0.90335   0.26265   0.00000  Uiso   1.00
N1175  N     0.84665   0.73038   0.76265   0.00000  Uiso   1.00
N1176  N     0.65335   0.76962   0.23735   0.00000  Uiso   1.00
N1177  N     0.84336   0.92026   0.64911   0.00000  Uiso   1.00
N1178  N     0.65664   0.57974   0.35090   0.00000  Uiso   1.00
N1179  N     0.65335   0.76962   0.76265   0.00000  Uiso   1.00
N1180  N     0.84665   0.73038   0.23735   0.00000  Uiso   1.00
N1181  N     0.65664   0.57974   0.64911   0.00000  Uiso   1.00
N1182  N     0.70674   0.62177   0.55745   0.00000  Uiso   1.00
N1183  N     0.84336   0.92026   0.35090   0.00000  Uiso   1.00
N1184  N     0.92026   0.84336   0.35090   0.00000  Uiso   1.00
N1185  N     0.57974   0.65664   0.64911   0.00000  Uiso   1.00
N1186  N     0.76962   0.65335   0.23735   0.00000  Uiso   1.00
N1187  N     0.73038   0.84665   0.76265   0.00000  Uiso   1.00
N1188  N     0.57974   0.65664   0.35090   0.00000  Uiso   1.00
N1189  N     0.92026   0.84336   0.64911   0.00000  Uiso   1.00
N1190  N     0.73038   0.84665   0.23735   0.00000  Uiso   1.00
N1191  N     0.76962   0.65335   0.76265   0.00000  Uiso   1.00
N1192  N     0.87823   0.79326   0.44256   0.00000  Uiso   1.00
N1193  N     0.62177   0.70674   0.55745   0.00000  Uiso   1.00
N1194  N     0.70674   0.62177   0.44256   0.00000  Uiso   1.00
N1195  N     0.79326   0.87822   0.55745   0.00000  Uiso   1.00
N1196  N     0.87177   0.95674   0.94256   0.00000  Uiso   1.00
O1197  O     0.75000   0.50000   0.25000   0.00000  Uiso   1.00
O1198  O     0.75000   0.96963   0.66245   0.00000  Uiso   1.00
O1199  O     0.96964   0.75000   0.33755   0.00000  Uiso   1.00
O1200  O     0.53037   0.75000   0.66245   0.00000  Uiso   1.00
O1201  O     0.50000   0.71963   0.83755   0.00000  Uiso   1.00
O1202  O     0.50000   0.78036   0.16245   0.00000  Uiso   1.00
O1203  O     0.78037   0.50000   0.83755   0.00000  Uiso   1.00
O1204  O     0.71964   0.50000   0.16245   0.00000  Uiso   1.00
O1205  O     0.50000   0.78036   0.83755   0.00000  Uiso   1.00
O1206  O     0.50000   0.71963   0.16245   0.00000  Uiso   1.00
O1207  O     0.71964   0.50000   0.83755   0.00000  Uiso   1.00
O1208  O     0.75000   0.50000   0.75000   0.00000  Uiso   1.00
O1209  O     0.78037   0.50000   0.16245   0.00000  Uiso   1.00
O1210  O     0.70725   0.57307   0.27302   0.00000  Uiso   1.00
O1211  O     0.79276   0.92692   0.72698   0.00000  Uiso   1.00
O1212  O     0.92693   0.70724   0.27302   0.00000  Uiso   1.00
O1213  O     0.57308   0.79275   0.72698   0.00000  Uiso   1.00
O1214  O     0.79276   0.92692   0.27302   0.00000  Uiso   1.00
O1215  O     0.70725   0.57307   0.72698   0.00000  Uiso   1.00
O1216  O     0.57308   0.79275   0.27302   0.00000  Uiso   1.00
O1217  O     0.92693   0.70724   0.72698   0.00000  Uiso   1.00
O1218  O     0.70725   0.92692   0.72698   0.00000  Uiso   1.00
O1219  O     0.50000   0.75000   0.25000   0.00000  Uiso   1.00
O1220  O     0.79276   0.57307   0.27302   0.00000  Uiso   1.00
O1221  O     0.92693   0.79275   0.72698   0.00000  Uiso   1.00
O1222  O     0.57308   0.70724   0.27302   0.00000  Uiso   1.00
O1223  O     0.79276   0.57307   0.72698   0.00000  Uiso   1.00
O1224  O     0.70725   0.92692   0.27302   0.00000  Uiso   1.00
O1225  O     0.57308   0.70724   0.72698   0.00000  Uiso   1.00
O1226  O     0.92693   0.79275   0.27302   0.00000  Uiso   1.00
O1227  O     0.95725   0.82307   0.77302   0.00000  Uiso   1.00
O1228  O     0.54276   0.67692   0.22698   0.00000  Uiso   1.00
O1229  O     0.67693   0.95724   0.77302   0.00000  Uiso   1.00
O1230  O     0.50000   0.75000   0.75000   0.00000  Uiso   1.00
O1231  O     0.82308   0.54275   0.22698   0.00000  Uiso   1.00
O1232  O     0.54276   0.67692   0.77302   0.00000  Uiso   1.00
O1233  O     0.95725   0.82307   0.22698   0.00000  Uiso   1.00
O1234  O     0.82308   0.54275   0.77302   0.00000  Uiso   1.00
O1235  O     0.67693   0.95724   0.22698   0.00000  Uiso   1.00
O1236  O     0.95725   0.67692   0.22698   0.00000  Uiso   1.00
O1237  O     0.54276   0.82307   0.77302   0.00000  Uiso   1.00
O1238  O     0.67693   0.54275   0.22698   0.00000  Uiso   1.00
O1239  O     0.82308   0.95724   0.77302   0.00000  Uiso   1.00
O1240  O     0.54276   0.82307   0.22698   0.00000  Uiso   1.00
O1241  O     0.75000   0.96963   0.33755   0.00000  Uiso   1.00
O1242  O     0.95725   0.67692   0.77302   0.00000  Uiso   1.00
O1243  O     0.82308   0.95724   0.22698   0.00000  Uiso   1.00
O1244  O     0.67693   0.54275   0.77302   0.00000  Uiso   1.00
O1245  O     0.75000   0.53036   0.66245   0.00000  Uiso   1.00
O1246  O     0.53037   0.75000   0.33755   0.00000  Uiso   1.00
O1247  O     0.96964   0.75000   0.66245   0.00000  Uiso   1.00
O1248  O     0.75000   0.53036   0.33755   0.00000  Uiso   1.00
Zn1249 Zn    0.70660   0.50000   0.21735   0.00000  Uiso   1.00
Zn1250 Zn    0.54341   0.75000   0.28265   0.00000  Uiso   1.00
Zn1251 Zn    0.75000   0.95659   0.71735   0.00000  Uiso   1.00
Zn1252 Zn    0.75000   0.54340   0.28265   0.00000  Uiso   1.00
Zn1253 Zn    0.54341   0.75000   0.71735   0.00000  Uiso   1.00
Zn1254 Zn    0.95660   0.75000   0.28265   0.00000  Uiso   1.00
Zn1255 Zn    0.75000   0.54340   0.71735   0.00000  Uiso   1.00
Zn1256 Zn    0.75000   0.95659   0.28265   0.00000  Uiso   1.00
Zn1257 Zn    0.79341   0.50000   0.78265   0.00000  Uiso   1.00
Zn1258 Zn    0.50000   0.70659   0.21735   0.00000  Uiso   1.00
Zn1259 Zn    0.50000   0.79340   0.78265   0.00000  Uiso   1.00
Zn1260 Zn    0.79341   0.50000   0.21735   0.00000  Uiso   1.00
Zn1261 Zn    0.70660   0.50000   0.78265   0.00000  Uiso   1.00
Zn1262 Zn    0.50000   0.79340   0.21735   0.00000  Uiso   1.00
Zn1263 Zn    0.50000   0.70659   0.78265   0.00000  Uiso   1.00
Zn1264 Zn    0.95660   0.75000   0.71735   0.00000  Uiso   1.00
loop_
_geom_bond_atom_site_label_1
_geom_bond_atom_site_label_2
_geom_bond_distance
_geom_bond_site_symmetry_2
_ccdc_geom_bond_type
C1     C395    1.394   .     A
C1     H185    1.083   .     S
C1     C4      1.402   .     A
C2     C14     1.402   .     A
C2     H186    1.083   .     S
C2     C732    1.394   .     S
C3     C163    1.402   .     A
C3     C106    1.414   .     A
C3     C38     1.419   .     S
C4     C107    1.414   .     A
C4     C350    1.419   .     S
C5     C109    1.414   .     A
C5     C97     1.402   .     A
C5     C36     1.419   .     S
C6     C110    1.414   .     A
C6     C37     1.419   .     A
C6     C108    1.402   .     A
C7     C119    1.402   .     A
C7     C111    1.414   .     A
C7     C670    1.419   .     A
C8     C35     1.402   .     A
C8     C112    1.414   .     A
C8     C671    1.419   .     S
C9     C113    1.414   .     A
C9     C46     1.402   .     A
C9     C40     1.419   .     A
C10    C114    1.414   .     A
C10    C57     1.402   .     A
C10    C41     1.419   .     S
C11    C115    1.414   .     A
C11    C68     1.402   .     A
C11    C358    1.419   .     A
C12    C174    1.402   .     A
C12    C39     1.419   .     A
C12    C116    1.414   .     A
C13    H187    1.083   .     S
C13    C15     1.402   .     A
C13    C417    1.394   .     A
C14    C117    1.414   .     A
C14    C672    1.419   .     S
C15    C118    1.414   .     A
C15    C357    1.419   .     A
C16    C120    1.414   .     A
C16    C24     1.402   .     A
C16    C42     1.419   .     S
C17    C164    1.410   .     A
C17    C166    1.410   .     A
C17    C136    1.456   .     S
C18    C137    1.456   .     S
C18    C165    1.410   .     A
C18    C162    1.410   .     A
C19    C129    1.456   .     S
C19    C161    1.411   .     A
C19    C168    1.411   .     A
C20    C160    1.411   .     A
C20    C167    1.411   .     A
C20    C131    1.456   .     S
C21    C170    1.410   .     A
C21    C159    1.410   .     A
C21    C132    1.456   .     S
C22    C133    1.456   .     S
C22    C158    1.410   .     A
C22    C169    1.410   .     A
C23    C134    1.456   .     S
C23    C157    1.411   .     A
C23    C172    1.411   .     A
C24    H188    1.083   .     S
C24    C102    1.394   .     A
C25    C171    1.411   .     A
C25    C156    1.411   .     A
C25    C135    1.456   .     S
C26    C155    1.411   .     A
C26    C145    1.456   .     S
C26    C175    1.411   .     A
C27    C146    1.456   .     S
C27    C173    1.411   .     A
C27    C154    1.411   .     A
C28    C153    1.410   .     A
C28    C177    1.410   .     A
C28    C138    1.456   .     S
C29    C151    1.410   .     A
C29    C176    1.410   .     A
C29    C139    1.456   .     S
C30    C150    1.411   .     A
C30    C179    1.411   .     A
C30    C140    1.456   .     S
C31    C178    1.411   .     A
C31    C149    1.411   .     A
C31    C142    1.456   .     S
C32    C181    1.410   .     A
C32    C148    1.410   .     A
C32    C143    1.456   .     S
C33    C147    1.410   .     A
C33    C144    1.456   .     S
C33    C180    1.410   .     A
C34    C182    1.419   .     A
C34    C320    1.419   1_455 S
C34    C36     1.406   .     S
C35    H189    1.083   .     S
C35    C731    1.394   .     S
C36    C499    1.419   1_455 A
C37    C38     1.406   .     S
C37    C816    1.419   1_545 S
C38    C639    1.419   1_545 A
C39    C640    1.419   1_545 S
C39    C40     1.406   1_556 S
C40    C646    1.419   1_545 S
C40    C39     1.406   1_554 S
C41    C331    1.419   1_455 A
C41    C42     1.406   1_556 S
C42    C327    1.419   1_455 A
C42    C41     1.406   1_554 S
C43    N201    1.157   .     T
C43    C103    1.454   .     S
C44    C104    1.454   .     S
C44    N212    1.157   .     T
C45    C105    1.454   .     S
C45    N223    1.157   .     T
C46    H190    1.083   .     S
C46    C100    1.394   .     A
C47    C106    1.454   .     S
C47    N234    1.157   .     T
C48    C107    1.454   .     S
C48    N244    1.157   .     T
C49    N245    1.157   .     T
C49    C109    1.454   .     S
C50    C110    1.454   .     S
C50    N246    1.157   .     T
C51    N247    1.157   .     T
C51    C111    1.454   .     S
C52    C112    1.454   .     S
C52    N248    1.157   .     T
C53    C113    1.454   .     S
C53    N202    1.157   .     T
C54    N203    1.157   .     T
C54    C114    1.454   .     S
C55    C115    1.454   .     S
C55    N204    1.157   .     T
C56    N205    1.157   .     T
C56    C116    1.454   .     S
C57    H191    1.083   .     S
C57    C101    1.394   .     S
C58    C117    1.454   .     S
C58    N206    1.157   .     T
C59    C118    1.454   .     S
C59    N207    1.157   .     T
C60    N208    1.157   .     T
C60    C120    1.454   .     S
C61    N209    1.157   .     T
C61    C147    1.453   .     S
C62    C148    1.453   .     S
C62    N210    1.157   .     T
C63    N211    1.158   .     T
C63    C149    1.454   .     S
C64    N213    1.158   .     T
C64    C150    1.454   .     S
C65    C151    1.453   .     S
C65    N214    1.157   .     T
C66    N215    1.157   .     T
C66    C153    1.453   .     S
C67    C154    1.454   .     S
C67    N216    1.158   .     T
C68    H192    1.083   .     S
C68    C418    1.394   .     S
C69    N217    1.158   .     T
C69    C155    1.454   .     S
C70    N218    1.158   .     T
C70    C156    1.454   .     S
C71    C157    1.454   .     S
C71    N219    1.158   .     T
C72    N220    1.157   .     T
C72    C158    1.453   .     S
C73    C159    1.453   .     S
C73    N221    1.157   .     T
C74    C160    1.454   .     S
C74    N222    1.158   .     T
C75    N224    1.158   .     T
C75    C161    1.454   .     S
C76    N225    1.157   .     T
C76    C162    1.453   .     S
C77    N226    1.157   .     T
C77    C164    1.453   .     S
C78    C165    1.453   .     S
C78    N227    1.157   .     T
C79    C317    1.394   1_455 A
C79    C123    1.461   .     S
C79    C130    1.394   .     S
C80    C166    1.453   .     S
C80    N228    1.157   .     T
C81    N229    1.158   .     T
C81    C167    1.454   .     S
C82    C168    1.454   .     S
C82    N230    1.158   .     T
C83    C169    1.453   .     S
C83    N231    1.157   .     T
C84    N232    1.157   .     T
C84    C170    1.453   .     S
C85    N233    1.158   .     T
C85    C171    1.454   .     S
C86    C172    1.454   .     S
C86    N235    1.158   .     T
C87    C173    1.454   .     S
C87    N236    1.158   .     T
C88    C175    1.454   .     S
C88    N237    1.158   .     T
C89    N238    1.157   .     T
C89    C176    1.453   .     S
C90    C457    1.394   1_455 A
C90    C124    1.461   .     S
C90    C97     1.394   .     S
C91    C177    1.453   .     S
C91    N239    1.157   .     T
C92    N240    1.158   .     T
C92    C178    1.454   .     S
C93    N241    1.158   .     T
C93    C179    1.454   .     S
C94    N242    1.157   .     T
C94    C180    1.453   .     S
C95    C181    1.453   .     S
C95    N243    1.157   .     T
C96    C108    1.394   .     A
C96    C121    1.461   .     S
C96    C784    1.394   1_545 S
C97    H193    1.083   .     S
C98    C122    1.461   .     S
C98    C751    1.394   1_545 A
C98    C163    1.394   .     S
C99    C174    1.394   .     A
C99    C127    1.461   .     S
C99    C667    1.394   1_545 S
C100   C128    1.461   .     S
C100   C634    1.394   1_545 S
C101   C125    1.461   .     S
C101   C329    1.394   1_455 A
C102   C384    1.394   1_455 S
C102   C126    1.461   .     S
C103   C109    1.406   .     A
C103   C182    1.414   .     A
C104   C183    1.414   .     A
C104   C107    1.406   .     A
C105   C184    1.414   .     A
C105   C111    1.406   .     A
C106   C110    1.406   .     A
C108   H194    1.083   .     S
C112   C117    1.406   1_556 S
C113   C116    1.406   1_554 S
C114   C120    1.406   1_556 S
C115   C118    1.406   1_554 S
C116   C113    1.406   1_556 S
C117   C112    1.406   1_554 S
C118   C115    1.406   1_556 S
C119   H195    1.083   .     S
C119   C730    1.394   .     A
C120   C114    1.406   1_554 S
C121   O300    1.280   .     A
C121   O925    1.280   1_545 S
C122   O882    1.280   1_545 A
C122   O297    1.280   .     S
C123   O567    1.280   1_455 A
C123   O298    1.280   .     S
C124   O615    1.280   1_455 A
C124   O252    1.280   .     S
C125   O257    1.280   .     A
C125   O253    1.280   .     A
C126   O258    1.280   .     A
C126   O254    1.280   .     A
C127   O259    1.280   .     A
C127   O255    1.280   .     A
C128   O261    1.280   .     A
C128   O256    1.280   .     A
C129   O262    1.279   .     A
C129   O290    1.279   .     A
C130   H196    1.083   .     S
C130   C182    1.402   .     A
C131   O263    1.279   .     A
C131   O291    1.279   .     A
C132   O264    1.279   .     A
C132   O288    1.279   .     A
C133   O289    1.279   .     A
C133   O265    1.279   .     A
C134   O266    1.279   .     A
C134   O295    1.279   .     A
C135   O267    1.279   .     A
C135   O296    1.279   .     A
C136   O292    1.279   .     A
C136   O268    1.279   .     A
C137   O269    1.279   .     A
C137   O294    1.279   .     A
C138   O270    1.279   .     A
C138   O281    1.279   .     A
C139   O272    1.279   .     A
C139   O283    1.279   .     A
C140   O273    1.279   .     A
C140   O279    1.279   .     A
C141   H197    1.083   .     S
C141   C406    1.394   .     A
C141   C183    1.402   .     A
C142   O280    1.279   .     A
C142   O274    1.279   .     A
C143   O286    1.279   .     A
C143   O275    1.279   .     A
C144   O287    1.279   .     A
C144   O276    1.279   .     A
C145   O277    1.279   .     A
C145   O284    1.279   .     A
C146   O285    1.279   .     A
C146   O278    1.279   .     A
C147   C164    1.400   .     A
C148   C162    1.400   .     A
C149   C161    1.399   .     A
C150   C160    1.399   .     A
C151   C159    1.400   .     A
C152   C184    1.402   .     A
C152   H198    1.083   .     S
C152   C728    1.394   .     S
C153   C158    1.400   .     A
C154   C157    1.399   .     A
C155   C156    1.399   .     A
C163   H199    1.083   .     S
C165   C181    1.400   .     A
C166   C180    1.400   .     A
C167   C179    1.399   .     A
C168   C178    1.399   .     A
C169   C177    1.400   .     A
C170   C176    1.400   .     A
C171   C175    1.399   .     A
C172   C173    1.399   .     A
C174   H200    1.083   .     S
C183   C352    1.419   .     A
C184   C669    1.419   .     S
O249   Zn301   1.948   .     S
O249   Zn312   1.948   .     S
O249   Zn304   1.948   .     S
O249   Zn940   1.948   1_545 S
O250   C754    1.280   .     A
O250   Zn303   1.951   .     S
O251   C439    1.280   .     A
O251   Zn306   1.951   .     S
O252   Zn305   1.951   .     S
O253   Zn315   1.951   .     S
O254   Zn314   1.951   .     S
O255   Zn309   1.951   .     S
O256   Zn301   1.951   .     S
O257   Zn311   1.951   .     S
O258   Zn310   1.951   .     S
O259   Zn313   1.951   .     S
O260   Zn313   1.948   .     S
O260   Zn307   1.948   .     S
O260   Zn309   1.948   .     S
O260   Zn935   1.948   1_545 S
O261   Zn312   1.951   .     S
O262   Zn304   1.936   .     S
O263   Zn303   1.936   .     S
O264   Zn306   1.935   .     S
O265   Zn305   1.935   .     S
O266   Zn308   1.936   .     S
O267   Zn307   1.936   .     S
O268   Zn302   1.935   .     S
O269   Zn316   1.935   .     S
O270   Zn303   1.935   .     S
O271   Zn622   1.948   1_455 S
O271   Zn310   1.948   .     S
O271   Zn314   1.948   .     S
O271   Zn302   1.948   .     S
O272   Zn304   1.935   .     S
O273   Zn316   1.936   .     S
O274   Zn302   1.936   .     S
O275   Zn307   1.935   .     S
O276   Zn308   1.935   .     S
O277   Zn305   1.936   .     S
O278   Zn306   1.936   .     S
O279   Zn627   1.936   .     S
O280   Zn310   1.936   .     S
O281   Zn945   1.935   .     S
O282   Zn311   1.948   .     S
O282   Zn315   1.948   .     S
O282   Zn632   1.948   1_455 S
O282   Zn305   1.948   .     S
O283   Zn312   1.935   .     S
O284   Zn315   1.936   .     S
O285   Zn630   1.936   .     S
O286   Zn309   1.935   .     S
O287   Zn933   1.935   .     S
O288   Zn626   1.935   .     S
O289   Zn311   1.935   .     S
O290   Zn301   1.936   .     S
O291   Zn941   1.936   .     S
O292   Zn314   1.935   .     S
O293   Zn308   1.951   .     S
O293   C753    1.280   .     S
O294   Zn631   1.935   .     S
O295   Zn944   1.936   .     S
O296   Zn313   1.936   .     S
O297   Zn307   1.951   .     S
O298   Zn302   1.951   .     S
O299   C440    1.280   .     A
O299   Zn316   1.951   .     S
O300   Zn304   1.951   .     S
Zn301  O919    1.935   1_545 S
Zn303  O892    1.948   .     S
Zn306  O587    1.948   .     S
Zn308  O881    1.948   .     S
Zn309  O923    1.936   1_545 S
Zn310  O604    1.935   1_455 S
Zn311  O595    1.936   1_455 S
Zn312  O927    1.936   1_545 S
Zn313  O913    1.935   1_545 S
Zn314  O601    1.936   1_455 S
Zn315  O610    1.935   1_455 S
Zn316  O598    1.948   .     S
C317   C79     1.394   1_655 A
C317   H501    1.083   .     S
C317   C320    1.402   .     A
C318   C330    1.402   .     A
C318   H502    1.083   .     S
C318   C1048   1.394   .     S
C319   C479    1.402   .     A
C319   C422    1.414   .     A
C319   C354    1.419   .     S
C320   C423    1.414   .     A
C320   C34     1.419   1_655 S
C321   C425    1.414   .     A
C321   C413    1.402   .     A
C321   C352    1.419   .     S
C322   C426    1.414   .     A
C322   C353    1.419   .     A
C322   C424    1.402   .     A
C323   C435    1.402   .     A
C323   C427    1.414   .     A
C323   C986    1.419   .     A
C324   C351    1.402   .     A
C324   C428    1.414   .     A
C324   C987    1.419   .     S
C325   C429    1.414   .     A
C325   C362    1.402   .     A
C325   C356    1.419   .     A
C326   C430    1.414   .     A
C326   C373    1.402   .     A
C326   C357    1.419   .     S
C327   C431    1.414   .     A
C327   C384    1.402   .     A
C327   C42     1.419   1_655 A
C328   C490    1.402   .     A
C328   C355    1.419   .     A
C328   C432    1.414   .     A
C329   H503    1.083   .     S
C329   C331    1.402   .     A
C329   C101    1.394   1_655 A
C330   C433    1.414   .     A
C330   C988    1.419   .     S
C331   C434    1.414   .     A
C331   C41     1.419   1_655 A
C332   C436    1.414   .     A
C332   C340    1.402   .     A
C332   C358    1.419   .     S
C333   C480    1.410   .     A
C333   C482    1.410   .     A
C333   C452    1.456   .     S
C334   C453    1.456   .     S
C334   C481    1.410   .     A
C334   C478    1.410   .     A
C335   C445    1.456   .     S
C335   C477    1.411   .     A
C335   C484    1.411   .     A
C336   C476    1.411   .     A
C336   C483    1.411   .     A
C336   C447    1.456   .     S
C337   C486    1.410   .     A
C337   C475    1.410   .     A
C337   C448    1.456   .     S
C338   C449    1.456   .     S
C338   C474    1.410   .     A
C338   C485    1.410   .     A
C339   C450    1.456   .     S
C339   C473    1.411   .     A
C339   C488    1.411   .     A
C340   H504    1.083   .     S
C340   C418    1.394   .     A
C341   C487    1.411   .     A
C341   C472    1.411   .     A
C341   C451    1.456   .     S
C342   C471    1.411   .     A
C342   C461    1.456   .     S
C342   C491    1.411   .     A
C343   C462    1.456   .     S
C343   C489    1.411   .     A
C343   C470    1.411   .     A
C344   C469    1.410   .     A
C344   C493    1.410   .     A
C344   C454    1.456   .     S
C345   C467    1.410   .     A
C345   C492    1.410   .     A
C345   C455    1.456   .     S
C346   C466    1.411   .     A
C346   C495    1.411   .     A
C346   C456    1.456   .     S
C347   C494    1.411   .     A
C347   C465    1.411   .     A
C347   C458    1.456   .     S
C348   C497    1.410   .     A
C348   C464    1.410   .     A
C348   C459    1.456   .     S
C349   C463    1.410   .     A
C349   C460    1.456   .     S
C349   C496    1.410   .     A
C350   C498    1.419   .     A
C350   C352    1.406   .     S
C351   H505    1.083   .     S
C351   C1047   1.394   .     S
C353   C354    1.406   .     S
C353   C1132   1.419   1_545 S
C354   C955    1.419   1_545 A
C355   C956    1.419   1_545 S
C355   C356    1.406   1_556 S
C356   C962    1.419   1_545 S
C356   C355    1.406   1_554 S
C357   C358    1.406   1_556 S
C358   C357    1.406   1_554 S
C359   N517    1.157   .     T
C359   C419    1.454   .     S
C360   C420    1.454   .     S
C360   N528    1.157   .     T
C361   C421    1.454   .     S
C361   N539    1.157   .     T
C362   H506    1.083   .     S
C362   C416    1.394   .     A
C363   C422    1.454   .     S
C363   N550    1.157   .     T
C364   C423    1.454   .     S
C364   N560    1.157   .     T
C365   N561    1.157   .     T
C365   C425    1.454   .     S
C366   C426    1.454   .     S
C366   N562    1.157   .     T
C367   N563    1.157   .     T
C367   C427    1.454   .     S
C368   C428    1.454   .     S
C368   N564    1.157   .     T
C369   C429    1.454   .     S
C369   N518    1.157   .     T
C370   N519    1.157   .     T
C370   C430    1.454   .     S
C371   C431    1.454   .     S
C371   N520    1.157   .     T
C372   N521    1.157   .     T
C372   C432    1.454   .     S
C373   H507    1.083   .     S
C373   C417    1.394   .     S
C374   C433    1.454   .     S
C374   N522    1.157   .     T
C375   C434    1.454   .     S
C375   N523    1.157   .     T
C376   N524    1.157   .     T
C376   C436    1.454   .     S
C377   N525    1.157   .     T
C377   C463    1.453   .     S
C378   C464    1.453   .     S
C378   N526    1.157   .     T
C379   N527    1.158   .     T
C379   C465    1.454   .     S
C380   N529    1.158   .     T
C380   C466    1.454   .     S
C381   C467    1.453   .     S
C381   N530    1.157   .     T
C382   N531    1.157   .     T
C382   C469    1.453   .     S
C383   C470    1.454   .     S
C383   N532    1.158   .     T
C384   H508    1.083   .     S
C384   C102    1.394   1_655 S
C385   N533    1.158   .     T
C385   C471    1.454   .     S
C386   N534    1.158   .     T
C386   C472    1.454   .     S
C387   C473    1.454   .     S
C387   N535    1.158   .     T
C388   N536    1.157   .     T
C388   C474    1.453   .     S
C389   C475    1.453   .     S
C389   N537    1.157   .     T
C390   C476    1.454   .     S
C390   N538    1.158   .     T
C391   N540    1.158   .     T
C391   C477    1.454   .     S
C392   N541    1.157   .     T
C392   C478    1.453   .     S
C393   N542    1.157   .     T
C393   C480    1.453   .     S
C394   C481    1.453   .     S
C394   N543    1.157   .     T
C395   C439    1.461   .     S
C395   C446    1.394   .     S
C396   C482    1.453   .     S
C396   N544    1.157   .     T
C397   N545    1.158   .     T
C397   C483    1.454   .     S
C398   C484    1.454   .     S
C398   N546    1.158   .     T
C399   C485    1.453   .     S
C399   N547    1.157   .     T
C400   N548    1.157   .     T
C400   C486    1.453   .     S
C401   N549    1.158   .     T
C401   C487    1.454   .     S
C402   C488    1.454   .     S
C402   N551    1.158   .     T
C403   C489    1.454   .     S
C403   N552    1.158   .     T
C404   C491    1.454   .     S
C404   N553    1.158   .     T
C405   N554    1.157   .     T
C405   C492    1.453   .     S
C406   C440    1.461   .     S
C406   C413    1.394   .     S
C407   C493    1.453   .     S
C407   N555    1.157   .     T
C408   N556    1.158   .     T
C408   C494    1.454   .     S
C409   N557    1.158   .     T
C409   C495    1.454   .     S
C410   N558    1.157   .     T
C410   C496    1.453   .     S
C411   C497    1.453   .     S
C411   N559    1.157   .     T
C412   C424    1.394   .     A
C412   C437    1.461   .     S
C412   C1100   1.394   1_545 S
C413   H509    1.083   .     S
C414   C438    1.461   .     S
C414   C1067   1.394   1_545 A
C414   C479    1.394   .     S
C415   C490    1.394   .     A
C415   C443    1.461   .     S
C415   C983    1.394   1_545 S
C416   C444    1.461   .     S
C416   C950    1.394   1_545 S
C417   C441    1.461   .     S
C418   C442    1.461   .     S
C419   C425    1.406   .     A
C419   C498    1.414   .     A
C420   C499    1.414   .     A
C420   C423    1.406   .     A
C421   C500    1.414   .     A
C421   C427    1.406   .     A
C422   C426    1.406   .     A
C424   H510    1.083   .     S
C428   C433    1.406   1_556 S
C429   C432    1.406   1_554 S
C430   C436    1.406   1_556 S
C431   C434    1.406   1_554 S
C432   C429    1.406   1_556 S
C433   C428    1.406   1_554 S
C434   C431    1.406   1_556 S
C435   H511    1.083   .     S
C435   C1046   1.394   .     A
C436   C430    1.406   1_554 S
C437   O616    1.280   .     A
C437   O1241   1.280   1_545 S
C438   O1198   1.280   1_545 A
C438   O613    1.280   .     S
C439   O614    1.280   .     S
C440   O568    1.280   .     S
C441   O573    1.280   .     A
C441   O569    1.280   .     A
C442   O574    1.280   .     A
C442   O570    1.280   .     A
C443   O575    1.280   .     A
C443   O571    1.280   .     A
C444   O577    1.280   .     A
C444   O572    1.280   .     A
C445   O578    1.279   .     A
C445   O606    1.279   .     A
C446   H512    1.083   .     S
C446   C498    1.402   .     A
C447   O579    1.279   .     A
C447   O607    1.279   .     A
C448   O580    1.279   .     A
C448   O604    1.279   .     A
C449   O605    1.279   .     A
C449   O581    1.279   .     A
C450   O582    1.279   .     A
C450   O611    1.279   .     A
C451   O583    1.279   .     A
C451   O612    1.279   .     A
C452   O608    1.279   .     A
C452   O584    1.279   .     A
C453   O585    1.279   .     A
C453   O610    1.279   .     A
C454   O586    1.279   .     A
C454   O597    1.279   .     A
C455   O588    1.279   .     A
C455   O599    1.279   .     A
C456   O589    1.279   .     A
C456   O595    1.279   .     A
C457   H513    1.083   .     S
C457   C90     1.394   1_655 A
C457   C499    1.402   .     A
C458   O596    1.279   .     A
C458   O590    1.279   .     A
C459   O602    1.279   .     A
C459   O591    1.279   .     A
C460   O603    1.279   .     A
C460   O592    1.279   .     A
C461   O593    1.279   .     A
C461   O600    1.279   .     A
C462   O601    1.279   .     A
C462   O594    1.279   .     A
C463   C480    1.400   .     A
C464   C478    1.400   .     A
C465   C477    1.399   .     A
C466   C476    1.399   .     A
C467   C475    1.400   .     A
C468   C500    1.402   .     A
C468   H514    1.083   .     S
C468   C1044   1.394   .     S
C469   C474    1.400   .     A
C470   C473    1.399   .     A
C471   C472    1.399   .     A
C479   H515    1.083   .     S
C481   C497    1.400   .     A
C482   C496    1.400   .     A
C483   C495    1.399   .     A
C484   C494    1.399   .     A
C485   C493    1.400   .     A
C486   C492    1.400   .     A
C487   C491    1.399   .     A
C488   C489    1.399   .     A
C490   H516    1.083   .     S
C499   C36     1.419   1_655 A
C500   C985    1.419   .     S
O565   Zn617   1.948   .     S
O565   Zn628   1.948   .     S
O565   Zn620   1.948   .     S
O565   Zn1256  1.948   1_545 S
O566   C1070   1.280   .     A
O566   Zn619   1.951   .     S
O567   C123    1.280   1_655 A
O567   Zn622   1.951   .     S
O568   Zn621   1.951   .     S
O569   Zn631   1.951   .     S
O570   Zn630   1.951   .     S
O571   Zn625   1.951   .     S
O572   Zn617   1.951   .     S
O573   Zn627   1.951   .     S
O574   Zn626   1.951   .     S
O575   Zn629   1.951   .     S
O576   Zn629   1.948   .     S
O576   Zn623   1.948   .     S
O576   Zn625   1.948   .     S
O576   Zn1251  1.948   1_545 S
O577   Zn628   1.951   .     S
O578   Zn620   1.936   .     S
O579   Zn619   1.936   .     S
O580   Zn622   1.935   .     S
O581   Zn621   1.935   .     S
O582   Zn624   1.936   .     S
O583   Zn623   1.936   .     S
O584   Zn618   1.935   .     S
O585   Zn632   1.935   .     S
O586   Zn619   1.935   .     S
O587   Zn626   1.948   .     S
O587   Zn630   1.948   .     S
O587   Zn618   1.948   .     S
O588   Zn620   1.935   .     S
O589   Zn632   1.936   .     S
O590   Zn618   1.936   .     S
O591   Zn623   1.935   .     S
O592   Zn624   1.935   .     S
O593   Zn621   1.936   .     S
O594   Zn622   1.936   .     S
O595   Zn311   1.936   1_655 S
O596   Zn626   1.936   .     S
O597   Zn1261  1.935   .     S
O598   Zn627   1.948   .     S
O598   Zn631   1.948   .     S
O598   Zn621   1.948   .     S
O599   Zn628   1.935   .     S
O600   Zn631   1.936   .     S
O601   Zn314   1.936   1_655 S
O602   Zn625   1.935   .     S
O603   Zn1249  1.935   .     S
O604   Zn310   1.935   1_655 S
O605   Zn627   1.935   .     S
O606   Zn617   1.936   .     S
O607   Zn1257  1.936   .     S
O608   Zn630   1.935   .     S
O609   Zn624   1.951   .     S
O609   C1069   1.280   .     S
O610   Zn315   1.935   1_655 S
O611   Zn1260  1.936   .     S
O612   Zn629   1.936   .     S
O613   Zn623   1.951   .     S
O614   Zn618   1.951   .     S
O615   C124    1.280   1_655 A
O615   Zn632   1.951   .     S
O616   Zn620   1.951   .     S
Zn617  O1235   1.935   1_545 S
Zn619  O1208   1.948   .     S
Zn622  O271    1.948   1_655 S
Zn624  O1197   1.948   .     S
Zn625  O1239   1.936   1_545 S
Zn628  O1243   1.936   1_545 S
Zn629  O1229   1.935   1_545 S
Zn632  O282    1.948   1_655 S
C633   C1027   1.394   .     A
C633   H817    1.083   .     S
C633   C636    1.402   .     A
C634   C646    1.402   .     A
C634   H818    1.083   .     S
C634   C100    1.394   1_565 S
C635   C795    1.402   .     A
C635   C738    1.414   .     A
C635   C670    1.419   .     S
C636   C739    1.414   .     A
C636   C982    1.419   .     S
C637   C741    1.414   .     A
C637   C729    1.402   .     A
C637   C668    1.419   .     S
C638   C742    1.414   .     A
C638   C669    1.419   .     A
C638   C740    1.402   .     A
C639   C751    1.402   .     A
C639   C743    1.414   .     A
C639   C38     1.419   1_565 A
C640   C667    1.402   .     A
C640   C744    1.414   .     A
C640   C39     1.419   1_565 S
C641   C745    1.414   .     A
C641   C678    1.402   .     A
C641   C672    1.419   .     A
C642   C746    1.414   .     A
C642   C689    1.402   .     A
C642   C673    1.419   .     S
C643   C747    1.414   .     A
C643   C700    1.402   .     A
C643   C990    1.419   .     A
C644   C806    1.402   .     A
C644   C671    1.419   .     A
C644   C748    1.414   .     A
C645   H819    1.083   .     S
C645   C647    1.402   .     A
C645   C1049   1.394   .     A
C646   C749    1.414   .     A
C646   C40     1.419   1_565 S
C647   C750    1.414   .     A
C647   C989    1.419   .     A
C648   C752    1.414   .     A
C648   C656    1.402   .     A
C648   C674    1.419   .     S
C649   C796    1.410   .     A
C649   C798    1.410   .     A
C649   C768    1.456   .     S
C650   C769    1.456   .     S
C650   C797    1.410   .     A
C650   C794    1.410   .     A
C651   C761    1.456   .     S
C651   C793    1.411   .     A
C651   C800    1.411   .     A
C652   C792    1.411   .     A
C652   C799    1.411   .     A
C652   C763    1.456   .     S
C653   C802    1.410   .     A
C653   C791    1.410   .     A
C653   C764    1.456   .     S
C654   C765    1.456   .     S
C654   C790    1.410   .     A
C654   C801    1.410   .     A
C655   C766    1.456   .     S
C655   C789    1.411   .     A
C655   C804    1.411   .     A
C656   H820    1.083   .     S
C656   C734    1.394   .     A
C657   C803    1.411   .     A
C657   C788    1.411   .     A
C657   C767    1.456   .     S
C658   C787    1.411   .     A
C658   C777    1.456   .     S
C658   C807    1.411   .     A
C659   C778    1.456   .     S
C659   C805    1.411   .     A
C659   C786    1.411   .     A
C660   C785    1.410   .     A
C660   C809    1.410   .     A
C660   C770    1.456   .     S
C661   C783    1.410   .     A
C661   C808    1.410   .     A
C661   C771    1.456   .     S
C662   C782    1.411   .     A
C662   C811    1.411   .     A
C662   C772    1.456   .     S
C663   C810    1.411   .     A
C663   C781    1.411   .     A
C663   C774    1.456   .     S
C664   C813    1.410   .     A
C664   C780    1.410   .     A
C664   C775    1.456   .     S
C665   C779    1.410   .     A
C665   C776    1.456   .     S
C665   C812    1.410   .     A
C666   C814    1.419   .     A
C666   C952    1.419   1_455 S
C666   C668    1.406   .     S
C667   H821    1.083   .     S
C667   C99     1.394   1_565 S
C668   C1131   1.419   1_455 A
C669   C670    1.406   .     S
C671   C672    1.406   1_556 S
C672   C671    1.406   1_554 S
C673   C963    1.419   1_455 A
C673   C674    1.406   1_556 S
C674   C959    1.419   1_455 A
C674   C673    1.406   1_554 S
C675   N833    1.157   .     T
C675   C735    1.454   .     S
C676   C736    1.454   .     S
C676   N844    1.157   .     T
C677   C737    1.454   .     S
C677   N855    1.157   .     T
C678   H822    1.083   .     S
C678   C732    1.394   .     A
C679   C738    1.454   .     S
C679   N866    1.157   .     T
C680   C739    1.454   .     S
C680   N876    1.157   .     T
C681   N877    1.157   .     T
C681   C741    1.454   .     S
C682   C742    1.454   .     S
C682   N878    1.157   .     T
C683   N879    1.157   .     T
C683   C743    1.454   .     S
C684   C744    1.454   .     S
C684   N880    1.157   .     T
C685   C745    1.454   .     S
C685   N834    1.157   .     T
C686   N835    1.157   .     T
C686   C746    1.454   .     S
C687   C747    1.454   .     S
C687   N836    1.157   .     T
C688   N837    1.157   .     T
C688   C748    1.454   .     S
C689   H823    1.083   .     S
C689   C733    1.394   .     S
C690   C749    1.454   .     S
C690   N838    1.157   .     T
C691   C750    1.454   .     S
C691   N839    1.157   .     T
C692   N840    1.157   .     T
C692   C752    1.454   .     S
C693   N841    1.157   .     T
C693   C779    1.453   .     S
C694   C780    1.453   .     S
C694   N842    1.157   .     T
C695   N843    1.158   .     T
C695   C781    1.454   .     S
C696   N845    1.158   .     T
C696   C782    1.454   .     S
C697   C783    1.453   .     S
C697   N846    1.157   .     T
C698   N847    1.157   .     T
C698   C785    1.453   .     S
C699   C786    1.454   .     S
C699   N848    1.158   .     T
C700   H824    1.083   .     S
C700   C1050   1.394   .     S
C701   N849    1.158   .     T
C701   C787    1.454   .     S
C702   N850    1.158   .     T
C702   C788    1.454   .     S
C703   C789    1.454   .     S
C703   N851    1.158   .     T
C704   N852    1.157   .     T
C704   C790    1.453   .     S
C705   C791    1.453   .     S
C705   N853    1.157   .     T
C706   C792    1.454   .     S
C706   N854    1.158   .     T
C707   N856    1.158   .     T
C707   C793    1.454   .     S
C708   N857    1.157   .     T
C708   C794    1.453   .     S
C709   N858    1.157   .     T
C709   C796    1.453   .     S
C710   C797    1.453   .     S
C710   N859    1.157   .     T
C711   C949    1.394   1_455 A
C711   C755    1.461   .     S
C711   C762    1.394   .     S
C712   C798    1.453   .     S
C712   N860    1.157   .     T
C713   N861    1.158   .     T
C713   C799    1.454   .     S
C714   C800    1.454   .     S
C714   N862    1.158   .     T
C715   C801    1.453   .     S
C715   N863    1.157   .     T
C716   N864    1.157   .     T
C716   C802    1.453   .     S
C717   N865    1.158   .     T
C717   C803    1.454   .     S
C718   C804    1.454   .     S
C718   N867    1.158   .     T
C719   C805    1.454   .     S
C719   N868    1.158   .     T
C720   C807    1.454   .     S
C720   N869    1.158   .     T
C721   N870    1.157   .     T
C721   C808    1.453   .     S
C722   C1089   1.394   1_455 A
C722   C756    1.461   .     S
C722   C729    1.394   .     S
C723   C809    1.453   .     S
C723   N871    1.157   .     T
C724   N872    1.158   .     T
C724   C810    1.454   .     S
C725   N873    1.158   .     T
C725   C811    1.454   .     S
C726   N874    1.157   .     T
C726   C812    1.453   .     S
C727   C813    1.453   .     S
C727   N875    1.157   .     T
C728   C740    1.394   .     A
C728   C753    1.461   .     S
C729   H825    1.083   .     S
C730   C754    1.461   .     S
C730   C795    1.394   .     S
C731   C806    1.394   .     A
C731   C759    1.461   .     S
C732   C760    1.461   .     S
C733   C757    1.461   .     S
C733   C961    1.394   1_455 A
C734   C1016   1.394   1_455 S
C734   C758    1.461   .     S
C735   C741    1.406   .     A
C735   C814    1.414   .     A
C736   C815    1.414   .     A
C736   C739    1.406   .     A
C737   C816    1.414   .     A
C737   C743    1.406   .     A
C738   C742    1.406   .     A
C740   H826    1.083   .     S
C744   C749    1.406   1_556 S
C745   C748    1.406   1_554 S
C746   C752    1.406   1_556 S
C747   C750    1.406   1_554 S
C748   C745    1.406   1_556 S
C749   C744    1.406   1_554 S
C750   C747    1.406   1_556 S
C751   H827    1.083   .     S
C751   C98     1.394   1_565 A
C752   C746    1.406   1_554 S
C753   O932    1.280   .     A
C754   O929    1.280   .     S
C755   O1199   1.280   1_455 A
C755   O930    1.280   .     S
C756   O1247   1.280   1_455 A
C756   O884    1.280   .     S
C757   O889    1.280   .     A
C757   O885    1.280   .     A
C758   O890    1.280   .     A
C758   O886    1.280   .     A
C759   O891    1.280   .     A
C759   O887    1.280   .     A
C760   O893    1.280   .     A
C760   O888    1.280   .     A
C761   O894    1.279   .     A
C761   O922    1.279   .     A
C762   H828    1.083   .     S
C762   C814    1.402   .     A
C763   O895    1.279   .     A
C763   O923    1.279   .     A
C764   O896    1.279   .     A
C764   O920    1.279   .     A
C765   O921    1.279   .     A
C765   O897    1.279   .     A
C766   O898    1.279   .     A
C766   O927    1.279   .     A
C767   O899    1.279   .     A
C767   O928    1.279   .     A
C768   O924    1.279   .     A
C768   O900    1.279   .     A
C769   O901    1.279   .     A
C769   O926    1.279   .     A
C770   O902    1.279   .     A
C770   O913    1.279   .     A
C771   O904    1.279   .     A
C771   O915    1.279   .     A
C772   O905    1.279   .     A
C772   O911    1.279   .     A
C773   H829    1.083   .     S
C773   C1038   1.394   .     A
C773   C815    1.402   .     A
C774   O912    1.279   .     A
C774   O906    1.279   .     A
C775   O918    1.279   .     A
C775   O907    1.279   .     A
C776   O919    1.279   .     A
C776   O908    1.279   .     A
C777   O909    1.279   .     A
C777   O916    1.279   .     A
C778   O917    1.279   .     A
C778   O910    1.279   .     A
C779   C796    1.400   .     A
C780   C794    1.400   .     A
C781   C793    1.399   .     A
C782   C792    1.399   .     A
C783   C791    1.400   .     A
C784   C816    1.402   .     A
C784   H830    1.083   .     S
C784   C96     1.394   1_565 S
C785   C790    1.400   .     A
C786   C789    1.399   .     A
C787   C788    1.399   .     A
C795   H831    1.083   .     S
C797   C813    1.400   .     A
C798   C812    1.400   .     A
C799   C811    1.399   .     A
C800   C810    1.399   .     A
C801   C809    1.400   .     A
C802   C808    1.400   .     A
C803   C807    1.399   .     A
C804   C805    1.399   .     A
C806   H832    1.083   .     S
C815   C984    1.419   .     A
C816   C37     1.419   1_565 S
O881   Zn933   1.948   .     S
O881   Zn944   1.948   .     S
O881   Zn936   1.948   .     S
O882   C122    1.280   1_565 A
O882   Zn935   1.951   .     S
O883   C1071   1.280   .     A
O883   Zn938   1.951   .     S
O884   Zn937   1.951   .     S
O885   Zn947   1.951   .     S
O886   Zn946   1.951   .     S
O887   Zn941   1.951   .     S
O888   Zn933   1.951   .     S
O889   Zn943   1.951   .     S
O890   Zn942   1.951   .     S
O891   Zn945   1.951   .     S
O892   Zn945   1.948   .     S
O892   Zn939   1.948   .     S
O892   Zn941   1.948   .     S
O893   Zn944   1.951   .     S
O894   Zn936   1.936   .     S
O895   Zn935   1.936   .     S
O896   Zn938   1.935   .     S
O897   Zn937   1.935   .     S
O898   Zn940   1.936   .     S
O899   Zn939   1.936   .     S
O900   Zn934   1.935   .     S
O901   Zn948   1.935   .     S
O902   Zn935   1.935   .     S
O903   Zn1254  1.948   1_455 S
O903   Zn942   1.948   .     S
O903   Zn946   1.948   .     S
O903   Zn934   1.948   .     S
O904   Zn936   1.935   .     S
O905   Zn948   1.936   .     S
O906   Zn934   1.936   .     S
O907   Zn939   1.935   .     S
O908   Zn940   1.935   .     S
O909   Zn937   1.936   .     S
O910   Zn938   1.936   .     S
O911   Zn1259  1.936   .     S
O912   Zn942   1.936   .     S
O913   Zn313   1.935   1_565 S
O914   Zn943   1.948   .     S
O914   Zn947   1.948   .     S
O914   Zn1264  1.948   1_455 S
O914   Zn937   1.948   .     S
O915   Zn944   1.935   .     S
O916   Zn947   1.936   .     S
O917   Zn1262  1.936   .     S
O918   Zn941   1.935   .     S
O919   Zn301   1.935   1_565 S
O920   Zn1258  1.935   .     S
O921   Zn943   1.935   .     S
O922   Zn933   1.936   .     S
O923   Zn309   1.936   1_565 S
O924   Zn946   1.935   .     S
O925   Zn940   1.951   .     S
O925   C121    1.280   1_565 S
O926   Zn1263  1.935   .     S
O927   Zn312   1.936   1_565 S
O928   Zn945   1.936   .     S
O929   Zn939   1.951   .     S
O930   Zn934   1.951   .     S
O931   C1072   1.280   .     A
O931   Zn948   1.951   .     S
O932   Zn936   1.951   .     S
Zn935  O260    1.948   1_565 S
Zn938  O1219   1.948   .     S
Zn940  O249    1.948   1_565 S
Zn942  O1236   1.935   1_455 S
Zn943  O1227   1.936   1_455 S
Zn946  O1233   1.936   1_455 S
Zn947  O1242   1.935   1_455 S
Zn948  O1230   1.948   .     S
C949   C711    1.394   1_655 A
C949   H1133   1.083   .     S
C949   C952    1.402   .     A
C950   C962    1.402   .     A
C950   H1134   1.083   .     S
C950   C416    1.394   1_565 S
C951   C1111   1.402   .     A
C951   C1054   1.414   .     A
C951   C986    1.419   .     S
C952   C1055   1.414   .     A
C952   C666    1.419   1_655 S
C953   C1057   1.414   .     A
C953   C1045   1.402   .     A
C953   C984    1.419   .     S
C954   C1058   1.414   .     A
C954   C985    1.419   .     A
C954   C1056   1.402   .     A
C955   C1067   1.402   .     A
C955   C1059   1.414   .     A
C955   C354    1.419   1_565 A
C956   C983    1.402   .     A
C956   C1060   1.414   .     A
C956   C355    1.419   1_565 S
C957   C1061   1.414   .     A
C957   C994    1.402   .     A
C957   C988    1.419   .     A
C958   C1062   1.414   .     A
C958   C1005   1.402   .     A
C958   C989    1.419   .     S
C959   C1063   1.414   .     A
C959   C1016   1.402   .     A
C959   C674    1.419   1_655 A
C960   C1122   1.402   .     A
C960   C987    1.419   .     A
C960   C1064   1.414   .     A
C961   H1135   1.083   .     S
C961   C963    1.402   .     A
C961   C733    1.394   1_655 A
C962   C1065   1.414   .     A
C962   C356    1.419   1_565 S
C963   C1066   1.414   .     A
C963   C673    1.419   1_655 A
C964   C1068   1.414   .     A
C964   C972    1.402   .     A
C964   C990    1.419   .     S
C965   C1112   1.410   .     A
C965   C1114   1.410   .     A
C965   C1084   1.456   .     S
C966   C1085   1.456   .     S
C966   C1113   1.410   .     A
C966   C1110   1.410   .     A
C967   C1077   1.456   .     S
C967   C1109   1.411   .     A
C967   C1116   1.411   .     A
C968   C1108   1.411   .     A
C968   C1115   1.411   .     A
C968   C1079   1.456   .     S
C969   C1118   1.410   .     A
C969   C1107   1.410   .     A
C969   C1080   1.456   .     S
C970   C1081   1.456   .     S
C970   C1106   1.410   .     A
C970   C1117   1.410   .     A
C971   C1082   1.456   .     S
C971   C1105   1.411   .     A
C971   C1120   1.411   .     A
C972   H1136   1.083   .     S
C972   C1050   1.394   .     A
C973   C1119   1.411   .     A
C973   C1104   1.411   .     A
C973   C1083   1.456   .     S
C974   C1103   1.411   .     A
C974   C1093   1.456   .     S
C974   C1123   1.411   .     A
C975   C1094   1.456   .     S
C975   C1121   1.411   .     A
C975   C1102   1.411   .     A
C976   C1101   1.410   .     A
C976   C1125   1.410   .     A
C976   C1086   1.456   .     S
C977   C1099   1.410   .     A
C977   C1124   1.410   .     A
C977   C1087   1.456   .     S
C978   C1098   1.411   .     A
C978   C1127   1.411   .     A
C978   C1088   1.456   .     S
C979   C1126   1.411   .     A
C979   C1097   1.411   .     A
C979   C1090   1.456   .     S
C980   C1129   1.410   .     A
C980   C1096   1.410   .     A
C980   C1091   1.456   .     S
C981   C1095   1.410   .     A
C981   C1092   1.456   .     S
C981   C1128   1.410   .     A
C982   C1130   1.419   .     A
C982   C984    1.406   .     S
C983   H1137   1.083   .     S
C983   C415    1.394   1_565 S
C985   C986    1.406   .     S
C987   C988    1.406   1_556 S
C988   C987    1.406   1_554 S
C989   C990    1.406   1_556 S
C990   C989    1.406   1_554 S
C991   N1149   1.157   .     T
C991   C1051   1.454   .     S
C992   C1052   1.454   .     S
C992   N1160   1.157   .     T
C993   C1053   1.454   .     S
C993   N1171   1.157   .     T
C994   H1138   1.083   .     S
C994   C1048   1.394   .     A
C995   C1054   1.454   .     S
C995   N1182   1.157   .     T
C996   C1055   1.454   .     S
C996   N1192   1.157   .     T
C997   N1193   1.157   .     T
C997   C1057   1.454   .     S
C998   C1058   1.454   .     S
C998   N1194   1.157   .     T
C999   N1195   1.157   .     T
C999   C1059   1.454   .     S
C1000  C1060   1.454   .     S
C1000  N1196   1.157   .     T
C1001  C1061   1.454   .     S
C1001  N1150   1.157   .     T
C1002  N1151   1.157   .     T
C1002  C1062   1.454   .     S
C1003  C1063   1.454   .     S
C1003  N1152   1.157   .     T
C1004  N1153   1.157   .     T
C1004  C1064   1.454   .     S
C1005  H1139   1.083   .     S
C1005  C1049   1.394   .     S
C1006  C1065   1.454   .     S
C1006  N1154   1.157   .     T
C1007  C1066   1.454   .     S
C1007  N1155   1.157   .     T
C1008  N1156   1.157   .     T
C1008  C1068   1.454   .     S
C1009  N1157   1.157   .     T
C1009  C1095   1.453   .     S
C1010  C1096   1.453   .     S
C1010  N1158   1.157   .     T
C1011  N1159   1.158   .     T
C1011  C1097   1.454   .     S
C1012  N1161   1.158   .     T
C1012  C1098   1.454   .     S
C1013  C1099   1.453   .     S
C1013  N1162   1.157   .     T
C1014  N1163   1.157   .     T
C1014  C1101   1.453   .     S
C1015  C1102   1.454   .     S
C1015  N1164   1.158   .     T
C1016  H1140   1.083   .     S
C1016  C734    1.394   1_655 S
C1017  N1165   1.158   .     T
C1017  C1103   1.454   .     S
C1018  N1166   1.158   .     T
C1018  C1104   1.454   .     S
C1019  C1105   1.454   .     S
C1019  N1167   1.158   .     T
C1020  N1168   1.157   .     T
C1020  C1106   1.453   .     S
C1021  C1107   1.453   .     S
C1021  N1169   1.157   .     T
C1022  C1108   1.454   .     S
C1022  N1170   1.158   .     T
C1023  N1172   1.158   .     T
C1023  C1109   1.454   .     S
C1024  N1173   1.157   .     T
C1024  C1110   1.453   .     S
C1025  N1174   1.157   .     T
C1025  C1112   1.453   .     S
C1026  C1113   1.453   .     S
C1026  N1175   1.157   .     T
C1027  C1071   1.461   .     S
C1027  C1078   1.394   .     S
C1028  C1114   1.453   .     S
C1028  N1176   1.157   .     T
C1029  N1177   1.158   .     T
C1029  C1115   1.454   .     S
C1030  C1116   1.454   .     S
C1030  N1178   1.158   .     T
C1031  C1117   1.453   .     S
C1031  N1179   1.157   .     T
C1032  N1180   1.157   .     T
C1032  C1118   1.453   .     S
C1033  N1181   1.158   .     T
C1033  C1119   1.454   .     S
C1034  C1120   1.454   .     S
C1034  N1183   1.158   .     T
C1035  C1121   1.454   .     S
C1035  N1184   1.158   .     T
C1036  C1123   1.454   .     S
C1036  N1185   1.158   .     T
C1037  N1186   1.157   .     T
C1037  C1124   1.453   .     S
C1038  C1072   1.461   .     S
C1038  C1045   1.394   .     S
C1039  C1125   1.453   .     S
C1039  N1187   1.157   .     T
C1040  N1188   1.158   .     T
C1040  C1126   1.454   .     S
C1041  N1189   1.158   .     T
C1041  C1127   1.454   .     S
C1042  N1190   1.157   .     T
C1042  C1128   1.453   .     S
C1043  C1129   1.453   .     S
C1043  N1191   1.157   .     T
C1044  C1056   1.394   .     A
C1044  C1069   1.461   .     S
C1045  H1141   1.083   .     S
C1046  C1070   1.461   .     S
C1046  C1111   1.394   .     S
C1047  C1122   1.394   .     A
C1047  C1075   1.461   .     S
C1048  C1076   1.461   .     S
C1049  C1073   1.461   .     S
C1050  C1074   1.461   .     S
C1051  C1057   1.406   .     A
C1051  C1130   1.414   .     A
C1052  C1131   1.414   .     A
C1052  C1055   1.406   .     A
C1053  C1132   1.414   .     A
C1053  C1059   1.406   .     A
C1054  C1058   1.406   .     A
C1056  H1142   1.083   .     S
C1060  C1065   1.406   1_556 S
C1061  C1064   1.406   1_554 S
C1062  C1068   1.406   1_556 S
C1063  C1066   1.406   1_554 S
C1064  C1061   1.406   1_556 S
C1065  C1060   1.406   1_554 S
C1066  C1063   1.406   1_556 S
C1067  H1143   1.083   .     S
C1067  C414    1.394   1_565 A
C1068  C1062   1.406   1_554 S
C1069  O1248   1.280   .     A
C1070  O1245   1.280   .     S
C1071  O1246   1.280   .     S
C1072  O1200   1.280   .     S
C1073  O1205   1.280   .     A
C1073  O1201   1.280   .     A
C1074  O1206   1.280   .     A
C1074  O1202   1.280   .     A
C1075  O1207   1.280   .     A
C1075  O1203   1.280   .     A
C1076  O1209   1.280   .     A
C1076  O1204   1.280   .     A
C1077  O1210   1.279   .     A
C1077  O1238   1.279   .     A
C1078  H1144   1.083   .     S
C1078  C1130   1.402   .     A
C1079  O1211   1.279   .     A
C1079  O1239   1.279   .     A
C1080  O1212   1.279   .     A
C1080  O1236   1.279   .     A
C1081  O1237   1.279   .     A
C1081  O1213   1.279   .     A
C1082  O1214   1.279   .     A
C1082  O1243   1.279   .     A
C1083  O1215   1.279   .     A
C1083  O1244   1.279   .     A
C1084  O1240   1.279   .     A
C1084  O1216   1.279   .     A
C1085  O1217   1.279   .     A
C1085  O1242   1.279   .     A
C1086  O1218   1.279   .     A
C1086  O1229   1.279   .     A
C1087  O1220   1.279   .     A
C1087  O1231   1.279   .     A
C1088  O1221   1.279   .     A
C1088  O1227   1.279   .     A
C1089  H1145   1.083   .     S
C1089  C722    1.394   1_655 A
C1089  C1131   1.402   .     A
C1090  O1228   1.279   .     A
C1090  O1222   1.279   .     A
C1091  O1234   1.279   .     A
C1091  O1223   1.279   .     A
C1092  O1235   1.279   .     A
C1092  O1224   1.279   .     A
C1093  O1225   1.279   .     A
C1093  O1232   1.279   .     A
C1094  O1233   1.279   .     A
C1094  O1226   1.279   .     A
C1095  C1112   1.400   .     A
C1096  C1110   1.400   .     A
C1097  C1109   1.399   .     A
C1098  C1108   1.399   .     A
C1099  C1107   1.400   .     A
C1100  C1132   1.402   .     A
C1100  H1146   1.083   .     S
C1100  C412    1.394   1_565 S
C1101  C1106   1.400   .     A
C1102  C1105   1.399   .     A
C1103  C1104   1.399   .     A
C1111  H1147   1.083   .     S
C1113  C1129   1.400   .     A
C1114  C1128   1.400   .     A
C1115  C1127   1.399   .     A
C1116  C1126   1.399   .     A
C1117  C1125   1.400   .     A
C1118  C1124   1.400   .     A
C1119  C1123   1.399   .     A
C1120  C1121   1.399   .     A
C1122  H1148   1.083   .     S
C1131  C668    1.419   1_655 A
C1132  C353    1.419   1_565 S
O1197  Zn1249  1.948   .     S
O1197  Zn1260  1.948   .     S
O1197  Zn1252  1.948   .     S
O1198  C438    1.280   1_565 A
O1198  Zn1251  1.951   .     S
O1199  C755    1.280   1_655 A
O1199  Zn1254  1.951   .     S
O1200  Zn1253  1.951   .     S
O1201  Zn1263  1.951   .     S
O1202  Zn1262  1.951   .     S
O1203  Zn1257  1.951   .     S
O1204  Zn1249  1.951   .     S
O1205  Zn1259  1.951   .     S
O1206  Zn1258  1.951   .     S
O1207  Zn1261  1.951   .     S
O1208  Zn1261  1.948   .     S
O1208  Zn1255  1.948   .     S
O1208  Zn1257  1.948   .     S
O1209  Zn1260  1.951   .     S
O1210  Zn1252  1.936   .     S
O1211  Zn1251  1.936   .     S
O1212  Zn1254  1.935   .     S
O1213  Zn1253  1.935   .     S
O1214  Zn1256  1.936   .     S
O1215  Zn1255  1.936   .     S
O1216  Zn1250  1.935   .     S
O1217  Zn1264  1.935   .     S
O1218  Zn1251  1.935   .     S
O1219  Zn1258  1.948   .     S
O1219  Zn1262  1.948   .     S
O1219  Zn1250  1.948   .     S
O1220  Zn1252  1.935   .     S
O1221  Zn1264  1.936   .     S
O1222  Zn1250  1.936   .     S
O1223  Zn1255  1.935   .     S
O1224  Zn1256  1.935   .     S
O1225  Zn1253  1.936   .     S
O1226  Zn1254  1.936   .     S
O1227  Zn943   1.936   1_655 S
O1228  Zn1258  1.936   .     S
O1229  Zn629   1.935   1_565 S
O1230  Zn1259  1.948   .     S
O1230  Zn1263  1.948   .     S
O1230  Zn1253  1.948   .     S
O1231  Zn1260  1.935   .     S
O1232  Zn1263  1.936   .     S
O1233  Zn946   1.936   1_655 S
O1234  Zn1257  1.935   .     S
O1235  Zn617   1.935   1_565 S
O1236  Zn942   1.935   1_655 S
O1237  Zn1259  1.935   .     S
O1238  Zn1249  1.936   .     S
O1239  Zn625   1.936   1_565 S
O1240  Zn1262  1.935   .     S
O1241  Zn1256  1.951   .     S
O1241  C437    1.280   1_565 S
O1242  Zn947   1.935   1_655 S
O1243  Zn628   1.936   1_565 S
O1244  Zn1261  1.936   .     S
O1245  Zn1255  1.951   .     S
O1246  Zn1250  1.951   .     S
O1247  C756    1.280   1_655 A
O1247  Zn1264  1.951   .     S
O1248  Zn1252  1.951   .     S
Zn1251 O576    1.948   1_565 S
Zn1254 O903    1.948   1_655 S
Zn1256 O565    1.948   1_565 S
Zn1264 O914    1.948   1_655 S
