data_str_m1_o5_o17_pcu_sym.73
_audit_creation_date              2020-01-03
_audit_creation_method            'Materials Studio'
_symmetry_space_group_name_H-M    'P1'
_symmetry_Int_Tables_number       1
_symmetry_cell_setting            triclinic
loop_
_symmetry_equiv_pos_as_xyz
  x,y,z
_cell_length_a                    31.7699
_cell_length_b                    31.7755
_cell_length_c                    34.5093
_cell_angle_alpha                 89.9886
_cell_angle_beta                  89.9881
_cell_angle_gamma                 90.0333
loop_
_atom_site_label
_atom_site_type_symbol
_atom_site_fract_x
_atom_site_fract_y
_atom_site_fract_z
_atom_site_U_iso_or_equiv
_atom_site_adp_type
_atom_site_occupancy
C1     C     0.24999   0.49999   0.35583   0.00000  Uiso   1.00
C2     C     0.33002   0.41998   0.75000   0.00000  Uiso   1.00
C3     C     0.42298   0.24342   0.02046   0.00000  Uiso   1.00
C4     C     0.26258   0.07622   0.97946   0.00000  Uiso   1.00
C5     C     0.23789   0.42393   0.02046   0.00000  Uiso   1.00
C6     C     0.42301   0.24288   0.97956   0.00000  Uiso   1.00
C7     C     0.07672   0.25698   0.02043   0.00000  Uiso   1.00
C8     C     0.02819   0.32242   0.39702   0.00000  Uiso   1.00
C9     C     0.45548   0.18442   0.60551   0.00000  Uiso   1.00
C10    C     0.18011   0.46303   0.39721   0.00000  Uiso   1.00
C11    C     0.32025   0.03584   0.60272   0.00000  Uiso   1.00
C12    C     0.49124   0.17243   0.39523   0.00000  Uiso   1.00
C13    C     0.41998   0.16999   0.25000   0.00000  Uiso   1.00
C14    C     0.04253   0.31540   0.60028   0.00000  Uiso   1.00
C15    C     0.32005   0.03639   0.39743   0.00000  Uiso   1.00
C16    C     0.17947   0.46427   0.60289   0.00000  Uiso   1.00
C17    C     0.28994   0.06816   0.89696   0.00000  Uiso   1.00
C18    C     0.20958   0.43245   0.10281   0.00000  Uiso   1.00
C19    C     0.42968   0.21372   0.89736   0.00000  Uiso   1.00
C20    C     0.07032   0.28558   0.10288   0.00000  Uiso   1.00
C21    C     0.21009   0.43206   0.89719   0.00000  Uiso   1.00
C22    C     0.29106   0.06735   0.10307   0.00000  Uiso   1.00
C23    C     0.06995   0.28610   0.89702   0.00000  Uiso   1.00
C24    C     0.08003   0.33001   0.75001   0.00000  Uiso   1.00
C25    C     0.42916   0.21480   0.10271   0.00000  Uiso   1.00
C26    C     0.44886   0.14045   0.45964   0.00000  Uiso   1.00
C27    C     0.00384   0.36611   0.54266   0.00000  Uiso   1.00
C28    C     0.36702   0.49971   0.45872   0.00000  Uiso   1.00
C29    C     0.13293   0.00093   0.54128   0.00000  Uiso   1.00
C30    C     0.49359   0.36720   0.46041   0.00000  Uiso   1.00
C31    C     0.46867   0.13413   0.54007   0.00000  Uiso   1.00
C32    C     0.13271   0.49850   0.45870   0.00000  Uiso   1.00
C33    C     0.36672   0.49769   0.54145   0.00000  Uiso   1.00
C34    C     0.24409   0.38326   0.95872   0.00000  Uiso   1.00
C35    C     0.33002   0.41998   0.25000   0.00000  Uiso   1.00
C36    C     0.26089   0.11713   0.04112   0.00000  Uiso   1.00
C37    C     0.11698   0.24992   0.95864   0.00000  Uiso   1.00
C38    C     0.38295   0.25253   0.04132   0.00000  Uiso   1.00
C39    C     0.25567   0.11677   0.95867   0.00000  Uiso   1.00
C40    C     0.24289   0.38327   0.04136   0.00000  Uiso   1.00
C41    C     0.38274   0.25045   0.95867   0.00000  Uiso   1.00
C42    C     0.11679   0.24822   0.04132   0.00000  Uiso   1.00
C43    C     0.16998   0.08002   0.75000   0.00000  Uiso   1.00
C44    C     0.08002   0.33001   0.25000   0.00000  Uiso   1.00
C45    C     0.41999   0.16998   0.74999   0.00000  Uiso   1.00
C46    C     0.16999   0.41998   0.75001   0.00000  Uiso   1.00
C47    C     0.33002   0.08001   0.25000   0.00000  Uiso   1.00
C48    C     0.41998   0.33002   0.75000   0.00000  Uiso   1.00
C49    C     0.25003   0.00001   0.64417   0.00000  Uiso   1.00
C50    C     0.08002   0.16998   0.25000   0.00000  Uiso   1.00
C51    C     0.33002   0.08002   0.75000   0.00000  Uiso   1.00
C52    C     0.16999   0.41998   0.24999   0.00000  Uiso   1.00
C53    C     0.08002   0.16998   0.75000   0.00000  Uiso   1.00
C54    C     0.41998   0.33002   0.25000   0.00000  Uiso   1.00
C55    C     0.13834   0.38832   0.24999   0.00000  Uiso   1.00
C56    C     0.36167   0.11166   0.74999   0.00000  Uiso   1.00
C57    C     0.11167   0.13833   0.25000   0.00000  Uiso   1.00
C58    C     0.38833   0.36167   0.75000   0.00000  Uiso   1.00
C59    C     0.36167   0.11166   0.24999   0.00000  Uiso   1.00
C60    C     0.49993   0.24994   0.35579   0.00000  Uiso   1.00
C61    C     0.13834   0.38832   0.75002   0.00000  Uiso   1.00
C62    C     0.38833   0.36167   0.25001   0.00000  Uiso   1.00
C63    C     0.11167   0.13833   0.75000   0.00000  Uiso   1.00
C64    C     0.13833   0.11167   0.75000   0.00000  Uiso   1.00
C65    C     0.36167   0.38833   0.25000   0.00000  Uiso   1.00
C66    C     0.11168   0.36165   0.75001   0.00000  Uiso   1.00
C67    C     0.38833   0.13834   0.25000   0.00000  Uiso   1.00
C68    C     0.36167   0.38833   0.75000   0.00000  Uiso   1.00
C69    C     0.13833   0.11167   0.25000   0.00000  Uiso   1.00
C70    C     0.38834   0.13833   0.74999   0.00000  Uiso   1.00
C71    C     0.49996   0.24991   0.64413   0.00000  Uiso   1.00
C72    C     0.11167   0.36166   0.24999   0.00000  Uiso   1.00
C73    C     0.00794   0.28699   0.41838   0.00000  Uiso   1.00
C74    C     0.48011   0.21527   0.58230   0.00000  Uiso   1.00
C75    C     0.21402   0.48595   0.41834   0.00000  Uiso   1.00
C76    C     0.28599   0.01339   0.58160   0.00000  Uiso   1.00
C77    C     0.48880   0.21236   0.41765   0.00000  Uiso   1.00
C78    C     0.01516   0.28372   0.58078   0.00000  Uiso   1.00
C79    C     0.28594   0.01358   0.41842   0.00000  Uiso   1.00
C80    C     0.21379   0.48657   0.58171   0.00000  Uiso   1.00
C81    C     0.26576   0.03524   0.91829   0.00000  Uiso   1.00
C82    C     0.49995   0.24999   0.85583   0.00000  Uiso   1.00
C83    C     0.23415   0.46509   0.08157   0.00000  Uiso   1.00
C84    C     0.46383   0.23643   0.91838   0.00000  Uiso   1.00
C85    C     0.03602   0.26336   0.08163   0.00000  Uiso   1.00
C86    C     0.23443   0.46491   0.91840   0.00000  Uiso   1.00
C87    C     0.26636   0.03503   0.08167   0.00000  Uiso   1.00
C88    C     0.03587   0.26365   0.91834   0.00000  Uiso   1.00
C89    C     0.46366   0.23698   0.08166   0.00000  Uiso   1.00
C90    C     0.49907   0.24979   0.39811   0.00000  Uiso   1.00
C91    C     0.49937   0.24920   0.60170   0.00000  Uiso   1.00
C92    C     0.24996   0.49991   0.39818   0.00000  Uiso   1.00
C93    C     0.49999   0.25001   0.14417   0.00000  Uiso   1.00
C94    C     0.24993   0.00002   0.60185   0.00000  Uiso   1.00
C95    C     0.25002   0.00007   0.89816   0.00000  Uiso   1.00
C96    C     0.25008   0.00007   0.10180   0.00000  Uiso   1.00
C97    C     0.49988   0.24999   0.89817   0.00000  Uiso   1.00
C98    C     0.49990   0.25006   0.10184   0.00000  Uiso   1.00
C99    C     0.48377   0.21261   0.45862   0.00000  Uiso   1.00
C100   C     0.00628   0.28674   0.54067   0.00000  Uiso   1.00
C101   C     0.28790   0.00750   0.45908   0.00000  Uiso   1.00
C102   C     0.21188   0.49230   0.54099   0.00000  Uiso   1.00
C103   C     0.00235   0.28819   0.45913   0.00000  Uiso   1.00
C104   C     0.25000   0.00002   0.85583   0.00000  Uiso   1.00
C105   C     0.48238   0.21299   0.54116   0.00000  Uiso   1.00
C106   C     0.21198   0.49178   0.45905   0.00000  Uiso   1.00
C107   C     0.28791   0.00721   0.54094   0.00000  Uiso   1.00
C108   C     0.24040   0.46260   0.95907   0.00000  Uiso   1.00
C109   C     0.26100   0.03742   0.04093   0.00000  Uiso   1.00
C110   C     0.03786   0.25769   0.95904   0.00000  Uiso   1.00
C111   C     0.46178   0.24292   0.04096   0.00000  Uiso   1.00
C112   C     0.26012   0.03751   0.95900   0.00000  Uiso   1.00
C113   C     0.24017   0.46271   0.04092   0.00000  Uiso   1.00
C114   C     0.46185   0.24246   0.95906   0.00000  Uiso   1.00
C115   C     0.25001   0.00000   0.14416   0.00000  Uiso   1.00
C116   C     0.03791   0.25739   0.04093   0.00000  Uiso   1.00
C117   C     0.49326   0.25017   0.47934   0.00000  Uiso   1.00
C118   C     0.49376   0.24992   0.52036   0.00000  Uiso   1.00
C119   C     0.24992   0.49967   0.47955   0.00000  Uiso   1.00
C120   C     0.24990   0.49972   0.52047   0.00000  Uiso   1.00
C121   C     0.25039   0.00006   0.97953   0.00000  Uiso   1.00
C122   C     0.25050   0.00008   0.02044   0.00000  Uiso   1.00
C123   C     0.49986   0.25008   0.97954   0.00000  Uiso   1.00
C124   C     0.49985   0.25012   0.02045   0.00000  Uiso   1.00
C125   C     0.46993   0.17648   0.47952   0.00000  Uiso   1.00
C126   C     0.16998   0.08002   0.25000   0.00000  Uiso   1.00
C127   C     0.00710   0.32588   0.52080   0.00000  Uiso   1.00
C128   C     0.32674   0.00722   0.47959   0.00000  Uiso   1.00
C129   C     0.17308   0.49230   0.52046   0.00000  Uiso   1.00
C130   C     0.00361   0.32667   0.48011   0.00000  Uiso   1.00
C131   C     0.47238   0.17568   0.52028   0.00000  Uiso   1.00
C132   C     0.17313   0.49168   0.47956   0.00000  Uiso   1.00
C133   C     0.32674   0.00674   0.52049   0.00000  Uiso   1.00
C134   C     0.23821   0.42386   0.97958   0.00000  Uiso   1.00
C135   C     0.26398   0.07613   0.02034   0.00000  Uiso   1.00
C136   C     0.07669   0.25740   0.97953   0.00000  Uiso   1.00
H137   H     0.02579   0.36316   0.35223   0.00000  Uiso   1.00
H138   H     0.20648   0.39176   0.14762   0.00000  Uiso   1.00
H139   H     0.39136   0.16311   0.89562   0.00000  Uiso   1.00
H140   H     0.11038   0.28639   0.14824   0.00000  Uiso   1.00
H141   H     0.20702   0.39170   0.85214   0.00000  Uiso   1.00
H142   H     0.34560   0.09939   0.10748   0.00000  Uiso   1.00
H143   H     0.11033   0.28684   0.85188   0.00000  Uiso   1.00
H144   H     0.38955   0.16524   0.10415   0.00000  Uiso   1.00
H145   H     0.40108   0.17649   0.44013   0.00000  Uiso   1.00
H146   H     0.03007   0.42197   0.55626   0.00000  Uiso   1.00
H147   H     0.42482   0.02101   0.44461   0.00000  Uiso   1.00
H148   H     0.45494   0.14173   0.64877   0.00000  Uiso   1.00
H149   H     0.10126   0.03897   0.57785   0.00000  Uiso   1.00
H150   H     0.45365   0.39909   0.42576   0.00000  Uiso   1.00
H151   H     0.40632   0.12895   0.52971   0.00000  Uiso   1.00
H152   H     0.07522   0.47625   0.44475   0.00000  Uiso   1.00
H153   H     0.39761   0.45969   0.57862   0.00000  Uiso   1.00
H154   H     0.27978   0.34920   0.92195   0.00000  Uiso   1.00
H155   H     0.32063   0.13387   0.02856   0.00000  Uiso   1.00
H156   H     0.17473   0.27131   0.94445   0.00000  Uiso   1.00
H157   H     0.35183   0.29089   0.07802   0.00000  Uiso   1.00
H158   H     0.21927   0.14988   0.92175   0.00000  Uiso   1.00
H159   H     0.14251   0.41191   0.39506   0.00000  Uiso   1.00
H160   H     0.21797   0.32702   0.05568   0.00000  Uiso   1.00
H161   H     0.32483   0.22934   0.94472   0.00000  Uiso   1.00
H162   H     0.14812   0.21032   0.07826   0.00000  Uiso   1.00
H163   H     0.36022   0.03713   0.64815   0.00000  Uiso   1.00
H164   H     0.02128   0.11729   0.38692   0.00000  Uiso   1.00
H165   H     0.09677   0.34832   0.59891   0.00000  Uiso   1.00
H166   H     0.35809   0.08718   0.39560   0.00000  Uiso   1.00
H167   H     0.14051   0.41423   0.60482   0.00000  Uiso   1.00
H168   H     0.29286   0.10832   0.85174   0.00000  Uiso   1.00
O169   O     0.25000  -0.00000   0.25000   0.00000  Uiso   1.00
O170   O     0.25000   0.46538   0.66251   0.00000  Uiso   1.00
O171   O     0.36912   0.46247   0.56563   0.00000  Uiso   1.00
O172   O     0.21806   0.35512   0.96183   0.00000  Uiso   1.00
O173   O     0.27928   0.37784   0.93490   0.00000  Uiso   1.00
O174   O     0.22834   0.12621   0.05796   0.00000  Uiso   1.00
O175   O     0.29468   0.14531   0.04200   0.00000  Uiso   1.00
O176   O     0.12154   0.21772   0.93970   0.00000  Uiso   1.00
O177   O     0.14911   0.27994   0.96006   0.00000  Uiso   1.00
O178   O     0.35281   0.22884   0.03825   0.00000  Uiso   1.00
O179   O     0.38035   0.28807   0.06509   0.00000  Uiso   1.00
O180   O     0.28065   0.14579   0.96219   0.00000  Uiso   1.00
O181   O     0.46539   0.25000   0.33749   0.00000  Uiso   1.00
O182   O     0.22058   0.12120   0.93457   0.00000  Uiso   1.00
O183   O     0.27480   0.37671   0.06022   0.00000  Uiso   1.00
O184   O     0.21091   0.35308   0.04003   0.00000  Uiso   1.00
O185   O     0.37835   0.28255   0.93953   0.00000  Uiso   1.00
O186   O     0.35040   0.22067   0.96036   0.00000  Uiso   1.00
O187   O     0.14678   0.27208   0.03811   0.00000  Uiso   1.00
O188   O     0.11961   0.21286   0.06529   0.00000  Uiso   1.00
O189   O     0.03462   0.25000   0.66251   0.00000  Uiso   1.00
O190   O     0.00000   0.21538   0.83749   0.00000  Uiso   1.00
O191   O     0.00000   0.28461   0.16251   0.00000  Uiso   1.00
O192   O     0.28462  -0.00000   0.83749   0.00000  Uiso   1.00
O193   O     0.21539  -0.00000   0.16251   0.00000  Uiso   1.00
O194   O     0.00000   0.28461   0.83749   0.00000  Uiso   1.00
O195   O     0.00000   0.21538   0.16251   0.00000  Uiso   1.00
O196   O     0.21539  -0.00000   0.83749   0.00000  Uiso   1.00
O197   O     0.25000  -0.00000   0.75000   0.00000  Uiso   1.00
O198   O     0.28462  -0.00000   0.16251   0.00000  Uiso   1.00
O199   O     0.20127   0.08332   0.27298   0.00000  Uiso   1.00
O200   O     0.29874   0.41668   0.72702   0.00000  Uiso   1.00
O201   O     0.41668   0.20126   0.27298   0.00000  Uiso   1.00
O202   O     0.08332   0.29873   0.72702   0.00000  Uiso   1.00
O203   O     0.29874   0.41668   0.27298   0.00000  Uiso   1.00
O204   O     0.20127   0.08332   0.72702   0.00000  Uiso   1.00
O205   O     0.08332   0.29873   0.27298   0.00000  Uiso   1.00
O206   O     0.41668   0.20126   0.72702   0.00000  Uiso   1.00
O207   O     0.20127   0.41668   0.72702   0.00000  Uiso   1.00
O208   O     0.00000   0.25000   0.25000   0.00000  Uiso   1.00
O209   O     0.29874   0.08332   0.27298   0.00000  Uiso   1.00
O210   O     0.41668   0.29873   0.72702   0.00000  Uiso   1.00
O211   O     0.08332   0.20126   0.27298   0.00000  Uiso   1.00
O212   O     0.29874   0.08332   0.72702   0.00000  Uiso   1.00
O213   O     0.20127   0.41668   0.27298   0.00000  Uiso   1.00
O214   O     0.08332   0.20126   0.72702   0.00000  Uiso   1.00
O215   O     0.41668   0.29873   0.27298   0.00000  Uiso   1.00
O216   O     0.45127   0.33332   0.77298   0.00000  Uiso   1.00
O217   O     0.04874   0.16668   0.22702   0.00000  Uiso   1.00
O218   O     0.16668   0.45126   0.77298   0.00000  Uiso   1.00
O219   O     0.00000   0.25000   0.75000   0.00000  Uiso   1.00
O220   O     0.33332   0.04873   0.22702   0.00000  Uiso   1.00
O221   O     0.04874   0.16668   0.77298   0.00000  Uiso   1.00
O222   O     0.45127   0.33332   0.22702   0.00000  Uiso   1.00
O223   O     0.33332   0.04873   0.77298   0.00000  Uiso   1.00
O224   O     0.16668   0.45126   0.22702   0.00000  Uiso   1.00
O225   O     0.45127   0.16668   0.22702   0.00000  Uiso   1.00
O226   O     0.04874   0.33332   0.77298   0.00000  Uiso   1.00
O227   O     0.16668   0.04873   0.22702   0.00000  Uiso   1.00
O228   O     0.33332   0.45126   0.77298   0.00000  Uiso   1.00
O229   O     0.04874   0.33332   0.22702   0.00000  Uiso   1.00
O230   O     0.25000   0.46538   0.33749   0.00000  Uiso   1.00
O231   O     0.45127   0.16668   0.77298   0.00000  Uiso   1.00
O232   O     0.33332   0.45126   0.22702   0.00000  Uiso   1.00
O233   O     0.16668   0.04873   0.77298   0.00000  Uiso   1.00
O234   O     0.06196   0.33638   0.40818   0.00000  Uiso   1.00
O235   O     0.00879   0.33948   0.36420   0.00000  Uiso   1.00
O236   O     0.41786   0.17993   0.59924   0.00000  Uiso   1.00
O237   O     0.47514   0.16128   0.63484   0.00000  Uiso   1.00
O238   O     0.16457   0.47791   0.36781   0.00000  Uiso   1.00
O239   O     0.16577   0.42444   0.41154   0.00000  Uiso   1.00
O240   O     0.33367   0.06921   0.59007   0.00000  Uiso   1.00
O241   O     0.25000   0.03461   0.66251   0.00000  Uiso   1.00
O242   O     0.33726   0.01880   0.63665   0.00000  Uiso   1.00
O243   O     0.46626   0.16545   0.36903   0.00000  Uiso   1.00
O244   O     0.02263   0.14316   0.40407   0.00000  Uiso   1.00
O245   O     0.03135   0.33222   0.63045   0.00000  Uiso   1.00
O246   O     0.08094   0.32642   0.58330   0.00000  Uiso   1.00
O247   O     0.33542   0.02166   0.36789   0.00000  Uiso   1.00
O248   O     0.33477   0.07470   0.41205   0.00000  Uiso   1.00
O249   O     0.16458   0.47915   0.63256   0.00000  Uiso   1.00
O250   O     0.16396   0.42627   0.58827   0.00000  Uiso   1.00
O251   O     0.32433   0.07935   0.90912   0.00000  Uiso   1.00
O252   O     0.03462   0.25000   0.33749   0.00000  Uiso   1.00
O253   O     0.27335   0.08649   0.86343   0.00000  Uiso   1.00
O254   O     0.17475   0.42223   0.09099   0.00000  Uiso   1.00
O255   O     0.22629   0.41331   0.13591   0.00000  Uiso   1.00
O256   O     0.41448   0.22844   0.86775   0.00000  Uiso   1.00
O257   O     0.41473   0.17551   0.91204   0.00000  Uiso   1.00
O258   O     0.08368   0.31911   0.09053   0.00000  Uiso   1.00
O259   O     0.08742   0.26818   0.13662   0.00000  Uiso   1.00
O260   O     0.17558   0.42120   0.90932   0.00000  Uiso   1.00
O261   O     0.22665   0.41345   0.86378   0.00000  Uiso   1.00
O262   O     0.27592   0.08524   0.13119   0.00000  Uiso   1.00
O263   O     0.46539   0.25000   0.66251   0.00000  Uiso   1.00
O264   O     0.33177   0.07718   0.09067   0.00000  Uiso   1.00
O265   O     0.08260   0.32007   0.90895   0.00000  Uiso   1.00
O266   O     0.08760   0.26842   0.86364   0.00000  Uiso   1.00
O267   O     0.41453   0.22948   0.13258   0.00000  Uiso   1.00
O268   O     0.41315   0.17718   0.08771   0.00000  Uiso   1.00
O269   O     0.46423   0.10528   0.46126   0.00000  Uiso   1.00
O270   O     0.41143   0.14636   0.43907   0.00000  Uiso   1.00
O271   O     0.47347   0.37237   0.56366   0.00000  Uiso   1.00
O272   O     0.03578   0.39622   0.53975   0.00000  Uiso   1.00
O273   O     0.37155   0.46753   0.43973   0.00000  Uiso   1.00
O274   O     0.25000   0.03461   0.33749   0.00000  Uiso   1.00
O275   O     0.39923   0.02964   0.46025   0.00000  Uiso   1.00
O276   O     0.10314   0.47678   0.53830   0.00000  Uiso   1.00
O277   O     0.12980   0.03653   0.56490   0.00000  Uiso   1.00
O278   O     0.01736   0.39732   0.46319   0.00000  Uiso   1.00
O279   O     0.45706   0.37029   0.43801   0.00000  Uiso   1.00
O280   O     0.49973   0.11858   0.55518   0.00000  Uiso   1.00
O281   O     0.43037   0.11248   0.54160   0.00000  Uiso   1.00
O282   O     0.12767   0.03055   0.43964   0.00000  Uiso   1.00
O283   O     0.10097   0.46807   0.46037   0.00000  Uiso   1.00
O284   O     0.39698   0.02118   0.53810   0.00000  Uiso   1.00
Zn285  Zn    0.20053  -0.00000   0.21730   0.00000  Uiso   1.00
Zn286  Zn    0.04948   0.25000   0.28270   0.00000  Uiso   1.00
Zn287  Zn    0.25000   0.45052   0.71730   0.00000  Uiso   1.00
Zn288  Zn    0.25000   0.04947   0.28270   0.00000  Uiso   1.00
Zn289  Zn    0.04948   0.25000   0.71730   0.00000  Uiso   1.00
Zn290  Zn    0.45053   0.25000   0.28270   0.00000  Uiso   1.00
Zn291  Zn    0.25000   0.04947   0.71730   0.00000  Uiso   1.00
Zn292  Zn    0.25000   0.45052   0.28270   0.00000  Uiso   1.00
Zn293  Zn    0.29948  -0.00000   0.78270   0.00000  Uiso   1.00
Zn294  Zn    0.00000   0.20052   0.21730   0.00000  Uiso   1.00
Zn295  Zn    0.00000   0.29947   0.78270   0.00000  Uiso   1.00
Zn296  Zn    0.29948  -0.00000   0.21730   0.00000  Uiso   1.00
Zn297  Zn    0.20053  -0.00000   0.78270   0.00000  Uiso   1.00
Zn298  Zn    0.00000   0.29947   0.21730   0.00000  Uiso   1.00
Zn299  Zn    0.00000   0.20052   0.78270   0.00000  Uiso   1.00
Zn300  Zn    0.45053   0.25000   0.71730   0.00000  Uiso   1.00
C301   C     0.74999   0.49999   0.35583   0.00000  Uiso   1.00
C302   C     0.83002   0.41998   0.75000   0.00000  Uiso   1.00
C303   C     0.92298   0.24342   0.02046   0.00000  Uiso   1.00
C304   C     0.76258   0.07622   0.97946   0.00000  Uiso   1.00
C305   C     0.73789   0.42393   0.02046   0.00000  Uiso   1.00
C306   C     0.92301   0.24288   0.97956   0.00000  Uiso   1.00
C307   C     0.57672   0.25698   0.02043   0.00000  Uiso   1.00
C308   C     0.52819   0.32242   0.39702   0.00000  Uiso   1.00
C309   C     0.95548   0.18442   0.60551   0.00000  Uiso   1.00
C310   C     0.68011   0.46303   0.39721   0.00000  Uiso   1.00
C311   C     0.82025   0.03584   0.60272   0.00000  Uiso   1.00
C312   C     0.99124   0.17243   0.39523   0.00000  Uiso   1.00
C313   C     0.91998   0.16999   0.25000   0.00000  Uiso   1.00
C314   C     0.54253   0.31540   0.60028   0.00000  Uiso   1.00
C315   C     0.82005   0.03639   0.39743   0.00000  Uiso   1.00
C316   C     0.67947   0.46427   0.60289   0.00000  Uiso   1.00
C317   C     0.78994   0.06816   0.89696   0.00000  Uiso   1.00
C318   C     0.70958   0.43245   0.10281   0.00000  Uiso   1.00
C319   C     0.92968   0.21372   0.89736   0.00000  Uiso   1.00
C320   C     0.57032   0.28558   0.10288   0.00000  Uiso   1.00
C321   C     0.71009   0.43206   0.89719   0.00000  Uiso   1.00
C322   C     0.79106   0.06735   0.10307   0.00000  Uiso   1.00
C323   C     0.56995   0.28610   0.89702   0.00000  Uiso   1.00
C324   C     0.58003   0.33001   0.75001   0.00000  Uiso   1.00
C325   C     0.92916   0.21480   0.10271   0.00000  Uiso   1.00
C326   C     0.94886   0.14045   0.45964   0.00000  Uiso   1.00
C327   C     0.50384   0.36611   0.54266   0.00000  Uiso   1.00
C328   C     0.86702   0.49971   0.45872   0.00000  Uiso   1.00
C329   C     0.63293   0.00093   0.54128   0.00000  Uiso   1.00
C330   C     0.99359   0.36720   0.46041   0.00000  Uiso   1.00
C331   C     0.96867   0.13413   0.54007   0.00000  Uiso   1.00
C332   C     0.63271   0.49850   0.45870   0.00000  Uiso   1.00
C333   C     0.86672   0.49769   0.54145   0.00000  Uiso   1.00
C334   C     0.74409   0.38326   0.95872   0.00000  Uiso   1.00
C335   C     0.83002   0.41998   0.25000   0.00000  Uiso   1.00
C336   C     0.76089   0.11713   0.04112   0.00000  Uiso   1.00
C337   C     0.61698   0.24992   0.95864   0.00000  Uiso   1.00
C338   C     0.88295   0.25253   0.04132   0.00000  Uiso   1.00
C339   C     0.75567   0.11677   0.95867   0.00000  Uiso   1.00
C340   C     0.74289   0.38327   0.04136   0.00000  Uiso   1.00
C341   C     0.88274   0.25045   0.95867   0.00000  Uiso   1.00
C342   C     0.61679   0.24822   0.04132   0.00000  Uiso   1.00
C343   C     0.66998   0.08002   0.75000   0.00000  Uiso   1.00
C344   C     0.58002   0.33001   0.25000   0.00000  Uiso   1.00
C345   C     0.91999   0.16998   0.74999   0.00000  Uiso   1.00
C346   C     0.66999   0.41998   0.75001   0.00000  Uiso   1.00
C347   C     0.83002   0.08001   0.25000   0.00000  Uiso   1.00
C348   C     0.91998   0.33002   0.75000   0.00000  Uiso   1.00
C349   C     0.75003   0.00001   0.64417   0.00000  Uiso   1.00
C350   C     0.58002   0.16998   0.25000   0.00000  Uiso   1.00
C351   C     0.83002   0.08002   0.75000   0.00000  Uiso   1.00
C352   C     0.66999   0.41998   0.24999   0.00000  Uiso   1.00
C353   C     0.58002   0.16998   0.75000   0.00000  Uiso   1.00
C354   C     0.91998   0.33002   0.25000   0.00000  Uiso   1.00
C355   C     0.63834   0.38832   0.24999   0.00000  Uiso   1.00
C356   C     0.86167   0.11166   0.74999   0.00000  Uiso   1.00
C357   C     0.61167   0.13833   0.25000   0.00000  Uiso   1.00
C358   C     0.88833   0.36167   0.75000   0.00000  Uiso   1.00
C359   C     0.86167   0.11166   0.24999   0.00000  Uiso   1.00
C360   C     0.99993   0.24994   0.35579   0.00000  Uiso   1.00
C361   C     0.63834   0.38832   0.75002   0.00000  Uiso   1.00
C362   C     0.88833   0.36167   0.25001   0.00000  Uiso   1.00
C363   C     0.61167   0.13833   0.75000   0.00000  Uiso   1.00
C364   C     0.63833   0.11167   0.75000   0.00000  Uiso   1.00
C365   C     0.86167   0.38833   0.25000   0.00000  Uiso   1.00
C366   C     0.61168   0.36165   0.75001   0.00000  Uiso   1.00
C367   C     0.88833   0.13834   0.25000   0.00000  Uiso   1.00
C368   C     0.86167   0.38833   0.75000   0.00000  Uiso   1.00
C369   C     0.63833   0.11167   0.25000   0.00000  Uiso   1.00
C370   C     0.88834   0.13833   0.74999   0.00000  Uiso   1.00
C371   C     0.99996   0.24991   0.64413   0.00000  Uiso   1.00
C372   C     0.61167   0.36166   0.24999   0.00000  Uiso   1.00
C373   C     0.50794   0.28699   0.41838   0.00000  Uiso   1.00
C374   C     0.98011   0.21527   0.58230   0.00000  Uiso   1.00
C375   C     0.71402   0.48595   0.41834   0.00000  Uiso   1.00
C376   C     0.78599   0.01339   0.58160   0.00000  Uiso   1.00
C377   C     0.98880   0.21236   0.41765   0.00000  Uiso   1.00
C378   C     0.51516   0.28372   0.58078   0.00000  Uiso   1.00
C379   C     0.78594   0.01358   0.41842   0.00000  Uiso   1.00
C380   C     0.71379   0.48657   0.58171   0.00000  Uiso   1.00
C381   C     0.76576   0.03524   0.91829   0.00000  Uiso   1.00
C382   C     0.99995   0.24999   0.85583   0.00000  Uiso   1.00
C383   C     0.73415   0.46509   0.08157   0.00000  Uiso   1.00
C384   C     0.96383   0.23643   0.91838   0.00000  Uiso   1.00
C385   C     0.53602   0.26336   0.08163   0.00000  Uiso   1.00
C386   C     0.73443   0.46491   0.91840   0.00000  Uiso   1.00
C387   C     0.76636   0.03503   0.08167   0.00000  Uiso   1.00
C388   C     0.53587   0.26365   0.91834   0.00000  Uiso   1.00
C389   C     0.96366   0.23698   0.08166   0.00000  Uiso   1.00
C390   C     0.99907   0.24979   0.39811   0.00000  Uiso   1.00
C391   C     0.99937   0.24920   0.60170   0.00000  Uiso   1.00
C392   C     0.74996   0.49991   0.39818   0.00000  Uiso   1.00
C393   C     0.99999   0.25001   0.14417   0.00000  Uiso   1.00
C394   C     0.74993   0.00002   0.60185   0.00000  Uiso   1.00
C395   C     0.75002   0.00007   0.89816   0.00000  Uiso   1.00
C396   C     0.75008   0.00007   0.10180   0.00000  Uiso   1.00
C397   C     0.99988   0.24999   0.89817   0.00000  Uiso   1.00
C398   C     0.99990   0.25006   0.10184   0.00000  Uiso   1.00
C399   C     0.98377   0.21261   0.45862   0.00000  Uiso   1.00
C400   C     0.50628   0.28674   0.54067   0.00000  Uiso   1.00
C401   C     0.78790   0.00750   0.45908   0.00000  Uiso   1.00
C402   C     0.71188   0.49230   0.54099   0.00000  Uiso   1.00
C403   C     0.50235   0.28819   0.45913   0.00000  Uiso   1.00
C404   C     0.75000   0.00002   0.85583   0.00000  Uiso   1.00
C405   C     0.98238   0.21299   0.54116   0.00000  Uiso   1.00
C406   C     0.71198   0.49178   0.45905   0.00000  Uiso   1.00
C407   C     0.78791   0.00721   0.54094   0.00000  Uiso   1.00
C408   C     0.74040   0.46260   0.95907   0.00000  Uiso   1.00
C409   C     0.76100   0.03742   0.04093   0.00000  Uiso   1.00
C410   C     0.53786   0.25769   0.95904   0.00000  Uiso   1.00
C411   C     0.96178   0.24292   0.04096   0.00000  Uiso   1.00
C412   C     0.76012   0.03751   0.95900   0.00000  Uiso   1.00
C413   C     0.74017   0.46271   0.04092   0.00000  Uiso   1.00
C414   C     0.96185   0.24246   0.95906   0.00000  Uiso   1.00
C415   C     0.75001   0.00000   0.14416   0.00000  Uiso   1.00
C416   C     0.53791   0.25739   0.04093   0.00000  Uiso   1.00
C417   C     0.99326   0.25017   0.47934   0.00000  Uiso   1.00
C418   C     0.99376   0.24992   0.52036   0.00000  Uiso   1.00
C419   C     0.74992   0.49967   0.47955   0.00000  Uiso   1.00
C420   C     0.74990   0.49972   0.52047   0.00000  Uiso   1.00
C421   C     0.75039   0.00006   0.97953   0.00000  Uiso   1.00
C422   C     0.75050   0.00008   0.02044   0.00000  Uiso   1.00
C423   C     0.99986   0.25008   0.97954   0.00000  Uiso   1.00
C424   C     0.99985   0.25012   0.02045   0.00000  Uiso   1.00
C425   C     0.96993   0.17648   0.47952   0.00000  Uiso   1.00
C426   C     0.66998   0.08002   0.25000   0.00000  Uiso   1.00
C427   C     0.50710   0.32588   0.52080   0.00000  Uiso   1.00
C428   C     0.82674   0.00722   0.47959   0.00000  Uiso   1.00
C429   C     0.67308   0.49230   0.52046   0.00000  Uiso   1.00
C430   C     0.50361   0.32667   0.48011   0.00000  Uiso   1.00
C431   C     0.97238   0.17568   0.52028   0.00000  Uiso   1.00
C432   C     0.67313   0.49168   0.47956   0.00000  Uiso   1.00
C433   C     0.82674   0.00674   0.52049   0.00000  Uiso   1.00
C434   C     0.73821   0.42386   0.97958   0.00000  Uiso   1.00
C435   C     0.76398   0.07613   0.02034   0.00000  Uiso   1.00
C436   C     0.57669   0.25740   0.97953   0.00000  Uiso   1.00
H437   H     0.52579   0.36316   0.35223   0.00000  Uiso   1.00
H438   H     0.70648   0.39176   0.14762   0.00000  Uiso   1.00
H439   H     0.89136   0.16311   0.89562   0.00000  Uiso   1.00
H440   H     0.61038   0.28639   0.14824   0.00000  Uiso   1.00
H441   H     0.70702   0.39170   0.85214   0.00000  Uiso   1.00
H442   H     0.84560   0.09939   0.10748   0.00000  Uiso   1.00
H443   H     0.61033   0.28684   0.85188   0.00000  Uiso   1.00
H444   H     0.88955   0.16524   0.10415   0.00000  Uiso   1.00
H445   H     0.90108   0.17649   0.44013   0.00000  Uiso   1.00
H446   H     0.53007   0.42197   0.55626   0.00000  Uiso   1.00
H447   H     0.92482   0.02101   0.44461   0.00000  Uiso   1.00
H448   H     0.95494   0.14173   0.64877   0.00000  Uiso   1.00
H449   H     0.60126   0.03897   0.57785   0.00000  Uiso   1.00
H450   H     0.95365   0.39909   0.42576   0.00000  Uiso   1.00
H451   H     0.90632   0.12895   0.52971   0.00000  Uiso   1.00
H452   H     0.57522   0.47625   0.44475   0.00000  Uiso   1.00
H453   H     0.89761   0.45969   0.57862   0.00000  Uiso   1.00
H454   H     0.77978   0.34920   0.92195   0.00000  Uiso   1.00
H455   H     0.82063   0.13387   0.02856   0.00000  Uiso   1.00
H456   H     0.67473   0.27131   0.94445   0.00000  Uiso   1.00
H457   H     0.85183   0.29089   0.07802   0.00000  Uiso   1.00
H458   H     0.71927   0.14988   0.92175   0.00000  Uiso   1.00
H459   H     0.64251   0.41191   0.39506   0.00000  Uiso   1.00
H460   H     0.71797   0.32702   0.05568   0.00000  Uiso   1.00
H461   H     0.82483   0.22934   0.94472   0.00000  Uiso   1.00
H462   H     0.64812   0.21032   0.07826   0.00000  Uiso   1.00
H463   H     0.86022   0.03713   0.64815   0.00000  Uiso   1.00
H464   H     0.52128   0.11729   0.38692   0.00000  Uiso   1.00
H465   H     0.59677   0.34832   0.59891   0.00000  Uiso   1.00
H466   H     0.85809   0.08718   0.39560   0.00000  Uiso   1.00
H467   H     0.64051   0.41423   0.60482   0.00000  Uiso   1.00
H468   H     0.79286   0.10832   0.85174   0.00000  Uiso   1.00
O469   O     0.75000  -0.00000   0.25000   0.00000  Uiso   1.00
O470   O     0.75000   0.46538   0.66251   0.00000  Uiso   1.00
O471   O     0.86912   0.46247   0.56563   0.00000  Uiso   1.00
O472   O     0.71806   0.35512   0.96183   0.00000  Uiso   1.00
O473   O     0.77928   0.37784   0.93490   0.00000  Uiso   1.00
O474   O     0.72834   0.12621   0.05796   0.00000  Uiso   1.00
O475   O     0.79468   0.14531   0.04200   0.00000  Uiso   1.00
O476   O     0.62154   0.21772   0.93970   0.00000  Uiso   1.00
O477   O     0.64911   0.27994   0.96006   0.00000  Uiso   1.00
O478   O     0.85281   0.22884   0.03825   0.00000  Uiso   1.00
O479   O     0.88035   0.28807   0.06509   0.00000  Uiso   1.00
O480   O     0.78065   0.14579   0.96219   0.00000  Uiso   1.00
O481   O     0.96539   0.25000   0.33749   0.00000  Uiso   1.00
O482   O     0.72058   0.12120   0.93457   0.00000  Uiso   1.00
O483   O     0.77480   0.37671   0.06022   0.00000  Uiso   1.00
O484   O     0.71091   0.35308   0.04003   0.00000  Uiso   1.00
O485   O     0.87835   0.28255   0.93953   0.00000  Uiso   1.00
O486   O     0.85040   0.22067   0.96036   0.00000  Uiso   1.00
O487   O     0.64678   0.27208   0.03811   0.00000  Uiso   1.00
O488   O     0.61961   0.21286   0.06529   0.00000  Uiso   1.00
O489   O     0.53462   0.25000   0.66251   0.00000  Uiso   1.00
O490   O     0.50000   0.21538   0.83749   0.00000  Uiso   1.00
O491   O     0.50000   0.28461   0.16251   0.00000  Uiso   1.00
O492   O     0.78462  -0.00000   0.83749   0.00000  Uiso   1.00
O493   O     0.71539  -0.00000   0.16251   0.00000  Uiso   1.00
O494   O     0.50000   0.28461   0.83749   0.00000  Uiso   1.00
O495   O     0.50000   0.21538   0.16251   0.00000  Uiso   1.00
O496   O     0.71539  -0.00000   0.83749   0.00000  Uiso   1.00
O497   O     0.75000  -0.00000   0.75000   0.00000  Uiso   1.00
O498   O     0.78462  -0.00000   0.16251   0.00000  Uiso   1.00
O499   O     0.70127   0.08332   0.27298   0.00000  Uiso   1.00
O500   O     0.79874   0.41668   0.72702   0.00000  Uiso   1.00
O501   O     0.91668   0.20126   0.27298   0.00000  Uiso   1.00
O502   O     0.58332   0.29873   0.72702   0.00000  Uiso   1.00
O503   O     0.79874   0.41668   0.27298   0.00000  Uiso   1.00
O504   O     0.70127   0.08332   0.72702   0.00000  Uiso   1.00
O505   O     0.58332   0.29873   0.27298   0.00000  Uiso   1.00
O506   O     0.91668   0.20126   0.72702   0.00000  Uiso   1.00
O507   O     0.70127   0.41668   0.72702   0.00000  Uiso   1.00
O508   O     0.50000   0.25000   0.25000   0.00000  Uiso   1.00
O509   O     0.79874   0.08332   0.27298   0.00000  Uiso   1.00
O510   O     0.91668   0.29873   0.72702   0.00000  Uiso   1.00
O511   O     0.58332   0.20126   0.27298   0.00000  Uiso   1.00
O512   O     0.79874   0.08332   0.72702   0.00000  Uiso   1.00
O513   O     0.70127   0.41668   0.27298   0.00000  Uiso   1.00
O514   O     0.58332   0.20126   0.72702   0.00000  Uiso   1.00
O515   O     0.91668   0.29873   0.27298   0.00000  Uiso   1.00
O516   O     0.95127   0.33332   0.77298   0.00000  Uiso   1.00
O517   O     0.54874   0.16668   0.22702   0.00000  Uiso   1.00
O518   O     0.66668   0.45126   0.77298   0.00000  Uiso   1.00
O519   O     0.50000   0.25000   0.75000   0.00000  Uiso   1.00
O520   O     0.83332   0.04873   0.22702   0.00000  Uiso   1.00
O521   O     0.54874   0.16668   0.77298   0.00000  Uiso   1.00
O522   O     0.95127   0.33332   0.22702   0.00000  Uiso   1.00
O523   O     0.83332   0.04873   0.77298   0.00000  Uiso   1.00
O524   O     0.66668   0.45126   0.22702   0.00000  Uiso   1.00
O525   O     0.95127   0.16668   0.22702   0.00000  Uiso   1.00
O526   O     0.54874   0.33332   0.77298   0.00000  Uiso   1.00
O527   O     0.66668   0.04873   0.22702   0.00000  Uiso   1.00
O528   O     0.83332   0.45126   0.77298   0.00000  Uiso   1.00
O529   O     0.54874   0.33332   0.22702   0.00000  Uiso   1.00
O530   O     0.75000   0.46538   0.33749   0.00000  Uiso   1.00
O531   O     0.95127   0.16668   0.77298   0.00000  Uiso   1.00
O532   O     0.83332   0.45126   0.22702   0.00000  Uiso   1.00
O533   O     0.66668   0.04873   0.77298   0.00000  Uiso   1.00
O534   O     0.56196   0.33638   0.40818   0.00000  Uiso   1.00
O535   O     0.50879   0.33948   0.36420   0.00000  Uiso   1.00
O536   O     0.91786   0.17993   0.59924   0.00000  Uiso   1.00
O537   O     0.97514   0.16128   0.63484   0.00000  Uiso   1.00
O538   O     0.66457   0.47791   0.36781   0.00000  Uiso   1.00
O539   O     0.66577   0.42444   0.41154   0.00000  Uiso   1.00
O540   O     0.83367   0.06921   0.59007   0.00000  Uiso   1.00
O541   O     0.75000   0.03461   0.66251   0.00000  Uiso   1.00
O542   O     0.83726   0.01880   0.63665   0.00000  Uiso   1.00
O543   O     0.96626   0.16545   0.36903   0.00000  Uiso   1.00
O544   O     0.52263   0.14316   0.40407   0.00000  Uiso   1.00
O545   O     0.53135   0.33222   0.63045   0.00000  Uiso   1.00
O546   O     0.58094   0.32642   0.58330   0.00000  Uiso   1.00
O547   O     0.83542   0.02166   0.36789   0.00000  Uiso   1.00
O548   O     0.83477   0.07470   0.41205   0.00000  Uiso   1.00
O549   O     0.66458   0.47915   0.63256   0.00000  Uiso   1.00
O550   O     0.66396   0.42627   0.58827   0.00000  Uiso   1.00
O551   O     0.82433   0.07935   0.90912   0.00000  Uiso   1.00
O552   O     0.53462   0.25000   0.33749   0.00000  Uiso   1.00
O553   O     0.77335   0.08649   0.86343   0.00000  Uiso   1.00
O554   O     0.67475   0.42223   0.09099   0.00000  Uiso   1.00
O555   O     0.72629   0.41331   0.13591   0.00000  Uiso   1.00
O556   O     0.91448   0.22844   0.86775   0.00000  Uiso   1.00
O557   O     0.91473   0.17551   0.91204   0.00000  Uiso   1.00
O558   O     0.58368   0.31911   0.09053   0.00000  Uiso   1.00
O559   O     0.58742   0.26818   0.13662   0.00000  Uiso   1.00
O560   O     0.67558   0.42120   0.90932   0.00000  Uiso   1.00
O561   O     0.72665   0.41345   0.86378   0.00000  Uiso   1.00
O562   O     0.77592   0.08524   0.13119   0.00000  Uiso   1.00
O563   O     0.96539   0.25000   0.66251   0.00000  Uiso   1.00
O564   O     0.83177   0.07718   0.09067   0.00000  Uiso   1.00
O565   O     0.58260   0.32007   0.90895   0.00000  Uiso   1.00
O566   O     0.58760   0.26842   0.86364   0.00000  Uiso   1.00
O567   O     0.91453   0.22948   0.13258   0.00000  Uiso   1.00
O568   O     0.91315   0.17718   0.08771   0.00000  Uiso   1.00
O569   O     0.96423   0.10528   0.46126   0.00000  Uiso   1.00
O570   O     0.91143   0.14636   0.43907   0.00000  Uiso   1.00
O571   O     0.97347   0.37237   0.56366   0.00000  Uiso   1.00
O572   O     0.53578   0.39622   0.53975   0.00000  Uiso   1.00
O573   O     0.87155   0.46753   0.43973   0.00000  Uiso   1.00
O574   O     0.75000   0.03461   0.33749   0.00000  Uiso   1.00
O575   O     0.89923   0.02964   0.46025   0.00000  Uiso   1.00
O576   O     0.60314   0.47678   0.53830   0.00000  Uiso   1.00
O577   O     0.62980   0.03653   0.56490   0.00000  Uiso   1.00
O578   O     0.51736   0.39732   0.46319   0.00000  Uiso   1.00
O579   O     0.95706   0.37029   0.43801   0.00000  Uiso   1.00
O580   O     0.99973   0.11858   0.55518   0.00000  Uiso   1.00
O581   O     0.93037   0.11248   0.54160   0.00000  Uiso   1.00
O582   O     0.62767   0.03055   0.43964   0.00000  Uiso   1.00
O583   O     0.60097   0.46807   0.46037   0.00000  Uiso   1.00
O584   O     0.89698   0.02118   0.53810   0.00000  Uiso   1.00
Zn585  Zn    0.70053  -0.00000   0.21730   0.00000  Uiso   1.00
Zn586  Zn    0.54948   0.25000   0.28270   0.00000  Uiso   1.00
Zn587  Zn    0.75000   0.45052   0.71730   0.00000  Uiso   1.00
Zn588  Zn    0.75000   0.04947   0.28270   0.00000  Uiso   1.00
Zn589  Zn    0.54948   0.25000   0.71730   0.00000  Uiso   1.00
Zn590  Zn    0.95053   0.25000   0.28270   0.00000  Uiso   1.00
Zn591  Zn    0.75000   0.04947   0.71730   0.00000  Uiso   1.00
Zn592  Zn    0.75000   0.45052   0.28270   0.00000  Uiso   1.00
Zn593  Zn    0.79948  -0.00000   0.78270   0.00000  Uiso   1.00
Zn594  Zn    0.50000   0.20052   0.21730   0.00000  Uiso   1.00
Zn595  Zn    0.50000   0.29947   0.78270   0.00000  Uiso   1.00
Zn596  Zn    0.79948  -0.00000   0.21730   0.00000  Uiso   1.00
Zn597  Zn    0.70053  -0.00000   0.78270   0.00000  Uiso   1.00
Zn598  Zn    0.50000   0.29947   0.21730   0.00000  Uiso   1.00
Zn599  Zn    0.50000   0.20052   0.78270   0.00000  Uiso   1.00
Zn600  Zn    0.95053   0.25000   0.71730   0.00000  Uiso   1.00
C601   C     0.24999   0.99999   0.35583   0.00000  Uiso   1.00
C602   C     0.33002   0.91998   0.75000   0.00000  Uiso   1.00
C603   C     0.42298   0.74342   0.02046   0.00000  Uiso   1.00
C604   C     0.26258   0.57622   0.97946   0.00000  Uiso   1.00
C605   C     0.23789   0.92393   0.02046   0.00000  Uiso   1.00
C606   C     0.42301   0.74288   0.97956   0.00000  Uiso   1.00
C607   C     0.07672   0.75698   0.02043   0.00000  Uiso   1.00
C608   C     0.02819   0.82242   0.39702   0.00000  Uiso   1.00
C609   C     0.45548   0.68442   0.60551   0.00000  Uiso   1.00
C610   C     0.18011   0.96303   0.39721   0.00000  Uiso   1.00
C611   C     0.32025   0.53584   0.60272   0.00000  Uiso   1.00
C612   C     0.49124   0.67243   0.39523   0.00000  Uiso   1.00
C613   C     0.41998   0.66999   0.25000   0.00000  Uiso   1.00
C614   C     0.04253   0.81540   0.60028   0.00000  Uiso   1.00
C615   C     0.32005   0.53639   0.39743   0.00000  Uiso   1.00
C616   C     0.17947   0.96427   0.60289   0.00000  Uiso   1.00
C617   C     0.28994   0.56816   0.89696   0.00000  Uiso   1.00
C618   C     0.20958   0.93245   0.10281   0.00000  Uiso   1.00
C619   C     0.42968   0.71372   0.89736   0.00000  Uiso   1.00
C620   C     0.07032   0.78558   0.10288   0.00000  Uiso   1.00
C621   C     0.21009   0.93206   0.89719   0.00000  Uiso   1.00
C622   C     0.29106   0.56735   0.10307   0.00000  Uiso   1.00
C623   C     0.06995   0.78610   0.89702   0.00000  Uiso   1.00
C624   C     0.08003   0.83001   0.75001   0.00000  Uiso   1.00
C625   C     0.42916   0.71480   0.10271   0.00000  Uiso   1.00
C626   C     0.44886   0.64045   0.45964   0.00000  Uiso   1.00
C627   C     0.00384   0.86611   0.54266   0.00000  Uiso   1.00
C628   C     0.36702   0.99971   0.45872   0.00000  Uiso   1.00
C629   C     0.13293   0.50093   0.54128   0.00000  Uiso   1.00
C630   C     0.49359   0.86720   0.46041   0.00000  Uiso   1.00
C631   C     0.46867   0.63413   0.54007   0.00000  Uiso   1.00
C632   C     0.13271   0.99850   0.45870   0.00000  Uiso   1.00
C633   C     0.36672   0.99769   0.54145   0.00000  Uiso   1.00
C634   C     0.24409   0.88326   0.95872   0.00000  Uiso   1.00
C635   C     0.33002   0.91998   0.25000   0.00000  Uiso   1.00
C636   C     0.26089   0.61713   0.04112   0.00000  Uiso   1.00
C637   C     0.11698   0.74992   0.95864   0.00000  Uiso   1.00
C638   C     0.38295   0.75253   0.04132   0.00000  Uiso   1.00
C639   C     0.25567   0.61677   0.95867   0.00000  Uiso   1.00
C640   C     0.24289   0.88327   0.04136   0.00000  Uiso   1.00
C641   C     0.38274   0.75045   0.95867   0.00000  Uiso   1.00
C642   C     0.11679   0.74822   0.04132   0.00000  Uiso   1.00
C643   C     0.16998   0.58002   0.75000   0.00000  Uiso   1.00
C644   C     0.08002   0.83001   0.25000   0.00000  Uiso   1.00
C645   C     0.41999   0.66998   0.74999   0.00000  Uiso   1.00
C646   C     0.16999   0.91998   0.75001   0.00000  Uiso   1.00
C647   C     0.33002   0.58001   0.25000   0.00000  Uiso   1.00
C648   C     0.41998   0.83002   0.75000   0.00000  Uiso   1.00
C649   C     0.25003   0.50001   0.64417   0.00000  Uiso   1.00
C650   C     0.08002   0.66998   0.25000   0.00000  Uiso   1.00
C651   C     0.33002   0.58002   0.75000   0.00000  Uiso   1.00
C652   C     0.16999   0.91998   0.24999   0.00000  Uiso   1.00
C653   C     0.08002   0.66998   0.75000   0.00000  Uiso   1.00
C654   C     0.41998   0.83002   0.25000   0.00000  Uiso   1.00
C655   C     0.13834   0.88832   0.24999   0.00000  Uiso   1.00
C656   C     0.36167   0.61166   0.74999   0.00000  Uiso   1.00
C657   C     0.11167   0.63833   0.25000   0.00000  Uiso   1.00
C658   C     0.38833   0.86167   0.75000   0.00000  Uiso   1.00
C659   C     0.36167   0.61166   0.24999   0.00000  Uiso   1.00
C660   C     0.49993   0.74994   0.35579   0.00000  Uiso   1.00
C661   C     0.13834   0.88832   0.75002   0.00000  Uiso   1.00
C662   C     0.38833   0.86167   0.25001   0.00000  Uiso   1.00
C663   C     0.11167   0.63833   0.75000   0.00000  Uiso   1.00
C664   C     0.13833   0.61167   0.75000   0.00000  Uiso   1.00
C665   C     0.36167   0.88833   0.25000   0.00000  Uiso   1.00
C666   C     0.11168   0.86165   0.75001   0.00000  Uiso   1.00
C667   C     0.38833   0.63834   0.25000   0.00000  Uiso   1.00
C668   C     0.36167   0.88833   0.75000   0.00000  Uiso   1.00
C669   C     0.13833   0.61167   0.25000   0.00000  Uiso   1.00
C670   C     0.38834   0.63833   0.74999   0.00000  Uiso   1.00
C671   C     0.49996   0.74991   0.64413   0.00000  Uiso   1.00
C672   C     0.11167   0.86166   0.24999   0.00000  Uiso   1.00
C673   C     0.00794   0.78699   0.41838   0.00000  Uiso   1.00
C674   C     0.48011   0.71527   0.58230   0.00000  Uiso   1.00
C675   C     0.21402   0.98595   0.41834   0.00000  Uiso   1.00
C676   C     0.28599   0.51339   0.58160   0.00000  Uiso   1.00
C677   C     0.48880   0.71236   0.41765   0.00000  Uiso   1.00
C678   C     0.01516   0.78372   0.58078   0.00000  Uiso   1.00
C679   C     0.28594   0.51358   0.41842   0.00000  Uiso   1.00
C680   C     0.21379   0.98657   0.58171   0.00000  Uiso   1.00
C681   C     0.26576   0.53524   0.91829   0.00000  Uiso   1.00
C682   C     0.49995   0.74999   0.85583   0.00000  Uiso   1.00
C683   C     0.23415   0.96509   0.08157   0.00000  Uiso   1.00
C684   C     0.46383   0.73643   0.91838   0.00000  Uiso   1.00
C685   C     0.03602   0.76336   0.08163   0.00000  Uiso   1.00
C686   C     0.23443   0.96491   0.91840   0.00000  Uiso   1.00
C687   C     0.26636   0.53503   0.08167   0.00000  Uiso   1.00
C688   C     0.03587   0.76365   0.91834   0.00000  Uiso   1.00
C689   C     0.46366   0.73698   0.08166   0.00000  Uiso   1.00
C690   C     0.49907   0.74979   0.39811   0.00000  Uiso   1.00
C691   C     0.49937   0.74920   0.60170   0.00000  Uiso   1.00
C692   C     0.24996   0.99991   0.39818   0.00000  Uiso   1.00
C693   C     0.49999   0.75001   0.14417   0.00000  Uiso   1.00
C694   C     0.24993   0.50002   0.60185   0.00000  Uiso   1.00
C695   C     0.25002   0.50007   0.89816   0.00000  Uiso   1.00
C696   C     0.25008   0.50007   0.10180   0.00000  Uiso   1.00
C697   C     0.49988   0.74999   0.89817   0.00000  Uiso   1.00
C698   C     0.49990   0.75006   0.10184   0.00000  Uiso   1.00
C699   C     0.48377   0.71261   0.45862   0.00000  Uiso   1.00
C700   C     0.00628   0.78674   0.54067   0.00000  Uiso   1.00
C701   C     0.28790   0.50750   0.45908   0.00000  Uiso   1.00
C702   C     0.21188   0.99230   0.54099   0.00000  Uiso   1.00
C703   C     0.00235   0.78819   0.45913   0.00000  Uiso   1.00
C704   C     0.25000   0.50002   0.85583   0.00000  Uiso   1.00
C705   C     0.48238   0.71299   0.54116   0.00000  Uiso   1.00
C706   C     0.21198   0.99178   0.45905   0.00000  Uiso   1.00
C707   C     0.28791   0.50721   0.54094   0.00000  Uiso   1.00
C708   C     0.24040   0.96260   0.95907   0.00000  Uiso   1.00
C709   C     0.26100   0.53742   0.04093   0.00000  Uiso   1.00
C710   C     0.03786   0.75769   0.95904   0.00000  Uiso   1.00
C711   C     0.46178   0.74292   0.04096   0.00000  Uiso   1.00
C712   C     0.26012   0.53751   0.95900   0.00000  Uiso   1.00
C713   C     0.24017   0.96271   0.04092   0.00000  Uiso   1.00
C714   C     0.46185   0.74246   0.95906   0.00000  Uiso   1.00
C715   C     0.25001   0.50000   0.14416   0.00000  Uiso   1.00
C716   C     0.03791   0.75739   0.04093   0.00000  Uiso   1.00
C717   C     0.49326   0.75017   0.47934   0.00000  Uiso   1.00
C718   C     0.49376   0.74992   0.52036   0.00000  Uiso   1.00
C719   C     0.24992   0.99967   0.47955   0.00000  Uiso   1.00
C720   C     0.24990   0.99972   0.52047   0.00000  Uiso   1.00
C721   C     0.25039   0.50006   0.97953   0.00000  Uiso   1.00
C722   C     0.25050   0.50008   0.02044   0.00000  Uiso   1.00
C723   C     0.49986   0.75008   0.97954   0.00000  Uiso   1.00
C724   C     0.49985   0.75012   0.02045   0.00000  Uiso   1.00
C725   C     0.46993   0.67648   0.47952   0.00000  Uiso   1.00
C726   C     0.16998   0.58002   0.25000   0.00000  Uiso   1.00
C727   C     0.00710   0.82588   0.52080   0.00000  Uiso   1.00
C728   C     0.32674   0.50722   0.47959   0.00000  Uiso   1.00
C729   C     0.17308   0.99230   0.52046   0.00000  Uiso   1.00
C730   C     0.00361   0.82667   0.48011   0.00000  Uiso   1.00
C731   C     0.47238   0.67568   0.52028   0.00000  Uiso   1.00
C732   C     0.17313   0.99168   0.47956   0.00000  Uiso   1.00
C733   C     0.32674   0.50674   0.52049   0.00000  Uiso   1.00
C734   C     0.23821   0.92386   0.97958   0.00000  Uiso   1.00
C735   C     0.26398   0.57613   0.02034   0.00000  Uiso   1.00
C736   C     0.07669   0.75740   0.97953   0.00000  Uiso   1.00
H737   H     0.02579   0.86316   0.35223   0.00000  Uiso   1.00
H738   H     0.20648   0.89176   0.14762   0.00000  Uiso   1.00
H739   H     0.39136   0.66311   0.89562   0.00000  Uiso   1.00
H740   H     0.11038   0.78639   0.14824   0.00000  Uiso   1.00
H741   H     0.20702   0.89170   0.85214   0.00000  Uiso   1.00
H742   H     0.34560   0.59939   0.10748   0.00000  Uiso   1.00
H743   H     0.11033   0.78684   0.85188   0.00000  Uiso   1.00
H744   H     0.38955   0.66524   0.10415   0.00000  Uiso   1.00
H745   H     0.40108   0.67649   0.44013   0.00000  Uiso   1.00
H746   H     0.03007   0.92197   0.55626   0.00000  Uiso   1.00
H747   H     0.42482   0.52101   0.44461   0.00000  Uiso   1.00
H748   H     0.45494   0.64173   0.64877   0.00000  Uiso   1.00
H749   H     0.10126   0.53897   0.57785   0.00000  Uiso   1.00
H750   H     0.45365   0.89909   0.42576   0.00000  Uiso   1.00
H751   H     0.40632   0.62895   0.52971   0.00000  Uiso   1.00
H752   H     0.07522   0.97625   0.44475   0.00000  Uiso   1.00
H753   H     0.39761   0.95969   0.57862   0.00000  Uiso   1.00
H754   H     0.27978   0.84920   0.92195   0.00000  Uiso   1.00
H755   H     0.32063   0.63387   0.02856   0.00000  Uiso   1.00
H756   H     0.17473   0.77131   0.94445   0.00000  Uiso   1.00
H757   H     0.35183   0.79089   0.07802   0.00000  Uiso   1.00
H758   H     0.21927   0.64988   0.92175   0.00000  Uiso   1.00
H759   H     0.14251   0.91191   0.39506   0.00000  Uiso   1.00
H760   H     0.21797   0.82702   0.05568   0.00000  Uiso   1.00
H761   H     0.32483   0.72934   0.94472   0.00000  Uiso   1.00
H762   H     0.14812   0.71032   0.07826   0.00000  Uiso   1.00
H763   H     0.36022   0.53713   0.64815   0.00000  Uiso   1.00
H764   H     0.02128   0.61729   0.38692   0.00000  Uiso   1.00
H765   H     0.09677   0.84832   0.59891   0.00000  Uiso   1.00
H766   H     0.35809   0.58718   0.39560   0.00000  Uiso   1.00
H767   H     0.14051   0.91423   0.60482   0.00000  Uiso   1.00
H768   H     0.29286   0.60832   0.85174   0.00000  Uiso   1.00
O769   O     0.25000   0.50000   0.25000   0.00000  Uiso   1.00
O770   O     0.25000   0.96538   0.66251   0.00000  Uiso   1.00
O771   O     0.36912   0.96247   0.56563   0.00000  Uiso   1.00
O772   O     0.21806   0.85512   0.96183   0.00000  Uiso   1.00
O773   O     0.27928   0.87784   0.93490   0.00000  Uiso   1.00
O774   O     0.22834   0.62621   0.05796   0.00000  Uiso   1.00
O775   O     0.29468   0.64531   0.04200   0.00000  Uiso   1.00
O776   O     0.12154   0.71772   0.93970   0.00000  Uiso   1.00
O777   O     0.14911   0.77994   0.96006   0.00000  Uiso   1.00
O778   O     0.35281   0.72884   0.03825   0.00000  Uiso   1.00
O779   O     0.38035   0.78807   0.06509   0.00000  Uiso   1.00
O780   O     0.28065   0.64579   0.96219   0.00000  Uiso   1.00
O781   O     0.46539   0.75000   0.33749   0.00000  Uiso   1.00
O782   O     0.22058   0.62120   0.93457   0.00000  Uiso   1.00
O783   O     0.27480   0.87671   0.06022   0.00000  Uiso   1.00
O784   O     0.21091   0.85308   0.04003   0.00000  Uiso   1.00
O785   O     0.37835   0.78255   0.93953   0.00000  Uiso   1.00
O786   O     0.35040   0.72067   0.96036   0.00000  Uiso   1.00
O787   O     0.14678   0.77208   0.03811   0.00000  Uiso   1.00
O788   O     0.11961   0.71286   0.06529   0.00000  Uiso   1.00
O789   O     0.03462   0.75000   0.66251   0.00000  Uiso   1.00
O790   O     0.00000   0.71538   0.83749   0.00000  Uiso   1.00
O791   O     0.00000   0.78461   0.16251   0.00000  Uiso   1.00
O792   O     0.28462   0.50000   0.83749   0.00000  Uiso   1.00
O793   O     0.21539   0.50000   0.16251   0.00000  Uiso   1.00
O794   O     0.00000   0.78461   0.83749   0.00000  Uiso   1.00
O795   O     0.00000   0.71538   0.16251   0.00000  Uiso   1.00
O796   O     0.21539   0.50000   0.83749   0.00000  Uiso   1.00
O797   O     0.25000   0.50000   0.75000   0.00000  Uiso   1.00
O798   O     0.28462   0.50000   0.16251   0.00000  Uiso   1.00
O799   O     0.20127   0.58332   0.27298   0.00000  Uiso   1.00
O800   O     0.29874   0.91668   0.72702   0.00000  Uiso   1.00
O801   O     0.41668   0.70126   0.27298   0.00000  Uiso   1.00
O802   O     0.08332   0.79873   0.72702   0.00000  Uiso   1.00
O803   O     0.29874   0.91668   0.27298   0.00000  Uiso   1.00
O804   O     0.20127   0.58332   0.72702   0.00000  Uiso   1.00
O805   O     0.08332   0.79873   0.27298   0.00000  Uiso   1.00
O806   O     0.41668   0.70126   0.72702   0.00000  Uiso   1.00
O807   O     0.20127   0.91668   0.72702   0.00000  Uiso   1.00
O808   O     0.00000   0.75000   0.25000   0.00000  Uiso   1.00
O809   O     0.29874   0.58332   0.27298   0.00000  Uiso   1.00
O810   O     0.41668   0.79873   0.72702   0.00000  Uiso   1.00
O811   O     0.08332   0.70126   0.27298   0.00000  Uiso   1.00
O812   O     0.29874   0.58332   0.72702   0.00000  Uiso   1.00
O813   O     0.20127   0.91668   0.27298   0.00000  Uiso   1.00
O814   O     0.08332   0.70126   0.72702   0.00000  Uiso   1.00
O815   O     0.41668   0.79873   0.27298   0.00000  Uiso   1.00
O816   O     0.45127   0.83332   0.77298   0.00000  Uiso   1.00
O817   O     0.04874   0.66668   0.22702   0.00000  Uiso   1.00
O818   O     0.16668   0.95126   0.77298   0.00000  Uiso   1.00
O819   O     0.00000   0.75000   0.75000   0.00000  Uiso   1.00
O820   O     0.33332   0.54873   0.22702   0.00000  Uiso   1.00
O821   O     0.04874   0.66668   0.77298   0.00000  Uiso   1.00
O822   O     0.45127   0.83332   0.22702   0.00000  Uiso   1.00
O823   O     0.33332   0.54873   0.77298   0.00000  Uiso   1.00
O824   O     0.16668   0.95126   0.22702   0.00000  Uiso   1.00
O825   O     0.45127   0.66668   0.22702   0.00000  Uiso   1.00
O826   O     0.04874   0.83332   0.77298   0.00000  Uiso   1.00
O827   O     0.16668   0.54873   0.22702   0.00000  Uiso   1.00
O828   O     0.33332   0.95126   0.77298   0.00000  Uiso   1.00
O829   O     0.04874   0.83332   0.22702   0.00000  Uiso   1.00
O830   O     0.25000   0.96538   0.33749   0.00000  Uiso   1.00
O831   O     0.45127   0.66668   0.77298   0.00000  Uiso   1.00
O832   O     0.33332   0.95126   0.22702   0.00000  Uiso   1.00
O833   O     0.16668   0.54873   0.77298   0.00000  Uiso   1.00
O834   O     0.06196   0.83638   0.40818   0.00000  Uiso   1.00
O835   O     0.00879   0.83948   0.36420   0.00000  Uiso   1.00
O836   O     0.41786   0.67993   0.59924   0.00000  Uiso   1.00
O837   O     0.47514   0.66128   0.63484   0.00000  Uiso   1.00
O838   O     0.16457   0.97791   0.36781   0.00000  Uiso   1.00
O839   O     0.16577   0.92444   0.41154   0.00000  Uiso   1.00
O840   O     0.33367   0.56921   0.59007   0.00000  Uiso   1.00
O841   O     0.25000   0.53461   0.66251   0.00000  Uiso   1.00
O842   O     0.33726   0.51880   0.63665   0.00000  Uiso   1.00
O843   O     0.46626   0.66545   0.36903   0.00000  Uiso   1.00
O844   O     0.02263   0.64316   0.40407   0.00000  Uiso   1.00
O845   O     0.03135   0.83222   0.63045   0.00000  Uiso   1.00
O846   O     0.08094   0.82642   0.58330   0.00000  Uiso   1.00
O847   O     0.33542   0.52166   0.36789   0.00000  Uiso   1.00
O848   O     0.33477   0.57470   0.41205   0.00000  Uiso   1.00
O849   O     0.16458   0.97915   0.63256   0.00000  Uiso   1.00
O850   O     0.16396   0.92627   0.58827   0.00000  Uiso   1.00
O851   O     0.32433   0.57935   0.90912   0.00000  Uiso   1.00
O852   O     0.03462   0.75000   0.33749   0.00000  Uiso   1.00
O853   O     0.27335   0.58649   0.86343   0.00000  Uiso   1.00
O854   O     0.17475   0.92223   0.09099   0.00000  Uiso   1.00
O855   O     0.22629   0.91331   0.13591   0.00000  Uiso   1.00
O856   O     0.41448   0.72844   0.86775   0.00000  Uiso   1.00
O857   O     0.41473   0.67551   0.91204   0.00000  Uiso   1.00
O858   O     0.08368   0.81911   0.09053   0.00000  Uiso   1.00
O859   O     0.08742   0.76818   0.13662   0.00000  Uiso   1.00
O860   O     0.17558   0.92120   0.90932   0.00000  Uiso   1.00
O861   O     0.22665   0.91345   0.86378   0.00000  Uiso   1.00
O862   O     0.27592   0.58524   0.13119   0.00000  Uiso   1.00
O863   O     0.46539   0.75000   0.66251   0.00000  Uiso   1.00
O864   O     0.33177   0.57718   0.09067   0.00000  Uiso   1.00
O865   O     0.08260   0.82007   0.90895   0.00000  Uiso   1.00
O866   O     0.08760   0.76842   0.86364   0.00000  Uiso   1.00
O867   O     0.41453   0.72948   0.13258   0.00000  Uiso   1.00
O868   O     0.41315   0.67718   0.08771   0.00000  Uiso   1.00
O869   O     0.46423   0.60528   0.46126   0.00000  Uiso   1.00
O870   O     0.41143   0.64636   0.43907   0.00000  Uiso   1.00
O871   O     0.47347   0.87237   0.56366   0.00000  Uiso   1.00
O872   O     0.03578   0.89622   0.53975   0.00000  Uiso   1.00
O873   O     0.37155   0.96753   0.43973   0.00000  Uiso   1.00
O874   O     0.25000   0.53461   0.33749   0.00000  Uiso   1.00
O875   O     0.39923   0.52964   0.46025   0.00000  Uiso   1.00
O876   O     0.10314   0.97678   0.53830   0.00000  Uiso   1.00
O877   O     0.12980   0.53653   0.56490   0.00000  Uiso   1.00
O878   O     0.01736   0.89732   0.46319   0.00000  Uiso   1.00
O879   O     0.45706   0.87029   0.43801   0.00000  Uiso   1.00
O880   O     0.49973   0.61858   0.55518   0.00000  Uiso   1.00
O881   O     0.43037   0.61248   0.54160   0.00000  Uiso   1.00
O882   O     0.12767   0.53055   0.43964   0.00000  Uiso   1.00
O883   O     0.10097   0.96807   0.46037   0.00000  Uiso   1.00
O884   O     0.39698   0.52118   0.53810   0.00000  Uiso   1.00
Zn885  Zn    0.20053   0.50000   0.21730   0.00000  Uiso   1.00
Zn886  Zn    0.04948   0.75000   0.28270   0.00000  Uiso   1.00
Zn887  Zn    0.25000   0.95052   0.71730   0.00000  Uiso   1.00
Zn888  Zn    0.25000   0.54947   0.28270   0.00000  Uiso   1.00
Zn889  Zn    0.04948   0.75000   0.71730   0.00000  Uiso   1.00
Zn890  Zn    0.45053   0.75000   0.28270   0.00000  Uiso   1.00
Zn891  Zn    0.25000   0.54947   0.71730   0.00000  Uiso   1.00
Zn892  Zn    0.25000   0.95052   0.28270   0.00000  Uiso   1.00
Zn893  Zn    0.29948   0.50000   0.78270   0.00000  Uiso   1.00
Zn894  Zn    0.00000   0.70052   0.21730   0.00000  Uiso   1.00
Zn895  Zn    0.00000   0.79947   0.78270   0.00000  Uiso   1.00
Zn896  Zn    0.29948   0.50000   0.21730   0.00000  Uiso   1.00
Zn897  Zn    0.20053   0.50000   0.78270   0.00000  Uiso   1.00
Zn898  Zn    0.00000   0.79947   0.21730   0.00000  Uiso   1.00
Zn899  Zn    0.00000   0.70052   0.78270   0.00000  Uiso   1.00
Zn900  Zn    0.45053   0.75000   0.71730   0.00000  Uiso   1.00
C901   C     0.74999   0.99999   0.35583   0.00000  Uiso   1.00
C902   C     0.83002   0.91998   0.75000   0.00000  Uiso   1.00
C903   C     0.92298   0.74342   0.02046   0.00000  Uiso   1.00
C904   C     0.76258   0.57622   0.97946   0.00000  Uiso   1.00
C905   C     0.73789   0.92393   0.02046   0.00000  Uiso   1.00
C906   C     0.92301   0.74288   0.97956   0.00000  Uiso   1.00
C907   C     0.57672   0.75698   0.02043   0.00000  Uiso   1.00
C908   C     0.52819   0.82242   0.39702   0.00000  Uiso   1.00
C909   C     0.95548   0.68442   0.60551   0.00000  Uiso   1.00
C910   C     0.68011   0.96303   0.39721   0.00000  Uiso   1.00
C911   C     0.82025   0.53584   0.60272   0.00000  Uiso   1.00
C912   C     0.99124   0.67243   0.39523   0.00000  Uiso   1.00
C913   C     0.91998   0.66999   0.25000   0.00000  Uiso   1.00
C914   C     0.54253   0.81540   0.60028   0.00000  Uiso   1.00
C915   C     0.82005   0.53639   0.39743   0.00000  Uiso   1.00
C916   C     0.67947   0.96427   0.60289   0.00000  Uiso   1.00
C917   C     0.78994   0.56816   0.89696   0.00000  Uiso   1.00
C918   C     0.70958   0.93245   0.10281   0.00000  Uiso   1.00
C919   C     0.92968   0.71372   0.89736   0.00000  Uiso   1.00
C920   C     0.57032   0.78558   0.10288   0.00000  Uiso   1.00
C921   C     0.71009   0.93206   0.89719   0.00000  Uiso   1.00
C922   C     0.79106   0.56735   0.10307   0.00000  Uiso   1.00
C923   C     0.56995   0.78610   0.89702   0.00000  Uiso   1.00
C924   C     0.58003   0.83001   0.75001   0.00000  Uiso   1.00
C925   C     0.92916   0.71480   0.10271   0.00000  Uiso   1.00
C926   C     0.94886   0.64045   0.45964   0.00000  Uiso   1.00
C927   C     0.50384   0.86611   0.54266   0.00000  Uiso   1.00
C928   C     0.86702   0.99971   0.45872   0.00000  Uiso   1.00
C929   C     0.63293   0.50093   0.54128   0.00000  Uiso   1.00
C930   C     0.99359   0.86720   0.46041   0.00000  Uiso   1.00
C931   C     0.96867   0.63413   0.54007   0.00000  Uiso   1.00
C932   C     0.63271   0.99850   0.45870   0.00000  Uiso   1.00
C933   C     0.86672   0.99769   0.54145   0.00000  Uiso   1.00
C934   C     0.74409   0.88326   0.95872   0.00000  Uiso   1.00
C935   C     0.83002   0.91998   0.25000   0.00000  Uiso   1.00
C936   C     0.76089   0.61713   0.04112   0.00000  Uiso   1.00
C937   C     0.61698   0.74992   0.95864   0.00000  Uiso   1.00
C938   C     0.88295   0.75253   0.04132   0.00000  Uiso   1.00
C939   C     0.75567   0.61677   0.95867   0.00000  Uiso   1.00
C940   C     0.74289   0.88327   0.04136   0.00000  Uiso   1.00
C941   C     0.88274   0.75045   0.95867   0.00000  Uiso   1.00
C942   C     0.61679   0.74822   0.04132   0.00000  Uiso   1.00
C943   C     0.66998   0.58002   0.75000   0.00000  Uiso   1.00
C944   C     0.58002   0.83001   0.25000   0.00000  Uiso   1.00
C945   C     0.91999   0.66998   0.74999   0.00000  Uiso   1.00
C946   C     0.66999   0.91998   0.75001   0.00000  Uiso   1.00
C947   C     0.83002   0.58001   0.25000   0.00000  Uiso   1.00
C948   C     0.91998   0.83002   0.75000   0.00000  Uiso   1.00
C949   C     0.75003   0.50001   0.64417   0.00000  Uiso   1.00
C950   C     0.58002   0.66998   0.25000   0.00000  Uiso   1.00
C951   C     0.83002   0.58002   0.75000   0.00000  Uiso   1.00
C952   C     0.66999   0.91998   0.24999   0.00000  Uiso   1.00
C953   C     0.58002   0.66998   0.75000   0.00000  Uiso   1.00
C954   C     0.91998   0.83002   0.25000   0.00000  Uiso   1.00
C955   C     0.63834   0.88832   0.24999   0.00000  Uiso   1.00
C956   C     0.86167   0.61166   0.74999   0.00000  Uiso   1.00
C957   C     0.61167   0.63833   0.25000   0.00000  Uiso   1.00
C958   C     0.88833   0.86167   0.75000   0.00000  Uiso   1.00
C959   C     0.86167   0.61166   0.24999   0.00000  Uiso   1.00
C960   C     0.99993   0.74994   0.35579   0.00000  Uiso   1.00
C961   C     0.63834   0.88832   0.75002   0.00000  Uiso   1.00
C962   C     0.88833   0.86167   0.25001   0.00000  Uiso   1.00
C963   C     0.61167   0.63833   0.75000   0.00000  Uiso   1.00
C964   C     0.63833   0.61167   0.75000   0.00000  Uiso   1.00
C965   C     0.86167   0.88833   0.25000   0.00000  Uiso   1.00
C966   C     0.61168   0.86165   0.75001   0.00000  Uiso   1.00
C967   C     0.88833   0.63834   0.25000   0.00000  Uiso   1.00
C968   C     0.86167   0.88833   0.75000   0.00000  Uiso   1.00
C969   C     0.63833   0.61167   0.25000   0.00000  Uiso   1.00
C970   C     0.88834   0.63833   0.74999   0.00000  Uiso   1.00
C971   C     0.99996   0.74991   0.64413   0.00000  Uiso   1.00
C972   C     0.61167   0.86166   0.24999   0.00000  Uiso   1.00
C973   C     0.50794   0.78699   0.41838   0.00000  Uiso   1.00
C974   C     0.98011   0.71527   0.58230   0.00000  Uiso   1.00
C975   C     0.71402   0.98595   0.41834   0.00000  Uiso   1.00
C976   C     0.78599   0.51339   0.58160   0.00000  Uiso   1.00
C977   C     0.98880   0.71236   0.41765   0.00000  Uiso   1.00
C978   C     0.51516   0.78372   0.58078   0.00000  Uiso   1.00
C979   C     0.78594   0.51358   0.41842   0.00000  Uiso   1.00
C980   C     0.71379   0.98657   0.58171   0.00000  Uiso   1.00
C981   C     0.76576   0.53524   0.91829   0.00000  Uiso   1.00
C982   C     0.99995   0.74999   0.85583   0.00000  Uiso   1.00
C983   C     0.73415   0.96509   0.08157   0.00000  Uiso   1.00
C984   C     0.96383   0.73643   0.91838   0.00000  Uiso   1.00
C985   C     0.53602   0.76336   0.08163   0.00000  Uiso   1.00
C986   C     0.73443   0.96491   0.91840   0.00000  Uiso   1.00
C987   C     0.76636   0.53503   0.08167   0.00000  Uiso   1.00
C988   C     0.53587   0.76365   0.91834   0.00000  Uiso   1.00
C989   C     0.96366   0.73698   0.08166   0.00000  Uiso   1.00
C990   C     0.99907   0.74979   0.39811   0.00000  Uiso   1.00
C991   C     0.99937   0.74920   0.60170   0.00000  Uiso   1.00
C992   C     0.74996   0.99991   0.39818   0.00000  Uiso   1.00
C993   C     0.99999   0.75001   0.14417   0.00000  Uiso   1.00
C994   C     0.74993   0.50002   0.60185   0.00000  Uiso   1.00
C995   C     0.75002   0.50007   0.89816   0.00000  Uiso   1.00
C996   C     0.75008   0.50007   0.10180   0.00000  Uiso   1.00
C997   C     0.99988   0.74999   0.89817   0.00000  Uiso   1.00
C998   C     0.99990   0.75006   0.10184   0.00000  Uiso   1.00
C999   C     0.98377   0.71261   0.45862   0.00000  Uiso   1.00
C1000  C     0.50628   0.78674   0.54067   0.00000  Uiso   1.00
C1001  C     0.78790   0.50750   0.45908   0.00000  Uiso   1.00
C1002  C     0.71188   0.99230   0.54099   0.00000  Uiso   1.00
C1003  C     0.50235   0.78819   0.45913   0.00000  Uiso   1.00
C1004  C     0.75000   0.50002   0.85583   0.00000  Uiso   1.00
C1005  C     0.98238   0.71299   0.54116   0.00000  Uiso   1.00
C1006  C     0.71198   0.99178   0.45905   0.00000  Uiso   1.00
C1007  C     0.78791   0.50721   0.54094   0.00000  Uiso   1.00
C1008  C     0.74040   0.96260   0.95907   0.00000  Uiso   1.00
C1009  C     0.76100   0.53742   0.04093   0.00000  Uiso   1.00
C1010  C     0.53786   0.75769   0.95904   0.00000  Uiso   1.00
C1011  C     0.96178   0.74292   0.04096   0.00000  Uiso   1.00
C1012  C     0.76012   0.53751   0.95900   0.00000  Uiso   1.00
C1013  C     0.74017   0.96271   0.04092   0.00000  Uiso   1.00
C1014  C     0.96185   0.74246   0.95906   0.00000  Uiso   1.00
C1015  C     0.75001   0.50000   0.14416   0.00000  Uiso   1.00
C1016  C     0.53791   0.75739   0.04093   0.00000  Uiso   1.00
C1017  C     0.99326   0.75017   0.47934   0.00000  Uiso   1.00
C1018  C     0.99376   0.74992   0.52036   0.00000  Uiso   1.00
C1019  C     0.74992   0.99967   0.47955   0.00000  Uiso   1.00
C1020  C     0.74990   0.99972   0.52047   0.00000  Uiso   1.00
C1021  C     0.75039   0.50006   0.97953   0.00000  Uiso   1.00
C1022  C     0.75050   0.50008   0.02044   0.00000  Uiso   1.00
C1023  C     0.99986   0.75008   0.97954   0.00000  Uiso   1.00
C1024  C     0.99985   0.75012   0.02045   0.00000  Uiso   1.00
C1025  C     0.96993   0.67648   0.47952   0.00000  Uiso   1.00
C1026  C     0.66998   0.58002   0.25000   0.00000  Uiso   1.00
C1027  C     0.50710   0.82588   0.52080   0.00000  Uiso   1.00
C1028  C     0.82674   0.50722   0.47959   0.00000  Uiso   1.00
C1029  C     0.67308   0.99230   0.52046   0.00000  Uiso   1.00
C1030  C     0.50361   0.82667   0.48011   0.00000  Uiso   1.00
C1031  C     0.97238   0.67568   0.52028   0.00000  Uiso   1.00
C1032  C     0.67313   0.99168   0.47956   0.00000  Uiso   1.00
C1033  C     0.82674   0.50674   0.52049   0.00000  Uiso   1.00
C1034  C     0.73821   0.92386   0.97958   0.00000  Uiso   1.00
C1035  C     0.76398   0.57613   0.02034   0.00000  Uiso   1.00
C1036  C     0.57669   0.75740   0.97953   0.00000  Uiso   1.00
H1037  H     0.52579   0.86316   0.35223   0.00000  Uiso   1.00
H1038  H     0.70648   0.89176   0.14762   0.00000  Uiso   1.00
H1039  H     0.89136   0.66311   0.89562   0.00000  Uiso   1.00
H1040  H     0.61038   0.78639   0.14824   0.00000  Uiso   1.00
H1041  H     0.70702   0.89170   0.85214   0.00000  Uiso   1.00
H1042  H     0.84560   0.59939   0.10748   0.00000  Uiso   1.00
H1043  H     0.61033   0.78684   0.85188   0.00000  Uiso   1.00
H1044  H     0.88955   0.66524   0.10415   0.00000  Uiso   1.00
H1045  H     0.90108   0.67649   0.44013   0.00000  Uiso   1.00
H1046  H     0.53007   0.92197   0.55626   0.00000  Uiso   1.00
H1047  H     0.92482   0.52101   0.44461   0.00000  Uiso   1.00
H1048  H     0.95494   0.64173   0.64877   0.00000  Uiso   1.00
H1049  H     0.60126   0.53897   0.57785   0.00000  Uiso   1.00
H1050  H     0.95365   0.89909   0.42576   0.00000  Uiso   1.00
H1051  H     0.90632   0.62895   0.52971   0.00000  Uiso   1.00
H1052  H     0.57522   0.97625   0.44475   0.00000  Uiso   1.00
H1053  H     0.89761   0.95969   0.57862   0.00000  Uiso   1.00
H1054  H     0.77978   0.84920   0.92195   0.00000  Uiso   1.00
H1055  H     0.82063   0.63387   0.02856   0.00000  Uiso   1.00
H1056  H     0.67473   0.77131   0.94445   0.00000  Uiso   1.00
H1057  H     0.85183   0.79089   0.07802   0.00000  Uiso   1.00
H1058  H     0.71927   0.64988   0.92175   0.00000  Uiso   1.00
H1059  H     0.64251   0.91191   0.39506   0.00000  Uiso   1.00
H1060  H     0.71797   0.82702   0.05568   0.00000  Uiso   1.00
H1061  H     0.82483   0.72934   0.94472   0.00000  Uiso   1.00
H1062  H     0.64812   0.71032   0.07826   0.00000  Uiso   1.00
H1063  H     0.86022   0.53713   0.64815   0.00000  Uiso   1.00
H1064  H     0.52128   0.61729   0.38692   0.00000  Uiso   1.00
H1065  H     0.59677   0.84832   0.59891   0.00000  Uiso   1.00
H1066  H     0.85809   0.58718   0.39560   0.00000  Uiso   1.00
H1067  H     0.64051   0.91423   0.60482   0.00000  Uiso   1.00
H1068  H     0.79286   0.60832   0.85174   0.00000  Uiso   1.00
O1069  O     0.75000   0.50000   0.25000   0.00000  Uiso   1.00
O1070  O     0.75000   0.96538   0.66251   0.00000  Uiso   1.00
O1071  O     0.86912   0.96247   0.56563   0.00000  Uiso   1.00
O1072  O     0.71806   0.85512   0.96183   0.00000  Uiso   1.00
O1073  O     0.77928   0.87784   0.93490   0.00000  Uiso   1.00
O1074  O     0.72834   0.62621   0.05796   0.00000  Uiso   1.00
O1075  O     0.79468   0.64531   0.04200   0.00000  Uiso   1.00
O1076  O     0.62154   0.71772   0.93970   0.00000  Uiso   1.00
O1077  O     0.64911   0.77994   0.96006   0.00000  Uiso   1.00
O1078  O     0.85281   0.72884   0.03825   0.00000  Uiso   1.00
O1079  O     0.88035   0.78807   0.06509   0.00000  Uiso   1.00
O1080  O     0.78065   0.64579   0.96219   0.00000  Uiso   1.00
O1081  O     0.96539   0.75000   0.33749   0.00000  Uiso   1.00
O1082  O     0.72058   0.62120   0.93457   0.00000  Uiso   1.00
O1083  O     0.77480   0.87671   0.06022   0.00000  Uiso   1.00
O1084  O     0.71091   0.85308   0.04003   0.00000  Uiso   1.00
O1085  O     0.87835   0.78255   0.93953   0.00000  Uiso   1.00
O1086  O     0.85040   0.72067   0.96036   0.00000  Uiso   1.00
O1087  O     0.64678   0.77208   0.03811   0.00000  Uiso   1.00
O1088  O     0.61961   0.71286   0.06529   0.00000  Uiso   1.00
O1089  O     0.53462   0.75000   0.66251   0.00000  Uiso   1.00
O1090  O     0.50000   0.71538   0.83749   0.00000  Uiso   1.00
O1091  O     0.50000   0.78461   0.16251   0.00000  Uiso   1.00
O1092  O     0.78462   0.50000   0.83749   0.00000  Uiso   1.00
O1093  O     0.71539   0.50000   0.16251   0.00000  Uiso   1.00
O1094  O     0.50000   0.78461   0.83749   0.00000  Uiso   1.00
O1095  O     0.50000   0.71538   0.16251   0.00000  Uiso   1.00
O1096  O     0.71539   0.50000   0.83749   0.00000  Uiso   1.00
O1097  O     0.75000   0.50000   0.75000   0.00000  Uiso   1.00
O1098  O     0.78462   0.50000   0.16251   0.00000  Uiso   1.00
O1099  O     0.70127   0.58332   0.27298   0.00000  Uiso   1.00
O1100  O     0.79874   0.91668   0.72702   0.00000  Uiso   1.00
O1101  O     0.91668   0.70126   0.27298   0.00000  Uiso   1.00
O1102  O     0.58332   0.79873   0.72702   0.00000  Uiso   1.00
O1103  O     0.79874   0.91668   0.27298   0.00000  Uiso   1.00
O1104  O     0.70127   0.58332   0.72702   0.00000  Uiso   1.00
O1105  O     0.58332   0.79873   0.27298   0.00000  Uiso   1.00
O1106  O     0.91668   0.70126   0.72702   0.00000  Uiso   1.00
O1107  O     0.70127   0.91668   0.72702   0.00000  Uiso   1.00
O1108  O     0.50000   0.75000   0.25000   0.00000  Uiso   1.00
O1109  O     0.79874   0.58332   0.27298   0.00000  Uiso   1.00
O1110  O     0.91668   0.79873   0.72702   0.00000  Uiso   1.00
O1111  O     0.58332   0.70126   0.27298   0.00000  Uiso   1.00
O1112  O     0.79874   0.58332   0.72702   0.00000  Uiso   1.00
O1113  O     0.70127   0.91668   0.27298   0.00000  Uiso   1.00
O1114  O     0.58332   0.70126   0.72702   0.00000  Uiso   1.00
O1115  O     0.91668   0.79873   0.27298   0.00000  Uiso   1.00
O1116  O     0.95127   0.83332   0.77298   0.00000  Uiso   1.00
O1117  O     0.54874   0.66668   0.22702   0.00000  Uiso   1.00
O1118  O     0.66668   0.95126   0.77298   0.00000  Uiso   1.00
O1119  O     0.50000   0.75000   0.75000   0.00000  Uiso   1.00
O1120  O     0.83332   0.54873   0.22702   0.00000  Uiso   1.00
O1121  O     0.54874   0.66668   0.77298   0.00000  Uiso   1.00
O1122  O     0.95127   0.83332   0.22702   0.00000  Uiso   1.00
O1123  O     0.83332   0.54873   0.77298   0.00000  Uiso   1.00
O1124  O     0.66668   0.95126   0.22702   0.00000  Uiso   1.00
O1125  O     0.95127   0.66668   0.22702   0.00000  Uiso   1.00
O1126  O     0.54874   0.83332   0.77298   0.00000  Uiso   1.00
O1127  O     0.66668   0.54873   0.22702   0.00000  Uiso   1.00
O1128  O     0.83332   0.95126   0.77298   0.00000  Uiso   1.00
O1129  O     0.54874   0.83332   0.22702   0.00000  Uiso   1.00
O1130  O     0.75000   0.96538   0.33749   0.00000  Uiso   1.00
O1131  O     0.95127   0.66668   0.77298   0.00000  Uiso   1.00
O1132  O     0.83332   0.95126   0.22702   0.00000  Uiso   1.00
O1133  O     0.66668   0.54873   0.77298   0.00000  Uiso   1.00
O1134  O     0.56196   0.83638   0.40818   0.00000  Uiso   1.00
O1135  O     0.50879   0.83948   0.36420   0.00000  Uiso   1.00
O1136  O     0.91786   0.67993   0.59924   0.00000  Uiso   1.00
O1137  O     0.97514   0.66128   0.63484   0.00000  Uiso   1.00
O1138  O     0.66457   0.97791   0.36781   0.00000  Uiso   1.00
O1139  O     0.66577   0.92444   0.41154   0.00000  Uiso   1.00
O1140  O     0.83367   0.56921   0.59007   0.00000  Uiso   1.00
O1141  O     0.75000   0.53461   0.66251   0.00000  Uiso   1.00
O1142  O     0.83726   0.51880   0.63665   0.00000  Uiso   1.00
O1143  O     0.96626   0.66545   0.36903   0.00000  Uiso   1.00
O1144  O     0.52263   0.64316   0.40407   0.00000  Uiso   1.00
O1145  O     0.53135   0.83222   0.63045   0.00000  Uiso   1.00
O1146  O     0.58094   0.82642   0.58330   0.00000  Uiso   1.00
O1147  O     0.83542   0.52166   0.36789   0.00000  Uiso   1.00
O1148  O     0.83477   0.57470   0.41205   0.00000  Uiso   1.00
O1149  O     0.66458   0.97915   0.63256   0.00000  Uiso   1.00
O1150  O     0.66396   0.92627   0.58827   0.00000  Uiso   1.00
O1151  O     0.82433   0.57935   0.90912   0.00000  Uiso   1.00
O1152  O     0.53462   0.75000   0.33749   0.00000  Uiso   1.00
O1153  O     0.77335   0.58649   0.86343   0.00000  Uiso   1.00
O1154  O     0.67475   0.92223   0.09099   0.00000  Uiso   1.00
O1155  O     0.72629   0.91331   0.13591   0.00000  Uiso   1.00
O1156  O     0.91448   0.72844   0.86775   0.00000  Uiso   1.00
O1157  O     0.91473   0.67551   0.91204   0.00000  Uiso   1.00
O1158  O     0.58368   0.81911   0.09053   0.00000  Uiso   1.00
O1159  O     0.58742   0.76818   0.13662   0.00000  Uiso   1.00
O1160  O     0.67558   0.92120   0.90932   0.00000  Uiso   1.00
O1161  O     0.72665   0.91345   0.86378   0.00000  Uiso   1.00
O1162  O     0.77592   0.58524   0.13119   0.00000  Uiso   1.00
O1163  O     0.96539   0.75000   0.66251   0.00000  Uiso   1.00
O1164  O     0.83177   0.57718   0.09067   0.00000  Uiso   1.00
O1165  O     0.58260   0.82007   0.90895   0.00000  Uiso   1.00
O1166  O     0.58760   0.76842   0.86364   0.00000  Uiso   1.00
O1167  O     0.91453   0.72948   0.13258   0.00000  Uiso   1.00
O1168  O     0.91315   0.67718   0.08771   0.00000  Uiso   1.00
O1169  O     0.96423   0.60528   0.46126   0.00000  Uiso   1.00
O1170  O     0.91143   0.64636   0.43907   0.00000  Uiso   1.00
O1171  O     0.97347   0.87237   0.56366   0.00000  Uiso   1.00
O1172  O     0.53578   0.89622   0.53975   0.00000  Uiso   1.00
O1173  O     0.87155   0.96753   0.43973   0.00000  Uiso   1.00
O1174  O     0.75000   0.53461   0.33749   0.00000  Uiso   1.00
O1175  O     0.89923   0.52964   0.46025   0.00000  Uiso   1.00
O1176  O     0.60314   0.97678   0.53830   0.00000  Uiso   1.00
O1177  O     0.62980   0.53653   0.56490   0.00000  Uiso   1.00
O1178  O     0.51736   0.89732   0.46319   0.00000  Uiso   1.00
O1179  O     0.95706   0.87029   0.43801   0.00000  Uiso   1.00
O1180  O     0.99973   0.61858   0.55518   0.00000  Uiso   1.00
O1181  O     0.93037   0.61248   0.54160   0.00000  Uiso   1.00
O1182  O     0.62767   0.53055   0.43964   0.00000  Uiso   1.00
O1183  O     0.60097   0.96807   0.46037   0.00000  Uiso   1.00
O1184  O     0.89698   0.52118   0.53810   0.00000  Uiso   1.00
Zn1185 Zn    0.70053   0.50000   0.21730   0.00000  Uiso   1.00
Zn1186 Zn    0.54948   0.75000   0.28270   0.00000  Uiso   1.00
Zn1187 Zn    0.75000   0.95052   0.71730   0.00000  Uiso   1.00
Zn1188 Zn    0.75000   0.54947   0.28270   0.00000  Uiso   1.00
Zn1189 Zn    0.54948   0.75000   0.71730   0.00000  Uiso   1.00
Zn1190 Zn    0.95053   0.75000   0.28270   0.00000  Uiso   1.00
Zn1191 Zn    0.75000   0.54947   0.71730   0.00000  Uiso   1.00
Zn1192 Zn    0.75000   0.95052   0.28270   0.00000  Uiso   1.00
Zn1193 Zn    0.79948   0.50000   0.78270   0.00000  Uiso   1.00
Zn1194 Zn    0.50000   0.70052   0.21730   0.00000  Uiso   1.00
Zn1195 Zn    0.50000   0.79947   0.78270   0.00000  Uiso   1.00
Zn1196 Zn    0.79948   0.50000   0.21730   0.00000  Uiso   1.00
Zn1197 Zn    0.70053   0.50000   0.78270   0.00000  Uiso   1.00
Zn1198 Zn    0.50000   0.79947   0.21730   0.00000  Uiso   1.00
Zn1199 Zn    0.50000   0.70052   0.78270   0.00000  Uiso   1.00
Zn1200 Zn    0.95053   0.75000   0.71730   0.00000  Uiso   1.00
loop_
_geom_bond_atom_site_label_1
_geom_bond_atom_site_label_2
_geom_bond_distance
_geom_bond_site_symmetry_2
_ccdc_geom_bond_type
C1     O230    1.269   .     A
C1     C92     1.461   .     S
C1     O874    1.269   .     S
C2     O228    1.276   .     A
C2     C68     1.423   .     S
C2     O200    1.276   .     A
C3     C111    1.422   .     A
C3     C38     1.490   .     S
C3     C6      1.412   1_554 S
C4     C39     1.491   .     S
C4     C112    1.421   .     A
C4     C135    1.411   1_556 S
C5     C113    1.422   .     A
C5     C40     1.488   .     S
C5     C134    1.411   1_554 S
C6     C114    1.422   .     A
C6     C41     1.488   .     S
C6     C3      1.412   1_556 S
C7     C42     1.489   .     S
C7     C116    1.422   .     A
C7     C136    1.411   1_554 S
C8     O235    1.399   .     S
C8     O234    1.223   .     D
C8     C73     1.491   .     S
C9     O237    1.399   .     S
C9     C74     1.488   .     S
C9     O236    1.223   .     D
C10    C75     1.491   .     S
C10    O239    1.398   .     S
C10    O238    1.223   .     D
C11    C76     1.491   .     S
C11    O240    1.223   .     D
C11    O242    1.399   .     S
C12    C77     1.488   .     S
C12    O243    1.223   .     D
C12    O544    1.398   .     S
C13    O225    1.276   .     A
C13    C67     1.422   .     S
C13    O201    1.276   .     A
C14    O245    1.223   .     D
C14    C78     1.490   .     S
C14    O246    1.398   .     S
C15    O248    1.398   .     S
C15    C79     1.491   .     S
C15    O247    1.223   .     D
C16    C80     1.491   .     S
C16    O249    1.223   .     D
C16    O250    1.398   .     S
C17    O251    1.223   .     D
C17    O253    1.399   .     S
C17    C81     1.491   .     S
C18    O254    1.223   .     D
C18    C83     1.490   .     S
C18    O255    1.399   .     S
C19    O257    1.398   .     S
C19    O256    1.223   .     D
C19    C84     1.491   .     S
C20    C85     1.491   .     S
C20    O259    1.399   .     S
C20    O258    1.223   .     D
C21    C86     1.491   .     S
C21    O261    1.399   .     S
C21    O260    1.223   .     D
C22    O264    1.397   .     S
C22    O262    1.223   .     D
C22    C87     1.488   .     S
C23    O265    1.223   .     D
C23    C88     1.490   .     S
C23    O266    1.399   .     S
C24    C66     1.422   .     S
C24    O202    1.276   .     A
C24    O226    1.276   .     A
C25    O267    1.223   .     D
C25    O268    1.398   .     S
C25    C89     1.491   .     S
C26    O269    1.221   .     D
C26    O270    1.398   .     S
C26    C125    1.493   .     S
C27    C127    1.488   .     S
C27    O272    1.398   .     S
C27    O571    1.223   1_455 S
C28    O273    1.223   .     D
C28    C728    1.488   .     S
C28    O875    1.398   .     S
C29    O277    1.398   .     S
C29    C729    1.490   1_545 S
C29    O876    1.222   1_545 S
C30    O279    1.398   .     S
C30    C430    1.491   .     S
C30    O578    1.223   .     S
C31    O281    1.398   .     S
C31    C131    1.491   .     S
C31    O280    1.221   .     D
C32    O283    1.398   .     S
C32    C132    1.488   .     S
C32    O882    1.223   .     S
C33    O171    1.398   .     S
C33    C733    1.490   .     S
C33    O884    1.222   .     S
C34    C134    1.489   .     S
C34    O172    1.222   .     D
C34    O173    1.398   .     S
C35    O232    1.276   .     A
C35    C65     1.422   .     S
C35    O203    1.276   .     A
C36    C135    1.491   .     S
C36    O175    1.398   .     S
C36    O174    1.221   .     D
C37    O177    1.398   .     S
C37    C136    1.488   .     S
C37    O176    1.223   .     D
C38    O179    1.398   .     S
C38    O178    1.222   .     D
C39    O180    1.222   .     D
C39    O182    1.398   .     S
C40    O183    1.223   .     D
C40    O184    1.398   .     S
C41    O186    1.398   .     S
C41    O185    1.223   .     D
C42    O187    1.222   .     D
C42    O188    1.398   .     S
C43    O204    1.276   .     A
C43    C64     1.422   .     S
C43    O233    1.276   .     A
C44    O205    1.276   .     A
C44    C72     1.422   .     S
C44    O229    1.276   .     A
C45    O206    1.276   .     A
C45    C70     1.422   .     S
C45    O231    1.276   .     A
C46    O218    1.276   .     A
C46    C61     1.422   .     S
C46    O207    1.276   .     A
C47    C59     1.422   .     S
C47    O209    1.276   .     A
C47    O220    1.276   .     A
C48    C58     1.423   .     S
C48    O216    1.276   .     A
C48    O210    1.276   .     A
C49    O241    1.269   .     A
C49    C94     1.461   .     S
C49    O770    1.269   1_545 S
C50    C57     1.423   .     S
C50    O217    1.276   .     A
C50    O211    1.276   .     A
C51    O223    1.276   .     A
C51    O212    1.276   .     A
C51    C56     1.422   .     S
C52    O224    1.276   .     A
C52    C55     1.422   .     S
C52    O213    1.276   .     A
C53    O214    1.276   .     A
C53    O221    1.276   .     A
C53    C63     1.422   .     S
C54    O215    1.276   .     A
C54    C62     1.422   .     S
C54    O222    1.276   .     A
C55    C72     1.198   .     T
C56    C70     1.198   .     T
C57    C69     1.198   .     T
C58    C68     1.198   .     T
C59    C67     1.198   .     T
C60    C90     1.461   .     S
C60    O181    1.266   .     A
C60    O552    1.270   .     S
C61    C66     1.198   .     T
C62    C65     1.198   .     T
C63    C64     1.198   .     T
C69    C126    1.423   .     S
C71    O263    1.268   .     A
C71    C91     1.465   .     S
C71    O489    1.271   .     S
C73    C103    1.418   .     A
C73    C390    1.402   1_455 S
C74    C105    1.423   .     A
C74    C91     1.409   .     A
C75    C106    1.418   .     A
C75    C92     1.408   .     A
C76    C94     1.407   .     A
C76    C107    1.418   .     A
C77    C99     1.423   .     A
C77    C90     1.405   .     A
C78    C100    1.416   .     A
C78    C391    1.405   1_455 S
C79    C101    1.418   .     A
C79    C692    1.408   1_545 S
C80    C102    1.418   .     A
C80    C694    1.408   .     S
C81    C95     1.407   .     A
C81    C112    1.418   .     A
C82    C97     1.461   .     S
C82    O490    1.269   .     S
C82    O494    1.269   .     S
C83    C113    1.418   .     A
C83    C696    1.407   .     S
C84    C114    1.418   .     A
C84    C97     1.408   .     A
C85    C116    1.419   .     A
C85    C398    1.407   1_455 S
C86    C108    1.418   .     A
C86    C695    1.407   .     S
C87    C109    1.418   .     A
C87    C96     1.408   .     A
C88    C110    1.419   .     A
C88    C397    1.407   1_455 S
C89    C98     1.408   .     A
C89    C111    1.418   .     A
C90    C373    1.402   .     S
C91    C378    1.405   .     S
C92    C679    1.408   .     S
C93    O495    1.269   .     A
C93    C98     1.461   .     S
C93    O491    1.269   .     S
C94    C680    1.408   1_545 S
C95    C104    1.461   .     S
C95    C686    1.407   1_545 S
C96    C115    1.462   .     S
C96    C683    1.407   1_545 S
C97    C388    1.407   .     S
C98    C385    1.407   .     S
C99    C117    1.424   .     A
C99    C125    1.425   .     A
C100   C127    1.420   .     A
C100   C418    1.421   1_455 S
C101   C128    1.423   .     A
C101   C719    1.420   1_545 S
C102   C120    1.420   .     A
C102   C129    1.422   .     A
C103   C130    1.422   .     A
C103   C417    1.424   1_455 S
C104   O192    1.269   .     A
C104   O196    1.269   .     A
C105   C131    1.423   .     A
C105   C118    1.422   .     A
C106   C132    1.423   .     A
C106   C119    1.420   .     A
C107   C133    1.421   .     A
C107   C720    1.419   1_545 S
C108   C134    1.421   .     A
C108   C721    1.420   .     S
C109   C135    1.424   .     A
C109   C122    1.421   .     A
C110   C136    1.422   .     A
C110   C423    1.420   1_455 S
C111   C124    1.420   .     A
C112   C121    1.419   .     A
C113   C722    1.420   .     S
C114   C123    1.420   .     A
C115   O198    1.269   .     A
C115   O193    1.269   .     A
C116   C424    1.420   1_455 S
C117   C118    1.416   .     A
C117   C403    1.424   .     S
C118   C400    1.421   .     S
C119   C120    1.412   .     A
C119   C701    1.420   .     S
C120   C707    1.419   .     S
C121   C708    1.420   1_545 S
C121   C122    1.412   1_556 S
C122   C713    1.420   1_545 S
C122   C121    1.412   1_554 S
C123   C410    1.420   .     S
C123   C124    1.412   1_556 S
C124   C416    1.420   .     S
C124   C123    1.412   1_554 S
C125   C131    1.409   .     A
C126   O227    1.276   .     A
C126   O199    1.276   .     A
C127   C130    1.409   .     A
C128   C133    1.411   .     A
C128   C628    1.488   1_545 S
C129   C132    1.412   .     A
C129   C629    1.490   .     S
C130   C330    1.491   1_455 S
C133   C633    1.490   1_545 S
C134   C5      1.411   1_556 S
C135   C4      1.411   1_554 S
C136   C7      1.411   1_556 S
H137   O235    1.014   .     S
H138   O255    1.014   .     S
H139   O257    1.014   .     S
H140   O259    1.014   .     S
H141   O261    1.014   .     S
H142   O264    1.013   .     S
H143   O266    1.014   .     S
H144   O268    1.013   .     S
H145   O270    1.013   .     S
H146   O272    1.014   .     S
H147   O275    1.014   .     S
H148   O237    1.014   .     S
H149   O277    1.014   .     S
H150   O279    1.014   .     S
H151   O281    1.013   .     S
H152   O283    1.014   .     S
H153   O171    1.014   .     S
H154   O173    1.014   .     S
H155   O175    1.014   .     S
H156   O177    1.014   .     S
H157   O179    1.014   .     S
H158   O182    1.014   .     S
H159   O239    1.014   .     S
H160   O184    1.014   .     S
H161   O186    1.014   .     S
H162   O188    1.014   .     S
H163   O242    1.014   .     S
H164   O244    1.014   .     S
H165   O246    1.013   .     S
H166   O248    1.014   .     S
H167   O250    1.014   .     S
H168   O253    1.014   .     S
O169   Zn288   1.935   .     S
O169   Zn296   1.935   .     S
O169   Zn285   1.935   .     S
O169   Zn892   1.935   1_545 S
O170   Zn287   1.949   .     S
O170   C649    1.269   .     S
O181   Zn290   1.949   .     S
O189   Zn289   1.949   .     S
O189   C371    1.271   1_455 S
O190   C382    1.269   1_455 S
O190   Zn299   1.949   .     S
O191   C393    1.269   1_455 S
O191   Zn298   1.949   .     S
O192   Zn293   1.949   .     S
O193   Zn285   1.949   .     S
O194   C382    1.269   1_455 S
O194   Zn295   1.949   .     S
O195   Zn294   1.949   .     S
O195   C393    1.269   1_455 A
O196   Zn297   1.949   .     S
O197   Zn887   1.935   1_545 S
O197   Zn291   1.935   .     S
O197   Zn293   1.935   .     S
O197   Zn297   1.935   .     S
O198   Zn296   1.949   .     S
O199   Zn288   1.915   .     S
O200   Zn287   1.915   .     S
O201   Zn290   1.914   .     S
O202   Zn289   1.914   .     S
O203   Zn292   1.915   .     S
O204   Zn291   1.915   .     S
O205   Zn286   1.914   .     S
O206   Zn300   1.914   .     S
O207   Zn287   1.914   .     S
O208   Zn298   1.935   .     S
O208   Zn294   1.935   .     S
O208   Zn590   1.935   1_455 S
O208   Zn286   1.935   .     S
O209   Zn288   1.914   .     S
O210   Zn300   1.915   .     S
O211   Zn286   1.915   .     S
O212   Zn291   1.914   .     S
O213   Zn292   1.914   .     S
O214   Zn289   1.915   .     S
O215   Zn290   1.915   .     S
O216   Zn595   1.915   .     S
O217   Zn294   1.915   .     S
O218   Zn897   1.914   .     S
O219   Zn289   1.935   .     S
O219   Zn295   1.935   .     S
O219   Zn299   1.935   .     S
O219   Zn600   1.935   1_455 S
O220   Zn296   1.914   .     S
O221   Zn299   1.915   .     S
O222   Zn598   1.915   .     S
O223   Zn293   1.914   .     S
O224   Zn885   1.914   .     S
O225   Zn594   1.914   .     S
O226   Zn295   1.914   .     S
O227   Zn285   1.915   .     S
O228   Zn893   1.915   .     S
O229   Zn298   1.914   .     S
O230   Zn292   1.949   .     S
O231   Zn599   1.914   .     S
O232   Zn896   1.915   .     S
O233   Zn297   1.915   .     S
O241   Zn291   1.949   .     S
O244   C312    1.398   1_455 S
O252   Zn286   1.949   .     S
O252   C360    1.270   1_455 S
O263   Zn300   1.949   .     S
O271   C327    1.223   .     S
O274   Zn288   1.949   .     S
O274   C601    1.269   1_545 S
O275   C628    1.398   1_545 S
O276   C629    1.222   .     S
O278   C330    1.223   1_455 S
O282   C632    1.223   1_545 S
O284   C633    1.222   1_545 S
Zn285  O824    1.914   1_545 S
Zn287  O797    1.935   .     S
Zn290  O508    1.935   .     S
Zn292  O769    1.935   .     S
Zn293  O828    1.915   1_545 S
Zn294  O525    1.914   1_455 S
Zn295  O516    1.915   1_455 S
Zn296  O832    1.915   1_545 S
Zn297  O818    1.914   1_545 S
Zn298  O522    1.915   1_455 S
Zn299  O531    1.914   1_455 S
Zn300  O519    1.935   .     S
C301   O530    1.269   .     A
C301   C392    1.461   .     S
C301   O1174   1.269   .     S
C302   O528    1.276   .     A
C302   C368    1.423   .     S
C302   O500    1.276   .     A
C303   C411    1.422   .     A
C303   C338    1.490   .     S
C303   C306    1.412   1_554 S
C304   C339    1.491   .     S
C304   C412    1.421   .     A
C304   C435    1.411   1_556 S
C305   C413    1.422   .     A
C305   C340    1.488   .     S
C305   C434    1.411   1_554 S
C306   C414    1.422   .     A
C306   C341    1.488   .     S
C306   C303    1.412   1_556 S
C307   C342    1.489   .     S
C307   C416    1.422   .     A
C307   C436    1.411   1_554 S
C308   O535    1.399   .     S
C308   O534    1.223   .     D
C308   C373    1.491   .     S
C309   O537    1.399   .     S
C309   C374    1.488   .     S
C309   O536    1.223   .     D
C310   C375    1.491   .     S
C310   O539    1.398   .     S
C310   O538    1.223   .     D
C311   C376    1.491   .     S
C311   O540    1.223   .     D
C311   O542    1.399   .     S
C312   C377    1.488   .     S
C312   O543    1.223   .     D
C312   O244    1.398   1_655 S
C313   O525    1.276   .     A
C313   C367    1.422   .     S
C313   O501    1.276   .     A
C314   O545    1.223   .     D
C314   C378    1.490   .     S
C314   O546    1.398   .     S
C315   O548    1.398   .     S
C315   C379    1.491   .     S
C315   O547    1.223   .     D
C316   C380    1.491   .     S
C316   O549    1.223   .     D
C316   O550    1.398   .     S
C317   O551    1.223   .     D
C317   O553    1.399   .     S
C317   C381    1.491   .     S
C318   O554    1.223   .     D
C318   C383    1.490   .     S
C318   O555    1.399   .     S
C319   O557    1.398   .     S
C319   O556    1.223   .     D
C319   C384    1.491   .     S
C320   C385    1.491   .     S
C320   O559    1.399   .     S
C320   O558    1.223   .     D
C321   C386    1.491   .     S
C321   O561    1.399   .     S
C321   O560    1.223   .     D
C322   O564    1.397   .     S
C322   O562    1.223   .     D
C322   C387    1.488   .     S
C323   O565    1.223   .     D
C323   C388    1.490   .     S
C323   O566    1.399   .     S
C324   C366    1.422   .     S
C324   O502    1.276   .     A
C324   O526    1.276   .     A
C325   O567    1.223   .     D
C325   O568    1.398   .     S
C325   C389    1.491   .     S
C326   O569    1.221   .     D
C326   O570    1.398   .     S
C326   C425    1.493   .     S
C327   C427    1.488   .     S
C327   O572    1.398   .     S
C328   O573    1.223   .     D
C328   C1028   1.488   .     S
C328   O1175   1.398   .     S
C329   O577    1.398   .     S
C329   C1029   1.490   1_545 S
C329   O1176   1.222   1_545 S
C330   O579    1.398   .     S
C330   C130    1.491   1_655 S
C330   O278    1.223   1_655 S
C331   O581    1.398   .     S
C331   C431    1.491   .     S
C331   O580    1.221   .     D
C332   O583    1.398   .     S
C332   C432    1.488   .     S
C332   O1182   1.223   .     S
C333   O471    1.398   .     S
C333   C1033   1.490   .     S
C333   O1184   1.222   .     S
C334   C434    1.489   .     S
C334   O472    1.222   .     D
C334   O473    1.398   .     S
C335   O532    1.276   .     A
C335   C365    1.422   .     S
C335   O503    1.276   .     A
C336   C435    1.491   .     S
C336   O475    1.398   .     S
C336   O474    1.221   .     D
C337   O477    1.398   .     S
C337   C436    1.488   .     S
C337   O476    1.223   .     D
C338   O479    1.398   .     S
C338   O478    1.222   .     D
C339   O480    1.222   .     D
C339   O482    1.398   .     S
C340   O483    1.223   .     D
C340   O484    1.398   .     S
C341   O486    1.398   .     S
C341   O485    1.223   .     D
C342   O487    1.222   .     D
C342   O488    1.398   .     S
C343   O504    1.276   .     A
C343   C364    1.422   .     S
C343   O533    1.276   .     A
C344   O505    1.276   .     A
C344   C372    1.422   .     S
C344   O529    1.276   .     A
C345   O506    1.276   .     A
C345   C370    1.422   .     S
C345   O531    1.276   .     A
C346   O518    1.276   .     A
C346   C361    1.422   .     S
C346   O507    1.276   .     A
C347   C359    1.422   .     S
C347   O509    1.276   .     A
C347   O520    1.276   .     A
C348   C358    1.423   .     S
C348   O516    1.276   .     A
C348   O510    1.276   .     A
C349   O541    1.269   .     A
C349   C394    1.461   .     S
C349   O1070   1.269   1_545 S
C350   C357    1.423   .     S
C350   O517    1.276   .     A
C350   O511    1.276   .     A
C351   O523    1.276   .     A
C351   O512    1.276   .     A
C351   C356    1.422   .     S
C352   O524    1.276   .     A
C352   C355    1.422   .     S
C352   O513    1.276   .     A
C353   O514    1.276   .     A
C353   O521    1.276   .     A
C353   C363    1.422   .     S
C354   O515    1.276   .     A
C354   C362    1.422   .     S
C354   O522    1.276   .     A
C355   C372    1.198   .     T
C356   C370    1.198   .     T
C357   C369    1.198   .     T
C358   C368    1.198   .     T
C359   C367    1.198   .     T
C360   C390    1.461   .     S
C360   O481    1.266   .     A
C360   O252    1.270   1_655 S
C361   C366    1.198   .     T
C362   C365    1.198   .     T
C363   C364    1.198   .     T
C369   C426    1.423   .     S
C371   O563    1.268   .     A
C371   C391    1.465   .     S
C371   O189    1.271   1_655 S
C373   C403    1.418   .     A
C374   C405    1.423   .     A
C374   C391    1.409   .     A
C375   C406    1.418   .     A
C375   C392    1.408   .     A
C376   C394    1.407   .     A
C376   C407    1.418   .     A
C377   C399    1.423   .     A
C377   C390    1.405   .     A
C378   C400    1.416   .     A
C379   C401    1.418   .     A
C379   C992    1.408   1_545 S
C380   C402    1.418   .     A
C380   C994    1.408   .     S
C381   C395    1.407   .     A
C381   C412    1.418   .     A
C382   C397    1.461   .     S
C382   O190    1.269   1_655 S
C382   O194    1.269   1_655 S
C383   C413    1.418   .     A
C383   C996    1.407   .     S
C384   C414    1.418   .     A
C384   C397    1.408   .     A
C385   C416    1.419   .     A
C386   C408    1.418   .     A
C386   C995    1.407   .     S
C387   C409    1.418   .     A
C387   C396    1.408   .     A
C388   C410    1.419   .     A
C389   C398    1.408   .     A
C389   C411    1.418   .     A
C390   C73     1.402   1_655 S
C391   C78     1.405   1_655 S
C392   C979    1.408   .     S
C393   O195    1.269   1_655 A
C393   C398    1.461   .     S
C393   O191    1.269   1_655 S
C394   C980    1.408   1_545 S
C395   C404    1.461   .     S
C395   C986    1.407   1_545 S
C396   C415    1.462   .     S
C396   C983    1.407   1_545 S
C397   C88     1.407   1_655 S
C398   C85     1.407   1_655 S
C399   C417    1.424   .     A
C399   C425    1.425   .     A
C400   C427    1.420   .     A
C401   C428    1.423   .     A
C401   C1019   1.420   1_545 S
C402   C420    1.420   .     A
C402   C429    1.422   .     A
C403   C430    1.422   .     A
C404   O492    1.269   .     A
C404   O496    1.269   .     A
C405   C431    1.423   .     A
C405   C418    1.422   .     A
C406   C432    1.423   .     A
C406   C419    1.420   .     A
C407   C433    1.421   .     A
C407   C1020   1.419   1_545 S
C408   C434    1.421   .     A
C408   C1021   1.420   .     S
C409   C435    1.424   .     A
C409   C422    1.421   .     A
C410   C436    1.422   .     A
C411   C424    1.420   .     A
C412   C421    1.419   .     A
C413   C1022   1.420   .     S
C414   C423    1.420   .     A
C415   O498    1.269   .     A
C415   O493    1.269   .     A
C417   C418    1.416   .     A
C417   C103    1.424   1_655 S
C418   C100    1.421   1_655 S
C419   C420    1.412   .     A
C419   C1001   1.420   .     S
C420   C1007   1.419   .     S
C421   C1008   1.420   1_545 S
C421   C422    1.412   1_556 S
C422   C1013   1.420   1_545 S
C422   C421    1.412   1_554 S
C423   C110    1.420   1_655 S
C423   C424    1.412   1_556 S
C424   C116    1.420   1_655 S
C424   C423    1.412   1_554 S
C425   C431    1.409   .     A
C426   O527    1.276   .     A
C426   O499    1.276   .     A
C427   C430    1.409   .     A
C428   C433    1.411   .     A
C428   C928    1.488   1_545 S
C429   C432    1.412   .     A
C429   C929    1.490   .     S
C433   C933    1.490   1_545 S
C434   C305    1.411   1_556 S
C435   C304    1.411   1_554 S
C436   C307    1.411   1_556 S
H437   O535    1.014   .     S
H438   O555    1.014   .     S
H439   O557    1.014   .     S
H440   O559    1.014   .     S
H441   O561    1.014   .     S
H442   O564    1.013   .     S
H443   O566    1.014   .     S
H444   O568    1.013   .     S
H445   O570    1.013   .     S
H446   O572    1.014   .     S
H447   O575    1.014   .     S
H448   O537    1.014   .     S
H449   O577    1.014   .     S
H450   O579    1.014   .     S
H451   O581    1.013   .     S
H452   O583    1.014   .     S
H453   O471    1.014   .     S
H454   O473    1.014   .     S
H455   O475    1.014   .     S
H456   O477    1.014   .     S
H457   O479    1.014   .     S
H458   O482    1.014   .     S
H459   O539    1.014   .     S
H460   O484    1.014   .     S
H461   O486    1.014   .     S
H462   O488    1.014   .     S
H463   O542    1.014   .     S
H464   O544    1.014   .     S
H465   O546    1.013   .     S
H466   O548    1.014   .     S
H467   O550    1.014   .     S
H468   O553    1.014   .     S
O469   Zn588   1.935   .     S
O469   Zn596   1.935   .     S
O469   Zn585   1.935   .     S
O469   Zn1192  1.935   1_545 S
O470   Zn587   1.949   .     S
O470   C949    1.269   .     S
O481   Zn590   1.949   .     S
O489   Zn589   1.949   .     S
O490   Zn599   1.949   .     S
O491   Zn598   1.949   .     S
O492   Zn593   1.949   .     S
O493   Zn585   1.949   .     S
O494   Zn595   1.949   .     S
O495   Zn594   1.949   .     S
O496   Zn597   1.949   .     S
O497   Zn1187  1.935   1_545 S
O497   Zn591   1.935   .     S
O497   Zn593   1.935   .     S
O497   Zn597   1.935   .     S
O498   Zn596   1.949   .     S
O499   Zn588   1.915   .     S
O500   Zn587   1.915   .     S
O501   Zn590   1.914   .     S
O502   Zn589   1.914   .     S
O503   Zn592   1.915   .     S
O504   Zn591   1.915   .     S
O505   Zn586   1.914   .     S
O506   Zn600   1.914   .     S
O507   Zn587   1.914   .     S
O508   Zn598   1.935   .     S
O508   Zn594   1.935   .     S
O508   Zn586   1.935   .     S
O509   Zn588   1.914   .     S
O510   Zn600   1.915   .     S
O511   Zn586   1.915   .     S
O512   Zn591   1.914   .     S
O513   Zn592   1.914   .     S
O514   Zn589   1.915   .     S
O515   Zn590   1.915   .     S
O516   Zn295   1.915   1_655 S
O517   Zn594   1.915   .     S
O518   Zn1197  1.914   .     S
O519   Zn589   1.935   .     S
O519   Zn595   1.935   .     S
O519   Zn599   1.935   .     S
O520   Zn596   1.914   .     S
O521   Zn599   1.915   .     S
O522   Zn298   1.915   1_655 S
O523   Zn593   1.914   .     S
O524   Zn1185  1.914   .     S
O525   Zn294   1.914   1_655 S
O526   Zn595   1.914   .     S
O527   Zn585   1.915   .     S
O528   Zn1193  1.915   .     S
O529   Zn598   1.914   .     S
O530   Zn592   1.949   .     S
O531   Zn299   1.914   1_655 S
O532   Zn1196  1.915   .     S
O533   Zn597   1.915   .     S
O541   Zn591   1.949   .     S
O552   Zn586   1.949   .     S
O563   Zn600   1.949   .     S
O571   C27     1.223   1_655 S
O574   Zn588   1.949   .     S
O574   C901    1.269   1_545 S
O575   C928    1.398   1_545 S
O576   C929    1.222   .     S
O582   C932    1.223   1_545 S
O584   C933    1.222   1_545 S
Zn585  O1124   1.914   1_545 S
Zn587  O1097   1.935   .     S
Zn590  O208    1.935   1_655 S
Zn592  O1069   1.935   .     S
Zn593  O1128   1.915   1_545 S
Zn596  O1132   1.915   1_545 S
Zn597  O1118   1.914   1_545 S
Zn600  O219    1.935   1_655 S
C601   O830    1.269   .     A
C601   C692    1.461   .     S
C601   O274    1.269   1_565 S
C602   O828    1.276   .     A
C602   C668    1.423   .     S
C602   O800    1.276   .     A
C603   C711    1.422   .     A
C603   C638    1.490   .     S
C603   C606    1.412   1_554 S
C604   C639    1.491   .     S
C604   C712    1.421   .     A
C604   C735    1.411   1_556 S
C605   C713    1.422   .     A
C605   C640    1.488   .     S
C605   C734    1.411   1_554 S
C606   C714    1.422   .     A
C606   C641    1.488   .     S
C606   C603    1.412   1_556 S
C607   C642    1.489   .     S
C607   C716    1.422   .     A
C607   C736    1.411   1_554 S
C608   O835    1.399   .     S
C608   O834    1.223   .     D
C608   C673    1.491   .     S
C609   O837    1.399   .     S
C609   C674    1.488   .     S
C609   O836    1.223   .     D
C610   C675    1.491   .     S
C610   O839    1.398   .     S
C610   O838    1.223   .     D
C611   C676    1.491   .     S
C611   O840    1.223   .     D
C611   O842    1.399   .     S
C612   C677    1.488   .     S
C612   O843    1.223   .     D
C612   O1144   1.398   .     S
C613   O825    1.276   .     A
C613   C667    1.422   .     S
C613   O801    1.276   .     A
C614   O845    1.223   .     D
C614   C678    1.490   .     S
C614   O846    1.398   .     S
C615   O848    1.398   .     S
C615   C679    1.491   .     S
C615   O847    1.223   .     D
C616   C680    1.491   .     S
C616   O849    1.223   .     D
C616   O850    1.398   .     S
C617   O851    1.223   .     D
C617   O853    1.399   .     S
C617   C681    1.491   .     S
C618   O854    1.223   .     D
C618   C683    1.490   .     S
C618   O855    1.399   .     S
C619   O857    1.398   .     S
C619   O856    1.223   .     D
C619   C684    1.491   .     S
C620   C685    1.491   .     S
C620   O859    1.399   .     S
C620   O858    1.223   .     D
C621   C686    1.491   .     S
C621   O861    1.399   .     S
C621   O860    1.223   .     D
C622   O864    1.397   .     S
C622   O862    1.223   .     D
C622   C687    1.488   .     S
C623   O865    1.223   .     D
C623   C688    1.490   .     S
C623   O866    1.399   .     S
C624   C666    1.422   .     S
C624   O802    1.276   .     A
C624   O826    1.276   .     A
C625   O867    1.223   .     D
C625   O868    1.398   .     S
C625   C689    1.491   .     S
C626   O869    1.221   .     D
C626   O870    1.398   .     S
C626   C725    1.493   .     S
C627   C727    1.488   .     S
C627   O872    1.398   .     S
C627   O1171   1.223   1_455 S
C628   O873    1.223   .     D
C628   C128    1.488   1_565 S
C628   O275    1.398   1_565 S
C629   O877    1.398   .     S
C630   O879    1.398   .     S
C630   C1030   1.491   .     S
C630   O1178   1.223   .     S
C631   O881    1.398   .     S
C631   C731    1.491   .     S
C631   O880    1.221   .     D
C632   O883    1.398   .     S
C632   C732    1.488   .     S
C632   O282    1.223   1_565 S
C633   O771    1.398   .     S
C633   C133    1.490   1_565 S
C633   O284    1.222   1_565 S
C634   C734    1.489   .     S
C634   O772    1.222   .     D
C634   O773    1.398   .     S
C635   O832    1.276   .     A
C635   C665    1.422   .     S
C635   O803    1.276   .     A
C636   C735    1.491   .     S
C636   O775    1.398   .     S
C636   O774    1.221   .     D
C637   O777    1.398   .     S
C637   C736    1.488   .     S
C637   O776    1.223   .     D
C638   O779    1.398   .     S
C638   O778    1.222   .     D
C639   O780    1.222   .     D
C639   O782    1.398   .     S
C640   O783    1.223   .     D
C640   O784    1.398   .     S
C641   O786    1.398   .     S
C641   O785    1.223   .     D
C642   O787    1.222   .     D
C642   O788    1.398   .     S
C643   O804    1.276   .     A
C643   C664    1.422   .     S
C643   O833    1.276   .     A
C644   O805    1.276   .     A
C644   C672    1.422   .     S
C644   O829    1.276   .     A
C645   O806    1.276   .     A
C645   C670    1.422   .     S
C645   O831    1.276   .     A
C646   O818    1.276   .     A
C646   C661    1.422   .     S
C646   O807    1.276   .     A
C647   C659    1.422   .     S
C647   O809    1.276   .     A
C647   O820    1.276   .     A
C648   C658    1.423   .     S
C648   O816    1.276   .     A
C648   O810    1.276   .     A
C649   O841    1.269   .     A
C649   C694    1.461   .     S
C650   C657    1.423   .     S
C650   O817    1.276   .     A
C650   O811    1.276   .     A
C651   O823    1.276   .     A
C651   O812    1.276   .     A
C651   C656    1.422   .     S
C652   O824    1.276   .     A
C652   C655    1.422   .     S
C652   O813    1.276   .     A
C653   O814    1.276   .     A
C653   O821    1.276   .     A
C653   C663    1.422   .     S
C654   O815    1.276   .     A
C654   C662    1.422   .     S
C654   O822    1.276   .     A
C655   C672    1.198   .     T
C656   C670    1.198   .     T
C657   C669    1.198   .     T
C658   C668    1.198   .     T
C659   C667    1.198   .     T
C660   C690    1.461   .     S
C660   O781    1.266   .     A
C660   O1152   1.270   .     S
C661   C666    1.198   .     T
C662   C665    1.198   .     T
C663   C664    1.198   .     T
C669   C726    1.423   .     S
C671   O863    1.268   .     A
C671   C691    1.465   .     S
C671   O1089   1.271   .     S
C673   C703    1.418   .     A
C673   C990    1.402   1_455 S
C674   C705    1.423   .     A
C674   C691    1.409   .     A
C675   C706    1.418   .     A
C675   C692    1.408   .     A
C676   C694    1.407   .     A
C676   C707    1.418   .     A
C677   C699    1.423   .     A
C677   C690    1.405   .     A
C678   C700    1.416   .     A
C678   C991    1.405   1_455 S
C679   C701    1.418   .     A
C680   C702    1.418   .     A
C680   C94     1.408   1_565 S
C681   C695    1.407   .     A
C681   C712    1.418   .     A
C682   C697    1.461   .     S
C682   O1090   1.269   .     S
C682   O1094   1.269   .     S
C683   C713    1.418   .     A
C683   C96     1.407   1_565 S
C684   C714    1.418   .     A
C684   C697    1.408   .     A
C685   C716    1.419   .     A
C685   C998    1.407   1_455 S
C686   C708    1.418   .     A
C686   C95     1.407   1_565 S
C687   C709    1.418   .     A
C687   C696    1.408   .     A
C688   C710    1.419   .     A
C688   C997    1.407   1_455 S
C689   C698    1.408   .     A
C689   C711    1.418   .     A
C690   C973    1.402   .     S
C691   C978    1.405   .     S
C692   C79     1.408   1_565 S
C693   O1095   1.269   .     A
C693   C698    1.461   .     S
C693   O1091   1.269   .     S
C695   C704    1.461   .     S
C696   C715    1.462   .     S
C697   C988    1.407   .     S
C698   C985    1.407   .     S
C699   C717    1.424   .     A
C699   C725    1.425   .     A
C700   C727    1.420   .     A
C700   C1018   1.421   1_455 S
C701   C728    1.423   .     A
C702   C720    1.420   .     A
C702   C729    1.422   .     A
C703   C730    1.422   .     A
C703   C1017   1.424   1_455 S
C704   O792    1.269   .     A
C704   O796    1.269   .     A
C705   C731    1.423   .     A
C705   C718    1.422   .     A
C706   C732    1.423   .     A
C706   C719    1.420   .     A
C707   C733    1.421   .     A
C708   C734    1.421   .     A
C708   C121    1.420   1_565 S
C709   C735    1.424   .     A
C709   C722    1.421   .     A
C710   C736    1.422   .     A
C710   C1023   1.420   1_455 S
C711   C724    1.420   .     A
C712   C721    1.419   .     A
C713   C122    1.420   1_565 S
C714   C723    1.420   .     A
C715   O798    1.269   .     A
C715   O793    1.269   .     A
C716   C1024   1.420   1_455 S
C717   C718    1.416   .     A
C717   C1003   1.424   .     S
C718   C1000   1.421   .     S
C719   C720    1.412   .     A
C719   C101    1.420   1_565 S
C720   C107    1.419   1_565 S
C721   C722    1.412   1_556 S
C722   C721    1.412   1_554 S
C723   C1010   1.420   .     S
C723   C724    1.412   1_556 S
C724   C1016   1.420   .     S
C724   C723    1.412   1_554 S
C725   C731    1.409   .     A
C726   O827    1.276   .     A
C726   O799    1.276   .     A
C727   C730    1.409   .     A
C728   C733    1.411   .     A
C729   C732    1.412   .     A
C729   C29     1.490   1_565 S
C730   C930    1.491   1_455 S
C734   C605    1.411   1_556 S
C735   C604    1.411   1_554 S
C736   C607    1.411   1_556 S
H737   O835    1.014   .     S
H738   O855    1.014   .     S
H739   O857    1.014   .     S
H740   O859    1.014   .     S
H741   O861    1.014   .     S
H742   O864    1.013   .     S
H743   O866    1.014   .     S
H744   O868    1.013   .     S
H745   O870    1.013   .     S
H746   O872    1.014   .     S
H747   O875    1.014   .     S
H748   O837    1.014   .     S
H749   O877    1.014   .     S
H750   O879    1.014   .     S
H751   O881    1.013   .     S
H752   O883    1.014   .     S
H753   O771    1.014   .     S
H754   O773    1.014   .     S
H755   O775    1.014   .     S
H756   O777    1.014   .     S
H757   O779    1.014   .     S
H758   O782    1.014   .     S
H759   O839    1.014   .     S
H760   O784    1.014   .     S
H761   O786    1.014   .     S
H762   O788    1.014   .     S
H763   O842    1.014   .     S
H764   O844    1.014   .     S
H765   O846    1.013   .     S
H766   O848    1.014   .     S
H767   O850    1.014   .     S
H768   O853    1.014   .     S
O769   Zn888   1.935   .     S
O769   Zn896   1.935   .     S
O769   Zn885   1.935   .     S
O770   Zn887   1.949   .     S
O770   C49     1.269   1_565 S
O781   Zn890   1.949   .     S
O789   Zn889   1.949   .     S
O789   C971    1.271   1_455 S
O790   C982    1.269   1_455 S
O790   Zn899   1.949   .     S
O791   C993    1.269   1_455 S
O791   Zn898   1.949   .     S
O792   Zn893   1.949   .     S
O793   Zn885   1.949   .     S
O794   C982    1.269   1_455 S
O794   Zn895   1.949   .     S
O795   Zn894   1.949   .     S
O795   C993    1.269   1_455 A
O796   Zn897   1.949   .     S
O797   Zn891   1.935   .     S
O797   Zn893   1.935   .     S
O797   Zn897   1.935   .     S
O798   Zn896   1.949   .     S
O799   Zn888   1.915   .     S
O800   Zn887   1.915   .     S
O801   Zn890   1.914   .     S
O802   Zn889   1.914   .     S
O803   Zn892   1.915   .     S
O804   Zn891   1.915   .     S
O805   Zn886   1.914   .     S
O806   Zn900   1.914   .     S
O807   Zn887   1.914   .     S
O808   Zn898   1.935   .     S
O808   Zn894   1.935   .     S
O808   Zn1190  1.935   1_455 S
O808   Zn886   1.935   .     S
O809   Zn888   1.914   .     S
O810   Zn900   1.915   .     S
O811   Zn886   1.915   .     S
O812   Zn891   1.914   .     S
O813   Zn892   1.914   .     S
O814   Zn889   1.915   .     S
O815   Zn890   1.915   .     S
O816   Zn1195  1.915   .     S
O817   Zn894   1.915   .     S
O818   Zn297   1.914   1_565 S
O819   Zn889   1.935   .     S
O819   Zn895   1.935   .     S
O819   Zn899   1.935   .     S
O819   Zn1200  1.935   1_455 S
O820   Zn896   1.914   .     S
O821   Zn899   1.915   .     S
O822   Zn1198  1.915   .     S
O823   Zn893   1.914   .     S
O824   Zn285   1.914   1_565 S
O825   Zn1194  1.914   .     S
O826   Zn895   1.914   .     S
O827   Zn885   1.915   .     S
O828   Zn293   1.915   1_565 S
O829   Zn898   1.914   .     S
O830   Zn892   1.949   .     S
O831   Zn1199  1.914   .     S
O832   Zn296   1.915   1_565 S
O833   Zn897   1.915   .     S
O841   Zn891   1.949   .     S
O844   C912    1.398   1_455 S
O852   Zn886   1.949   .     S
O852   C960    1.270   1_455 S
O863   Zn900   1.949   .     S
O871   C927    1.223   .     S
O874   Zn888   1.949   .     S
O876   C29     1.222   1_565 S
O878   C930    1.223   1_455 S
Zn887  O197    1.935   1_565 S
Zn890  O1108   1.935   .     S
Zn892  O169    1.935   1_565 S
Zn894  O1125   1.914   1_455 S
Zn895  O1116   1.915   1_455 S
Zn898  O1122   1.915   1_455 S
Zn899  O1131   1.914   1_455 S
Zn900  O1119   1.935   .     S
C901   O1130   1.269   .     A
C901   C992    1.461   .     S
C901   O574    1.269   1_565 S
C902   O1128   1.276   .     A
C902   C968    1.423   .     S
C902   O1100   1.276   .     A
C903   C1011   1.422   .     A
C903   C938    1.490   .     S
C903   C906    1.412   1_554 S
C904   C939    1.491   .     S
C904   C1012   1.421   .     A
C904   C1035   1.411   1_556 S
C905   C1013   1.422   .     A
C905   C940    1.488   .     S
C905   C1034   1.411   1_554 S
C906   C1014   1.422   .     A
C906   C941    1.488   .     S
C906   C903    1.412   1_556 S
C907   C942    1.489   .     S
C907   C1016   1.422   .     A
C907   C1036   1.411   1_554 S
C908   O1135   1.399   .     S
C908   O1134   1.223   .     D
C908   C973    1.491   .     S
C909   O1137   1.399   .     S
C909   C974    1.488   .     S
C909   O1136   1.223   .     D
C910   C975    1.491   .     S
C910   O1139   1.398   .     S
C910   O1138   1.223   .     D
C911   C976    1.491   .     S
C911   O1140   1.223   .     D
C911   O1142   1.399   .     S
C912   C977    1.488   .     S
C912   O1143   1.223   .     D
C912   O844    1.398   1_655 S
C913   O1125   1.276   .     A
C913   C967    1.422   .     S
C913   O1101   1.276   .     A
C914   O1145   1.223   .     D
C914   C978    1.490   .     S
C914   O1146   1.398   .     S
C915   O1148   1.398   .     S
C915   C979    1.491   .     S
C915   O1147   1.223   .     D
C916   C980    1.491   .     S
C916   O1149   1.223   .     D
C916   O1150   1.398   .     S
C917   O1151   1.223   .     D
C917   O1153   1.399   .     S
C917   C981    1.491   .     S
C918   O1154   1.223   .     D
C918   C983    1.490   .     S
C918   O1155   1.399   .     S
C919   O1157   1.398   .     S
C919   O1156   1.223   .     D
C919   C984    1.491   .     S
C920   C985    1.491   .     S
C920   O1159   1.399   .     S
C920   O1158   1.223   .     D
C921   C986    1.491   .     S
C921   O1161   1.399   .     S
C921   O1160   1.223   .     D
C922   O1164   1.397   .     S
C922   O1162   1.223   .     D
C922   C987    1.488   .     S
C923   O1165   1.223   .     D
C923   C988    1.490   .     S
C923   O1166   1.399   .     S
C924   C966    1.422   .     S
C924   O1102   1.276   .     A
C924   O1126   1.276   .     A
C925   O1167   1.223   .     D
C925   O1168   1.398   .     S
C925   C989    1.491   .     S
C926   O1169   1.221   .     D
C926   O1170   1.398   .     S
C926   C1025   1.493   .     S
C927   C1027   1.488   .     S
C927   O1172   1.398   .     S
C928   O1173   1.223   .     D
C928   C428    1.488   1_565 S
C928   O575    1.398   1_565 S
C929   O1177   1.398   .     S
C930   O1179   1.398   .     S
C930   C730    1.491   1_655 S
C930   O878    1.223   1_655 S
C931   O1181   1.398   .     S
C931   C1031   1.491   .     S
C931   O1180   1.221   .     D
C932   O1183   1.398   .     S
C932   C1032   1.488   .     S
C932   O582    1.223   1_565 S
C933   O1071   1.398   .     S
C933   C433    1.490   1_565 S
C933   O584    1.222   1_565 S
C934   C1034   1.489   .     S
C934   O1072   1.222   .     D
C934   O1073   1.398   .     S
C935   O1132   1.276   .     A
C935   C965    1.422   .     S
C935   O1103   1.276   .     A
C936   C1035   1.491   .     S
C936   O1075   1.398   .     S
C936   O1074   1.221   .     D
C937   O1077   1.398   .     S
C937   C1036   1.488   .     S
C937   O1076   1.223   .     D
C938   O1079   1.398   .     S
C938   O1078   1.222   .     D
C939   O1080   1.222   .     D
C939   O1082   1.398   .     S
C940   O1083   1.223   .     D
C940   O1084   1.398   .     S
C941   O1086   1.398   .     S
C941   O1085   1.223   .     D
C942   O1087   1.222   .     D
C942   O1088   1.398   .     S
C943   O1104   1.276   .     A
C943   C964    1.422   .     S
C943   O1133   1.276   .     A
C944   O1105   1.276   .     A
C944   C972    1.422   .     S
C944   O1129   1.276   .     A
C945   O1106   1.276   .     A
C945   C970    1.422   .     S
C945   O1131   1.276   .     A
C946   O1118   1.276   .     A
C946   C961    1.422   .     S
C946   O1107   1.276   .     A
C947   C959    1.422   .     S
C947   O1109   1.276   .     A
C947   O1120   1.276   .     A
C948   C958    1.423   .     S
C948   O1116   1.276   .     A
C948   O1110   1.276   .     A
C949   O1141   1.269   .     A
C949   C994    1.461   .     S
C950   C957    1.423   .     S
C950   O1117   1.276   .     A
C950   O1111   1.276   .     A
C951   O1123   1.276   .     A
C951   O1112   1.276   .     A
C951   C956    1.422   .     S
C952   O1124   1.276   .     A
C952   C955    1.422   .     S
C952   O1113   1.276   .     A
C953   O1114   1.276   .     A
C953   O1121   1.276   .     A
C953   C963    1.422   .     S
C954   O1115   1.276   .     A
C954   C962    1.422   .     S
C954   O1122   1.276   .     A
C955   C972    1.198   .     T
C956   C970    1.198   .     T
C957   C969    1.198   .     T
C958   C968    1.198   .     T
C959   C967    1.198   .     T
C960   C990    1.461   .     S
C960   O1081   1.266   .     A
C960   O852    1.270   1_655 S
C961   C966    1.198   .     T
C962   C965    1.198   .     T
C963   C964    1.198   .     T
C969   C1026   1.423   .     S
C971   O1163   1.268   .     A
C971   C991    1.465   .     S
C971   O789    1.271   1_655 S
C973   C1003   1.418   .     A
C974   C1005   1.423   .     A
C974   C991    1.409   .     A
C975   C1006   1.418   .     A
C975   C992    1.408   .     A
C976   C994    1.407   .     A
C976   C1007   1.418   .     A
C977   C999    1.423   .     A
C977   C990    1.405   .     A
C978   C1000   1.416   .     A
C979   C1001   1.418   .     A
C980   C1002   1.418   .     A
C980   C394    1.408   1_565 S
C981   C995    1.407   .     A
C981   C1012   1.418   .     A
C982   C997    1.461   .     S
C982   O790    1.269   1_655 S
C982   O794    1.269   1_655 S
C983   C1013   1.418   .     A
C983   C396    1.407   1_565 S
C984   C1014   1.418   .     A
C984   C997    1.408   .     A
C985   C1016   1.419   .     A
C986   C1008   1.418   .     A
C986   C395    1.407   1_565 S
C987   C1009   1.418   .     A
C987   C996    1.408   .     A
C988   C1010   1.419   .     A
C989   C998    1.408   .     A
C989   C1011   1.418   .     A
C990   C673    1.402   1_655 S
C991   C678    1.405   1_655 S
C992   C379    1.408   1_565 S
C993   O795    1.269   1_655 A
C993   C998    1.461   .     S
C993   O791    1.269   1_655 S
C995   C1004   1.461   .     S
C996   C1015   1.462   .     S
C997   C688    1.407   1_655 S
C998   C685    1.407   1_655 S
C999   C1017   1.424   .     A
C999   C1025   1.425   .     A
C1000  C1027   1.420   .     A
C1001  C1028   1.423   .     A
C1002  C1020   1.420   .     A
C1002  C1029   1.422   .     A
C1003  C1030   1.422   .     A
C1004  O1092   1.269   .     A
C1004  O1096   1.269   .     A
C1005  C1031   1.423   .     A
C1005  C1018   1.422   .     A
C1006  C1032   1.423   .     A
C1006  C1019   1.420   .     A
C1007  C1033   1.421   .     A
C1008  C1034   1.421   .     A
C1008  C421    1.420   1_565 S
C1009  C1035   1.424   .     A
C1009  C1022   1.421   .     A
C1010  C1036   1.422   .     A
C1011  C1024   1.420   .     A
C1012  C1021   1.419   .     A
C1013  C422    1.420   1_565 S
C1014  C1023   1.420   .     A
C1015  O1098   1.269   .     A
C1015  O1093   1.269   .     A
C1017  C1018   1.416   .     A
C1017  C703    1.424   1_655 S
C1018  C700    1.421   1_655 S
C1019  C1020   1.412   .     A
C1019  C401    1.420   1_565 S
C1020  C407    1.419   1_565 S
C1021  C1022   1.412   1_556 S
C1022  C1021   1.412   1_554 S
C1023  C710    1.420   1_655 S
C1023  C1024   1.412   1_556 S
C1024  C716    1.420   1_655 S
C1024  C1023   1.412   1_554 S
C1025  C1031   1.409   .     A
C1026  O1127   1.276   .     A
C1026  O1099   1.276   .     A
C1027  C1030   1.409   .     A
C1028  C1033   1.411   .     A
C1029  C1032   1.412   .     A
C1029  C329    1.490   1_565 S
C1034  C905    1.411   1_556 S
C1035  C904    1.411   1_554 S
C1036  C907    1.411   1_556 S
H1037  O1135   1.014   .     S
H1038  O1155   1.014   .     S
H1039  O1157   1.014   .     S
H1040  O1159   1.014   .     S
H1041  O1161   1.014   .     S
H1042  O1164   1.013   .     S
H1043  O1166   1.014   .     S
H1044  O1168   1.013   .     S
H1045  O1170   1.013   .     S
H1046  O1172   1.014   .     S
H1047  O1175   1.014   .     S
H1048  O1137   1.014   .     S
H1049  O1177   1.014   .     S
H1050  O1179   1.014   .     S
H1051  O1181   1.013   .     S
H1052  O1183   1.014   .     S
H1053  O1071   1.014   .     S
H1054  O1073   1.014   .     S
H1055  O1075   1.014   .     S
H1056  O1077   1.014   .     S
H1057  O1079   1.014   .     S
H1058  O1082   1.014   .     S
H1059  O1139   1.014   .     S
H1060  O1084   1.014   .     S
H1061  O1086   1.014   .     S
H1062  O1088   1.014   .     S
H1063  O1142   1.014   .     S
H1064  O1144   1.014   .     S
H1065  O1146   1.013   .     S
H1066  O1148   1.014   .     S
H1067  O1150   1.014   .     S
H1068  O1153   1.014   .     S
O1069  Zn1188  1.935   .     S
O1069  Zn1196  1.935   .     S
O1069  Zn1185  1.935   .     S
O1070  Zn1187  1.949   .     S
O1070  C349    1.269   1_565 S
O1081  Zn1190  1.949   .     S
O1089  Zn1189  1.949   .     S
O1090  Zn1199  1.949   .     S
O1091  Zn1198  1.949   .     S
O1092  Zn1193  1.949   .     S
O1093  Zn1185  1.949   .     S
O1094  Zn1195  1.949   .     S
O1095  Zn1194  1.949   .     S
O1096  Zn1197  1.949   .     S
O1097  Zn1191  1.935   .     S
O1097  Zn1193  1.935   .     S
O1097  Zn1197  1.935   .     S
O1098  Zn1196  1.949   .     S
O1099  Zn1188  1.915   .     S
O1100  Zn1187  1.915   .     S
O1101  Zn1190  1.914   .     S
O1102  Zn1189  1.914   .     S
O1103  Zn1192  1.915   .     S
O1104  Zn1191  1.915   .     S
O1105  Zn1186  1.914   .     S
O1106  Zn1200  1.914   .     S
O1107  Zn1187  1.914   .     S
O1108  Zn1198  1.935   .     S
O1108  Zn1194  1.935   .     S
O1108  Zn1186  1.935   .     S
O1109  Zn1188  1.914   .     S
O1110  Zn1200  1.915   .     S
O1111  Zn1186  1.915   .     S
O1112  Zn1191  1.914   .     S
O1113  Zn1192  1.914   .     S
O1114  Zn1189  1.915   .     S
O1115  Zn1190  1.915   .     S
O1116  Zn895   1.915   1_655 S
O1117  Zn1194  1.915   .     S
O1118  Zn597   1.914   1_565 S
O1119  Zn1189  1.935   .     S
O1119  Zn1195  1.935   .     S
O1119  Zn1199  1.935   .     S
O1120  Zn1196  1.914   .     S
O1121  Zn1199  1.915   .     S
O1122  Zn898   1.915   1_655 S
O1123  Zn1193  1.914   .     S
O1124  Zn585   1.914   1_565 S
O1125  Zn894   1.914   1_655 S
O1126  Zn1195  1.914   .     S
O1127  Zn1185  1.915   .     S
O1128  Zn593   1.915   1_565 S
O1129  Zn1198  1.914   .     S
O1130  Zn1192  1.949   .     S
O1131  Zn899   1.914   1_655 S
O1132  Zn596   1.915   1_565 S
O1133  Zn1197  1.915   .     S
O1141  Zn1191  1.949   .     S
O1152  Zn1186  1.949   .     S
O1163  Zn1200  1.949   .     S
O1171  C627    1.223   1_655 S
O1174  Zn1188  1.949   .     S
O1176  C329    1.222   1_565 S
Zn1187 O497    1.935   1_565 S
Zn1190 O808    1.935   1_655 S
Zn1192 O469    1.935   1_565 S
Zn1200 O819    1.935   1_655 S
