data_str_m3_o10_o16_pcu_sym.48
_audit_creation_date              2020-01-03
_audit_creation_method            'Materials Studio'
_symmetry_space_group_name_H-M    'P1'
_symmetry_Int_Tables_number       1
_symmetry_cell_setting            triclinic
loop_
_symmetry_equiv_pos_as_xyz
  x,y,z
_cell_length_a                    23.4531
_cell_length_b                    25.7807
_cell_length_c                    24.1898
_cell_angle_alpha                 92.3536
_cell_angle_beta                  101.0950
_cell_angle_gamma                 94.1803
loop_
_atom_site_label
_atom_site_type_symbol
_atom_site_fract_x
_atom_site_fract_y
_atom_site_fract_z
_atom_site_U_iso_or_equiv
_atom_site_adp_type
_atom_site_occupancy
C1     C     0.01530   0.26498   0.25058   0.00000  Uiso   1.00
C2     C     0.05279   0.16693   0.41609   0.00000  Uiso   1.00
C3     C     0.02228   0.31963   0.25039   0.00000  Uiso   1.00
C4     C     0.03529   0.16784   0.35520   0.00000  Uiso   1.00
C5     C     0.31428   0.01502   0.26457   0.00000  Uiso   1.00
C6     C     0.31930   0.06871   0.25437   0.00000  Uiso   1.00
C7     C     0.29714   0.16056   0.14484   0.00000  Uiso   1.00
C8     C     0.26823   0.09134   0.00024   0.00000  Uiso   1.00
C9     C     0.27574   0.14660   0.08524   0.00000  Uiso   1.00
C10    C     0.02422   0.19648   0.45068   0.00000  Uiso   1.00
C11    C     0.04787   0.20518   0.00775   0.00000  Uiso   1.00
C12    C     0.13158   0.15832   0.49482   0.00000  Uiso   1.00
C13    C     0.10178   0.18742   0.02968   0.00000  Uiso   1.00
C14    C     0.10292   0.14266   0.43954   0.00000  Uiso   1.00
C15    C     0.18887   0.14415   0.01297   0.00000  Uiso   1.00
C16    C     0.21266   0.10760   0.48029   0.00000  Uiso   1.00
C17    C     0.17997   0.08677   0.42895   0.00000  Uiso   1.00
C18    C     0.12568   0.10411   0.40868   0.00000  Uiso   1.00
C19    C     0.22360   0.16653   0.06228   0.00000  Uiso   1.00
C20    C     0.29884   0.10819   0.05403   0.00000  Uiso   1.00
H21    H     0.17668   0.20827   0.29180   0.00000  Uiso   1.00
H22    H     0.20963   0.19860   0.08510   0.00000  Uiso   1.00
H23    H     0.31803   0.21425   0.43328   0.00000  Uiso   1.00
H24    H     0.11840   0.19575   0.07420   0.00000  Uiso   1.00
H25    H     0.28616   0.06278   0.47572   0.00000  Uiso   1.00
H26    H     0.02552   0.22747   0.03463   0.00000  Uiso   1.00
H27    H     0.10137   0.08657   0.36889   0.00000  Uiso   1.00
H28    H     0.05932   0.00259   0.23392   0.00000  Uiso   1.00
H29    H     0.01841   0.08080   0.11536   0.00000  Uiso   1.00
H30    H     0.24735   0.02237   0.30135   0.00000  Uiso   1.00
H31    H     0.15665   0.12506   0.20821   0.00000  Uiso   1.00
H32    H     0.19668   0.05765   0.40410   0.00000  Uiso   1.00
N33    N     0.14493   0.15223   0.23542   0.00000  Uiso   1.00
N34    N     0.18840   0.18110   0.26457   0.00000  Uiso   1.00
O35    O     0.29769   0.24629   0.25357   0.00000  Uiso   1.00
O36    O     0.27031   0.32761   0.29037   0.00000  Uiso   1.00
O37    O     0.05742   0.23704   0.24423   0.00000  Uiso   1.00
O38    O     0.31490   0.17358   0.33380   0.00000  Uiso   1.00
O39    O     0.07463   0.16433   0.32446   0.00000  Uiso   1.00
O40    O     0.27592   0.09629   0.25576   0.00000  Uiso   1.00
O41    O     0.03565   0.08704   0.24642   0.00000  Uiso   1.00
O42    O     0.25870   0.16901   0.17554   0.00000  Uiso   1.00
O43    O     0.01843   0.15976   0.16620   0.00000  Uiso   1.00
O44    O     0.01578   0.08488   0.07453   0.00000  Uiso   1.00
Zn45   Zn    0.27119   0.17284   0.25623   0.00000  Uiso   1.00
Zn46   Zn    0.06214   0.16049   0.24376   0.00000  Uiso   1.00
C47    C     0.34863   0.26498   0.25058   0.00000  Uiso   1.00
C48    C     0.38612   0.16693   0.41609   0.00000  Uiso   1.00
C49    C     0.35562   0.31963   0.25039   0.00000  Uiso   1.00
C50    C     0.36863   0.16784   0.35520   0.00000  Uiso   1.00
C51    C     0.64761   0.01502   0.26457   0.00000  Uiso   1.00
C52    C     0.65263   0.06871   0.25437   0.00000  Uiso   1.00
C53    C     0.63047   0.16056   0.14484   0.00000  Uiso   1.00
C54    C     0.60156   0.09134   0.00024   0.00000  Uiso   1.00
C55    C     0.60908   0.14660   0.08524   0.00000  Uiso   1.00
C56    C     0.35756   0.19648   0.45068   0.00000  Uiso   1.00
C57    C     0.38121   0.20518   0.00775   0.00000  Uiso   1.00
C58    C     0.46492   0.15832   0.49482   0.00000  Uiso   1.00
C59    C     0.43511   0.18742   0.02968   0.00000  Uiso   1.00
C60    C     0.43626   0.14266   0.43954   0.00000  Uiso   1.00
C61    C     0.52220   0.14415   0.01297   0.00000  Uiso   1.00
C62    C     0.54600   0.10760   0.48029   0.00000  Uiso   1.00
C63    C     0.51331   0.08677   0.42895   0.00000  Uiso   1.00
C64    C     0.45901   0.10411   0.40868   0.00000  Uiso   1.00
C65    C     0.55693   0.16653   0.06228   0.00000  Uiso   1.00
C66    C     0.63217   0.10819   0.05403   0.00000  Uiso   1.00
H67    H     0.51002   0.20827   0.29180   0.00000  Uiso   1.00
H68    H     0.54297   0.19860   0.08510   0.00000  Uiso   1.00
H69    H     0.65137   0.21425   0.43328   0.00000  Uiso   1.00
H70    H     0.45174   0.19575   0.07420   0.00000  Uiso   1.00
H71    H     0.61949   0.06278   0.47572   0.00000  Uiso   1.00
H72    H     0.35886   0.22747   0.03463   0.00000  Uiso   1.00
H73    H     0.43471   0.08657   0.36889   0.00000  Uiso   1.00
H74    H     0.39266   0.00259   0.23392   0.00000  Uiso   1.00
H75    H     0.35174   0.08080   0.11536   0.00000  Uiso   1.00
H76    H     0.58069   0.02237   0.30135   0.00000  Uiso   1.00
H77    H     0.48998   0.12506   0.20821   0.00000  Uiso   1.00
H78    H     0.53001   0.05765   0.40410   0.00000  Uiso   1.00
N79    N     0.47827   0.15223   0.23542   0.00000  Uiso   1.00
N80    N     0.52173   0.18110   0.26457   0.00000  Uiso   1.00
O81    O     0.63102   0.24629   0.25357   0.00000  Uiso   1.00
O82    O     0.60365   0.32761   0.29037   0.00000  Uiso   1.00
O83    O     0.39075   0.23704   0.24423   0.00000  Uiso   1.00
O84    O     0.64823   0.17358   0.33380   0.00000  Uiso   1.00
O85    O     0.40796   0.16433   0.32446   0.00000  Uiso   1.00
O86    O     0.60925   0.09629   0.25576   0.00000  Uiso   1.00
O87    O     0.36898   0.08704   0.24642   0.00000  Uiso   1.00
O88    O     0.59204   0.16901   0.17554   0.00000  Uiso   1.00
O89    O     0.35177   0.15976   0.16620   0.00000  Uiso   1.00
O90    O     0.34912   0.08488   0.07453   0.00000  Uiso   1.00
Zn91   Zn    0.60453   0.17284   0.25623   0.00000  Uiso   1.00
Zn92   Zn    0.39547   0.16049   0.24376   0.00000  Uiso   1.00
C93    C     0.68196   0.26498   0.25058   0.00000  Uiso   1.00
C94    C     0.71946   0.16693   0.41609   0.00000  Uiso   1.00
C95    C     0.68895   0.31963   0.25039   0.00000  Uiso   1.00
C96    C     0.70196   0.16784   0.35520   0.00000  Uiso   1.00
C97    C     0.98095   0.01502   0.26457   0.00000  Uiso   1.00
C98    C     0.98596   0.06871   0.25437   0.00000  Uiso   1.00
C99    C     0.96381   0.16056   0.14484   0.00000  Uiso   1.00
C100   C     0.93489   0.09134   0.00024   0.00000  Uiso   1.00
C101   C     0.94241   0.14660   0.08524   0.00000  Uiso   1.00
C102   C     0.69089   0.19648   0.45068   0.00000  Uiso   1.00
C103   C     0.71454   0.20518   0.00775   0.00000  Uiso   1.00
C104   C     0.79825   0.15832   0.49482   0.00000  Uiso   1.00
C105   C     0.76844   0.18742   0.02968   0.00000  Uiso   1.00
C106   C     0.76959   0.14266   0.43954   0.00000  Uiso   1.00
C107   C     0.85553   0.14415   0.01297   0.00000  Uiso   1.00
C108   C     0.87933   0.10760   0.48029   0.00000  Uiso   1.00
C109   C     0.84664   0.08677   0.42895   0.00000  Uiso   1.00
C110   C     0.79234   0.10411   0.40868   0.00000  Uiso   1.00
C111   C     0.89027   0.16653   0.06228   0.00000  Uiso   1.00
C112   C     0.96550   0.10819   0.05403   0.00000  Uiso   1.00
H113   H     0.84335   0.20827   0.29180   0.00000  Uiso   1.00
H114   H     0.87630   0.19860   0.08510   0.00000  Uiso   1.00
H115   H     0.98470   0.21425   0.43328   0.00000  Uiso   1.00
H116   H     0.78507   0.19575   0.07420   0.00000  Uiso   1.00
H117   H     0.95283   0.06278   0.47572   0.00000  Uiso   1.00
H118   H     0.69219   0.22747   0.03463   0.00000  Uiso   1.00
H119   H     0.76804   0.08657   0.36889   0.00000  Uiso   1.00
H120   H     0.72599   0.00259   0.23392   0.00000  Uiso   1.00
H121   H     0.68508   0.08080   0.11536   0.00000  Uiso   1.00
H122   H     0.91402   0.02237   0.30135   0.00000  Uiso   1.00
H123   H     0.82331   0.12506   0.20821   0.00000  Uiso   1.00
H124   H     0.86334   0.05765   0.40410   0.00000  Uiso   1.00
N125   N     0.81160   0.15223   0.23542   0.00000  Uiso   1.00
N126   N     0.85507   0.18110   0.26457   0.00000  Uiso   1.00
O127   O     0.96435   0.24629   0.25357   0.00000  Uiso   1.00
O128   O     0.93698   0.32761   0.29037   0.00000  Uiso   1.00
O129   O     0.72408   0.23704   0.24423   0.00000  Uiso   1.00
O130   O     0.98157   0.17358   0.33380   0.00000  Uiso   1.00
O131   O     0.74130   0.16433   0.32446   0.00000  Uiso   1.00
O132   O     0.94258   0.09629   0.25576   0.00000  Uiso   1.00
O133   O     0.70231   0.08704   0.24642   0.00000  Uiso   1.00
O134   O     0.92537   0.16901   0.17554   0.00000  Uiso   1.00
O135   O     0.68510   0.15976   0.16620   0.00000  Uiso   1.00
O136   O     0.68245   0.08488   0.07453   0.00000  Uiso   1.00
Zn137  Zn    0.93786   0.17284   0.25623   0.00000  Uiso   1.00
Zn138  Zn    0.72881   0.16049   0.24376   0.00000  Uiso   1.00
C139   C     0.01530   0.59832   0.25058   0.00000  Uiso   1.00
C140   C     0.05279   0.50026   0.41609   0.00000  Uiso   1.00
C141   C     0.02228   0.65297   0.25039   0.00000  Uiso   1.00
C142   C     0.03529   0.50117   0.35520   0.00000  Uiso   1.00
C143   C     0.31428   0.34835   0.26457   0.00000  Uiso   1.00
C144   C     0.31930   0.40205   0.25437   0.00000  Uiso   1.00
C145   C     0.29714   0.49389   0.14484   0.00000  Uiso   1.00
C146   C     0.26823   0.42467   0.00024   0.00000  Uiso   1.00
C147   C     0.27574   0.47994   0.08524   0.00000  Uiso   1.00
C148   C     0.02422   0.52982   0.45068   0.00000  Uiso   1.00
C149   C     0.04787   0.53851   0.00775   0.00000  Uiso   1.00
C150   C     0.13158   0.49165   0.49482   0.00000  Uiso   1.00
C151   C     0.10178   0.52075   0.02968   0.00000  Uiso   1.00
C152   C     0.10292   0.47600   0.43954   0.00000  Uiso   1.00
C153   C     0.18887   0.47748   0.01297   0.00000  Uiso   1.00
C154   C     0.21266   0.44093   0.48029   0.00000  Uiso   1.00
C155   C     0.17997   0.42010   0.42895   0.00000  Uiso   1.00
C156   C     0.12568   0.43744   0.40868   0.00000  Uiso   1.00
C157   C     0.22360   0.49986   0.06228   0.00000  Uiso   1.00
C158   C     0.29884   0.44152   0.05403   0.00000  Uiso   1.00
H159   H     0.17668   0.54160   0.29180   0.00000  Uiso   1.00
H160   H     0.20963   0.53193   0.08510   0.00000  Uiso   1.00
H161   H     0.31803   0.54758   0.43328   0.00000  Uiso   1.00
H162   H     0.11840   0.52908   0.07420   0.00000  Uiso   1.00
H163   H     0.28616   0.39611   0.47572   0.00000  Uiso   1.00
H164   H     0.02552   0.56080   0.03463   0.00000  Uiso   1.00
H165   H     0.10137   0.41990   0.36889   0.00000  Uiso   1.00
H166   H     0.05932   0.33592   0.23392   0.00000  Uiso   1.00
H167   H     0.01841   0.41414   0.11536   0.00000  Uiso   1.00
H168   H     0.24735   0.35570   0.30135   0.00000  Uiso   1.00
H169   H     0.15665   0.45839   0.20821   0.00000  Uiso   1.00
H170   H     0.19668   0.39098   0.40410   0.00000  Uiso   1.00
N171   N     0.14493   0.48556   0.23542   0.00000  Uiso   1.00
N172   N     0.18840   0.51444   0.26457   0.00000  Uiso   1.00
O173   O     0.29769   0.57963   0.25357   0.00000  Uiso   1.00
O174   O     0.27031   0.66094   0.29037   0.00000  Uiso   1.00
O175   O     0.05742   0.57038   0.24423   0.00000  Uiso   1.00
O176   O     0.31490   0.50691   0.33380   0.00000  Uiso   1.00
O177   O     0.07463   0.49766   0.32446   0.00000  Uiso   1.00
O178   O     0.27592   0.42962   0.25576   0.00000  Uiso   1.00
O179   O     0.03565   0.42037   0.24642   0.00000  Uiso   1.00
O180   O     0.25870   0.50234   0.17554   0.00000  Uiso   1.00
O181   O     0.01843   0.49309   0.16620   0.00000  Uiso   1.00
O182   O     0.01578   0.41822   0.07453   0.00000  Uiso   1.00
Zn183  Zn    0.27119   0.50618   0.25623   0.00000  Uiso   1.00
Zn184  Zn    0.06214   0.49382   0.24376   0.00000  Uiso   1.00
C185   C     0.34863   0.59832   0.25058   0.00000  Uiso   1.00
C186   C     0.38612   0.50026   0.41609   0.00000  Uiso   1.00
C187   C     0.35562   0.65297   0.25039   0.00000  Uiso   1.00
C188   C     0.36863   0.50117   0.35520   0.00000  Uiso   1.00
C189   C     0.64761   0.34835   0.26457   0.00000  Uiso   1.00
C190   C     0.65263   0.40205   0.25437   0.00000  Uiso   1.00
C191   C     0.63047   0.49389   0.14484   0.00000  Uiso   1.00
C192   C     0.60156   0.42467   0.00024   0.00000  Uiso   1.00
C193   C     0.60908   0.47994   0.08524   0.00000  Uiso   1.00
C194   C     0.35756   0.52982   0.45068   0.00000  Uiso   1.00
C195   C     0.38121   0.53851   0.00775   0.00000  Uiso   1.00
C196   C     0.46492   0.49165   0.49482   0.00000  Uiso   1.00
C197   C     0.43511   0.52075   0.02968   0.00000  Uiso   1.00
C198   C     0.43626   0.47600   0.43954   0.00000  Uiso   1.00
C199   C     0.52220   0.47748   0.01297   0.00000  Uiso   1.00
C200   C     0.54600   0.44093   0.48029   0.00000  Uiso   1.00
C201   C     0.51331   0.42010   0.42895   0.00000  Uiso   1.00
C202   C     0.45901   0.43744   0.40868   0.00000  Uiso   1.00
C203   C     0.55693   0.49986   0.06228   0.00000  Uiso   1.00
C204   C     0.63217   0.44152   0.05403   0.00000  Uiso   1.00
H205   H     0.51002   0.54160   0.29180   0.00000  Uiso   1.00
H206   H     0.54297   0.53193   0.08510   0.00000  Uiso   1.00
H207   H     0.65137   0.54758   0.43328   0.00000  Uiso   1.00
H208   H     0.45174   0.52908   0.07420   0.00000  Uiso   1.00
H209   H     0.61949   0.39611   0.47572   0.00000  Uiso   1.00
H210   H     0.35886   0.56080   0.03463   0.00000  Uiso   1.00
H211   H     0.43471   0.41990   0.36889   0.00000  Uiso   1.00
H212   H     0.39266   0.33592   0.23392   0.00000  Uiso   1.00
H213   H     0.35174   0.41414   0.11536   0.00000  Uiso   1.00
H214   H     0.58069   0.35570   0.30135   0.00000  Uiso   1.00
H215   H     0.48998   0.45839   0.20821   0.00000  Uiso   1.00
H216   H     0.53001   0.39098   0.40410   0.00000  Uiso   1.00
N217   N     0.47827   0.48556   0.23542   0.00000  Uiso   1.00
N218   N     0.52173   0.51444   0.26457   0.00000  Uiso   1.00
O219   O     0.63102   0.57963   0.25357   0.00000  Uiso   1.00
O220   O     0.60365   0.66094   0.29037   0.00000  Uiso   1.00
O221   O     0.39075   0.57038   0.24423   0.00000  Uiso   1.00
O222   O     0.64823   0.50691   0.33380   0.00000  Uiso   1.00
O223   O     0.40796   0.49766   0.32446   0.00000  Uiso   1.00
O224   O     0.60925   0.42962   0.25576   0.00000  Uiso   1.00
O225   O     0.36898   0.42037   0.24642   0.00000  Uiso   1.00
O226   O     0.59204   0.50234   0.17554   0.00000  Uiso   1.00
O227   O     0.35177   0.49309   0.16620   0.00000  Uiso   1.00
O228   O     0.34912   0.41822   0.07453   0.00000  Uiso   1.00
Zn229  Zn    0.60453   0.50618   0.25623   0.00000  Uiso   1.00
Zn230  Zn    0.39547   0.49382   0.24376   0.00000  Uiso   1.00
C231   C     0.68196   0.59832   0.25058   0.00000  Uiso   1.00
C232   C     0.71946   0.50026   0.41609   0.00000  Uiso   1.00
C233   C     0.68895   0.65297   0.25039   0.00000  Uiso   1.00
C234   C     0.70196   0.50117   0.35520   0.00000  Uiso   1.00
C235   C     0.98095   0.34835   0.26457   0.00000  Uiso   1.00
C236   C     0.98596   0.40205   0.25437   0.00000  Uiso   1.00
C237   C     0.96381   0.49389   0.14484   0.00000  Uiso   1.00
C238   C     0.93489   0.42467   0.00024   0.00000  Uiso   1.00
C239   C     0.94241   0.47994   0.08524   0.00000  Uiso   1.00
C240   C     0.69089   0.52982   0.45068   0.00000  Uiso   1.00
C241   C     0.71454   0.53851   0.00775   0.00000  Uiso   1.00
C242   C     0.79825   0.49165   0.49482   0.00000  Uiso   1.00
C243   C     0.76844   0.52075   0.02968   0.00000  Uiso   1.00
C244   C     0.76959   0.47600   0.43954   0.00000  Uiso   1.00
C245   C     0.85553   0.47748   0.01297   0.00000  Uiso   1.00
C246   C     0.87933   0.44093   0.48029   0.00000  Uiso   1.00
C247   C     0.84664   0.42010   0.42895   0.00000  Uiso   1.00
C248   C     0.79234   0.43744   0.40868   0.00000  Uiso   1.00
C249   C     0.89027   0.49986   0.06228   0.00000  Uiso   1.00
C250   C     0.96550   0.44152   0.05403   0.00000  Uiso   1.00
H251   H     0.84335   0.54160   0.29180   0.00000  Uiso   1.00
H252   H     0.87630   0.53193   0.08510   0.00000  Uiso   1.00
H253   H     0.98470   0.54758   0.43328   0.00000  Uiso   1.00
H254   H     0.78507   0.52908   0.07420   0.00000  Uiso   1.00
H255   H     0.95283   0.39611   0.47572   0.00000  Uiso   1.00
H256   H     0.69219   0.56080   0.03463   0.00000  Uiso   1.00
H257   H     0.76804   0.41990   0.36889   0.00000  Uiso   1.00
H258   H     0.72599   0.33592   0.23392   0.00000  Uiso   1.00
H259   H     0.68508   0.41414   0.11536   0.00000  Uiso   1.00
H260   H     0.91402   0.35570   0.30135   0.00000  Uiso   1.00
H261   H     0.82331   0.45839   0.20821   0.00000  Uiso   1.00
H262   H     0.86334   0.39098   0.40410   0.00000  Uiso   1.00
N263   N     0.81160   0.48556   0.23542   0.00000  Uiso   1.00
N264   N     0.85507   0.51444   0.26457   0.00000  Uiso   1.00
O265   O     0.96435   0.57963   0.25357   0.00000  Uiso   1.00
O266   O     0.93698   0.66094   0.29037   0.00000  Uiso   1.00
O267   O     0.72408   0.57038   0.24423   0.00000  Uiso   1.00
O268   O     0.98157   0.50691   0.33380   0.00000  Uiso   1.00
O269   O     0.74130   0.49766   0.32446   0.00000  Uiso   1.00
O270   O     0.94258   0.42962   0.25576   0.00000  Uiso   1.00
O271   O     0.70231   0.42037   0.24642   0.00000  Uiso   1.00
O272   O     0.92537   0.50234   0.17554   0.00000  Uiso   1.00
O273   O     0.68510   0.49309   0.16620   0.00000  Uiso   1.00
O274   O     0.68245   0.41822   0.07453   0.00000  Uiso   1.00
Zn275  Zn    0.93786   0.50618   0.25623   0.00000  Uiso   1.00
Zn276  Zn    0.72881   0.49382   0.24376   0.00000  Uiso   1.00
C277   C     0.01530   0.93165   0.25058   0.00000  Uiso   1.00
C278   C     0.05279   0.83360   0.41609   0.00000  Uiso   1.00
C279   C     0.02228   0.98630   0.25039   0.00000  Uiso   1.00
C280   C     0.03529   0.83451   0.35520   0.00000  Uiso   1.00
C281   C     0.31428   0.68169   0.26457   0.00000  Uiso   1.00
C282   C     0.31930   0.73538   0.25437   0.00000  Uiso   1.00
C283   C     0.29714   0.82723   0.14484   0.00000  Uiso   1.00
C284   C     0.26823   0.75800   0.00024   0.00000  Uiso   1.00
C285   C     0.27574   0.81327   0.08524   0.00000  Uiso   1.00
C286   C     0.02422   0.86315   0.45068   0.00000  Uiso   1.00
C287   C     0.04787   0.87184   0.00775   0.00000  Uiso   1.00
C288   C     0.13158   0.82499   0.49482   0.00000  Uiso   1.00
C289   C     0.10178   0.85409   0.02968   0.00000  Uiso   1.00
C290   C     0.10292   0.80933   0.43954   0.00000  Uiso   1.00
C291   C     0.18887   0.81081   0.01297   0.00000  Uiso   1.00
C292   C     0.21266   0.77427   0.48029   0.00000  Uiso   1.00
C293   C     0.17997   0.75344   0.42895   0.00000  Uiso   1.00
C294   C     0.12568   0.77077   0.40868   0.00000  Uiso   1.00
C295   C     0.22360   0.83320   0.06228   0.00000  Uiso   1.00
C296   C     0.29884   0.77486   0.05403   0.00000  Uiso   1.00
H297   H     0.17668   0.87494   0.29180   0.00000  Uiso   1.00
H298   H     0.20963   0.86527   0.08510   0.00000  Uiso   1.00
H299   H     0.31803   0.88092   0.43328   0.00000  Uiso   1.00
H300   H     0.11840   0.86242   0.07420   0.00000  Uiso   1.00
H301   H     0.28616   0.72945   0.47572   0.00000  Uiso   1.00
H302   H     0.02552   0.89414   0.03463   0.00000  Uiso   1.00
H303   H     0.10137   0.75323   0.36889   0.00000  Uiso   1.00
H304   H     0.05932   0.66925   0.23392   0.00000  Uiso   1.00
H305   H     0.01841   0.74747   0.11536   0.00000  Uiso   1.00
H306   H     0.24735   0.68903   0.30135   0.00000  Uiso   1.00
H307   H     0.15665   0.79172   0.20821   0.00000  Uiso   1.00
H308   H     0.19668   0.72431   0.40410   0.00000  Uiso   1.00
N309   N     0.14493   0.81890   0.23542   0.00000  Uiso   1.00
N310   N     0.18840   0.84777   0.26457   0.00000  Uiso   1.00
O311   O     0.29769   0.91296   0.25357   0.00000  Uiso   1.00
O312   O     0.27031   0.99428   0.29037   0.00000  Uiso   1.00
O313   O     0.05742   0.90371   0.24423   0.00000  Uiso   1.00
O314   O     0.31490   0.84024   0.33380   0.00000  Uiso   1.00
O315   O     0.07463   0.83099   0.32446   0.00000  Uiso   1.00
O316   O     0.27592   0.76296   0.25576   0.00000  Uiso   1.00
O317   O     0.03565   0.75371   0.24642   0.00000  Uiso   1.00
O318   O     0.25870   0.83567   0.17554   0.00000  Uiso   1.00
O319   O     0.01843   0.82642   0.16620   0.00000  Uiso   1.00
O320   O     0.01578   0.75155   0.07453   0.00000  Uiso   1.00
Zn321  Zn    0.27119   0.83951   0.25623   0.00000  Uiso   1.00
Zn322  Zn    0.06214   0.82716   0.24376   0.00000  Uiso   1.00
C323   C     0.34863   0.93165   0.25058   0.00000  Uiso   1.00
C324   C     0.38612   0.83360   0.41609   0.00000  Uiso   1.00
C325   C     0.35562   0.98630   0.25039   0.00000  Uiso   1.00
C326   C     0.36863   0.83451   0.35520   0.00000  Uiso   1.00
C327   C     0.64761   0.68169   0.26457   0.00000  Uiso   1.00
C328   C     0.65263   0.73538   0.25437   0.00000  Uiso   1.00
C329   C     0.63047   0.82723   0.14484   0.00000  Uiso   1.00
C330   C     0.60156   0.75800   0.00024   0.00000  Uiso   1.00
C331   C     0.60908   0.81327   0.08524   0.00000  Uiso   1.00
C332   C     0.35756   0.86315   0.45068   0.00000  Uiso   1.00
C333   C     0.38121   0.87184   0.00775   0.00000  Uiso   1.00
C334   C     0.46492   0.82499   0.49482   0.00000  Uiso   1.00
C335   C     0.43511   0.85409   0.02968   0.00000  Uiso   1.00
C336   C     0.43626   0.80933   0.43954   0.00000  Uiso   1.00
C337   C     0.52220   0.81081   0.01297   0.00000  Uiso   1.00
C338   C     0.54600   0.77427   0.48029   0.00000  Uiso   1.00
C339   C     0.51331   0.75344   0.42895   0.00000  Uiso   1.00
C340   C     0.45901   0.77077   0.40868   0.00000  Uiso   1.00
C341   C     0.55693   0.83320   0.06228   0.00000  Uiso   1.00
C342   C     0.63217   0.77486   0.05403   0.00000  Uiso   1.00
H343   H     0.51002   0.87494   0.29180   0.00000  Uiso   1.00
H344   H     0.54297   0.86527   0.08510   0.00000  Uiso   1.00
H345   H     0.65137   0.88092   0.43328   0.00000  Uiso   1.00
H346   H     0.45174   0.86242   0.07420   0.00000  Uiso   1.00
H347   H     0.61949   0.72945   0.47572   0.00000  Uiso   1.00
H348   H     0.35886   0.89414   0.03463   0.00000  Uiso   1.00
H349   H     0.43471   0.75323   0.36889   0.00000  Uiso   1.00
H350   H     0.39266   0.66925   0.23392   0.00000  Uiso   1.00
H351   H     0.35174   0.74747   0.11536   0.00000  Uiso   1.00
H352   H     0.58069   0.68903   0.30135   0.00000  Uiso   1.00
H353   H     0.48998   0.79172   0.20821   0.00000  Uiso   1.00
H354   H     0.53001   0.72431   0.40410   0.00000  Uiso   1.00
N355   N     0.47827   0.81890   0.23542   0.00000  Uiso   1.00
N356   N     0.52173   0.84777   0.26457   0.00000  Uiso   1.00
O357   O     0.63102   0.91296   0.25357   0.00000  Uiso   1.00
O358   O     0.60365   0.99428   0.29037   0.00000  Uiso   1.00
O359   O     0.39075   0.90371   0.24423   0.00000  Uiso   1.00
O360   O     0.64823   0.84024   0.33380   0.00000  Uiso   1.00
O361   O     0.40796   0.83099   0.32446   0.00000  Uiso   1.00
O362   O     0.60925   0.76296   0.25576   0.00000  Uiso   1.00
O363   O     0.36898   0.75371   0.24642   0.00000  Uiso   1.00
O364   O     0.59204   0.83567   0.17554   0.00000  Uiso   1.00
O365   O     0.35177   0.82642   0.16620   0.00000  Uiso   1.00
O366   O     0.34912   0.75155   0.07453   0.00000  Uiso   1.00
Zn367  Zn    0.60453   0.83951   0.25623   0.00000  Uiso   1.00
Zn368  Zn    0.39547   0.82716   0.24376   0.00000  Uiso   1.00
C369   C     0.68196   0.93165   0.25058   0.00000  Uiso   1.00
C370   C     0.71946   0.83360   0.41609   0.00000  Uiso   1.00
C371   C     0.68895   0.98630   0.25039   0.00000  Uiso   1.00
C372   C     0.70196   0.83451   0.35520   0.00000  Uiso   1.00
C373   C     0.98095   0.68169   0.26457   0.00000  Uiso   1.00
C374   C     0.98596   0.73538   0.25437   0.00000  Uiso   1.00
C375   C     0.96381   0.82723   0.14484   0.00000  Uiso   1.00
C376   C     0.93489   0.75800   0.00024   0.00000  Uiso   1.00
C377   C     0.94241   0.81327   0.08524   0.00000  Uiso   1.00
C378   C     0.69089   0.86315   0.45068   0.00000  Uiso   1.00
C379   C     0.71454   0.87184   0.00775   0.00000  Uiso   1.00
C380   C     0.79825   0.82499   0.49482   0.00000  Uiso   1.00
C381   C     0.76844   0.85409   0.02968   0.00000  Uiso   1.00
C382   C     0.76959   0.80933   0.43954   0.00000  Uiso   1.00
C383   C     0.85553   0.81081   0.01297   0.00000  Uiso   1.00
C384   C     0.87933   0.77427   0.48029   0.00000  Uiso   1.00
C385   C     0.84664   0.75344   0.42895   0.00000  Uiso   1.00
C386   C     0.79234   0.77077   0.40868   0.00000  Uiso   1.00
C387   C     0.89027   0.83320   0.06228   0.00000  Uiso   1.00
C388   C     0.96550   0.77486   0.05403   0.00000  Uiso   1.00
H389   H     0.84335   0.87494   0.29180   0.00000  Uiso   1.00
H390   H     0.87630   0.86527   0.08510   0.00000  Uiso   1.00
H391   H     0.98470   0.88092   0.43328   0.00000  Uiso   1.00
H392   H     0.78507   0.86242   0.07420   0.00000  Uiso   1.00
H393   H     0.95283   0.72945   0.47572   0.00000  Uiso   1.00
H394   H     0.69219   0.89414   0.03463   0.00000  Uiso   1.00
H395   H     0.76804   0.75323   0.36889   0.00000  Uiso   1.00
H396   H     0.72599   0.66925   0.23392   0.00000  Uiso   1.00
H397   H     0.68508   0.74747   0.11536   0.00000  Uiso   1.00
H398   H     0.91402   0.68903   0.30135   0.00000  Uiso   1.00
H399   H     0.82331   0.79172   0.20821   0.00000  Uiso   1.00
H400   H     0.86334   0.72431   0.40410   0.00000  Uiso   1.00
N401   N     0.81160   0.81890   0.23542   0.00000  Uiso   1.00
N402   N     0.85507   0.84777   0.26457   0.00000  Uiso   1.00
O403   O     0.96435   0.91296   0.25357   0.00000  Uiso   1.00
O404   O     0.93698   0.99428   0.29037   0.00000  Uiso   1.00
O405   O     0.72408   0.90371   0.24423   0.00000  Uiso   1.00
O406   O     0.98157   0.84024   0.33380   0.00000  Uiso   1.00
O407   O     0.74130   0.83099   0.32446   0.00000  Uiso   1.00
O408   O     0.94258   0.76296   0.25576   0.00000  Uiso   1.00
O409   O     0.70231   0.75371   0.24642   0.00000  Uiso   1.00
O410   O     0.92537   0.83567   0.17554   0.00000  Uiso   1.00
O411   O     0.68510   0.82642   0.16620   0.00000  Uiso   1.00
O412   O     0.68245   0.75155   0.07453   0.00000  Uiso   1.00
Zn413  Zn    0.93786   0.83951   0.25623   0.00000  Uiso   1.00
Zn414  Zn    0.72881   0.82716   0.24376   0.00000  Uiso   1.00
C415   C     0.01530   0.26498   0.75058   0.00000  Uiso   1.00
C416   C     0.05279   0.16693   0.91609   0.00000  Uiso   1.00
C417   C     0.02228   0.31963   0.75039   0.00000  Uiso   1.00
C418   C     0.03529   0.16784   0.85520   0.00000  Uiso   1.00
C419   C     0.31428   0.01502   0.76457   0.00000  Uiso   1.00
C420   C     0.31930   0.06871   0.75437   0.00000  Uiso   1.00
C421   C     0.29714   0.16056   0.64484   0.00000  Uiso   1.00
C422   C     0.26823   0.09134   0.50024   0.00000  Uiso   1.00
C423   C     0.27574   0.14660   0.58524   0.00000  Uiso   1.00
C424   C     0.02422   0.19648   0.95068   0.00000  Uiso   1.00
C425   C     0.04787   0.20518   0.50775   0.00000  Uiso   1.00
C426   C     0.13158   0.15832   0.99482   0.00000  Uiso   1.00
C427   C     0.10178   0.18742   0.52968   0.00000  Uiso   1.00
C428   C     0.10292   0.14266   0.93954   0.00000  Uiso   1.00
C429   C     0.18887   0.14415   0.51297   0.00000  Uiso   1.00
C430   C     0.21266   0.10760   0.98029   0.00000  Uiso   1.00
C431   C     0.17997   0.08677   0.92895   0.00000  Uiso   1.00
C432   C     0.12568   0.10411   0.90868   0.00000  Uiso   1.00
C433   C     0.22360   0.16653   0.56228   0.00000  Uiso   1.00
C434   C     0.29884   0.10819   0.55403   0.00000  Uiso   1.00
H435   H     0.17668   0.20827   0.79180   0.00000  Uiso   1.00
H436   H     0.20963   0.19860   0.58510   0.00000  Uiso   1.00
H437   H     0.31803   0.21425   0.93328   0.00000  Uiso   1.00
H438   H     0.11840   0.19575   0.57420   0.00000  Uiso   1.00
H439   H     0.28616   0.06278   0.97572   0.00000  Uiso   1.00
H440   H     0.02552   0.22747   0.53463   0.00000  Uiso   1.00
H441   H     0.10137   0.08657   0.86889   0.00000  Uiso   1.00
H442   H     0.05932   0.00259   0.73392   0.00000  Uiso   1.00
H443   H     0.01841   0.08080   0.61536   0.00000  Uiso   1.00
H444   H     0.24735   0.02237   0.80135   0.00000  Uiso   1.00
H445   H     0.15665   0.12506   0.70821   0.00000  Uiso   1.00
H446   H     0.19668   0.05765   0.90410   0.00000  Uiso   1.00
N447   N     0.14493   0.15223   0.73542   0.00000  Uiso   1.00
N448   N     0.18840   0.18110   0.76457   0.00000  Uiso   1.00
O449   O     0.29769   0.24629   0.75357   0.00000  Uiso   1.00
O450   O     0.27031   0.32761   0.79037   0.00000  Uiso   1.00
O451   O     0.05742   0.23704   0.74423   0.00000  Uiso   1.00
O452   O     0.31490   0.17358   0.83380   0.00000  Uiso   1.00
O453   O     0.07463   0.16433   0.82446   0.00000  Uiso   1.00
O454   O     0.27592   0.09629   0.75576   0.00000  Uiso   1.00
O455   O     0.03565   0.08704   0.74642   0.00000  Uiso   1.00
O456   O     0.25870   0.16901   0.67554   0.00000  Uiso   1.00
O457   O     0.01843   0.15976   0.66620   0.00000  Uiso   1.00
O458   O     0.01578   0.08488   0.57453   0.00000  Uiso   1.00
Zn459  Zn    0.27119   0.17284   0.75623   0.00000  Uiso   1.00
Zn460  Zn    0.06214   0.16049   0.74376   0.00000  Uiso   1.00
C461   C     0.34863   0.26498   0.75058   0.00000  Uiso   1.00
C462   C     0.38612   0.16693   0.91609   0.00000  Uiso   1.00
C463   C     0.35562   0.31963   0.75039   0.00000  Uiso   1.00
C464   C     0.36863   0.16784   0.85520   0.00000  Uiso   1.00
C465   C     0.64761   0.01502   0.76457   0.00000  Uiso   1.00
C466   C     0.65263   0.06871   0.75437   0.00000  Uiso   1.00
C467   C     0.63047   0.16056   0.64484   0.00000  Uiso   1.00
C468   C     0.60156   0.09134   0.50024   0.00000  Uiso   1.00
C469   C     0.60908   0.14660   0.58524   0.00000  Uiso   1.00
C470   C     0.35756   0.19648   0.95068   0.00000  Uiso   1.00
C471   C     0.38121   0.20518   0.50775   0.00000  Uiso   1.00
C472   C     0.46492   0.15832   0.99482   0.00000  Uiso   1.00
C473   C     0.43511   0.18742   0.52968   0.00000  Uiso   1.00
C474   C     0.43626   0.14266   0.93954   0.00000  Uiso   1.00
C475   C     0.52220   0.14415   0.51297   0.00000  Uiso   1.00
C476   C     0.54600   0.10760   0.98029   0.00000  Uiso   1.00
C477   C     0.51331   0.08677   0.92895   0.00000  Uiso   1.00
C478   C     0.45901   0.10411   0.90868   0.00000  Uiso   1.00
C479   C     0.55693   0.16653   0.56228   0.00000  Uiso   1.00
C480   C     0.63217   0.10819   0.55403   0.00000  Uiso   1.00
H481   H     0.51002   0.20827   0.79180   0.00000  Uiso   1.00
H482   H     0.54297   0.19860   0.58510   0.00000  Uiso   1.00
H483   H     0.65137   0.21425   0.93328   0.00000  Uiso   1.00
H484   H     0.45174   0.19575   0.57420   0.00000  Uiso   1.00
H485   H     0.61949   0.06278   0.97572   0.00000  Uiso   1.00
H486   H     0.35886   0.22747   0.53463   0.00000  Uiso   1.00
H487   H     0.43471   0.08657   0.86889   0.00000  Uiso   1.00
H488   H     0.39266   0.00259   0.73392   0.00000  Uiso   1.00
H489   H     0.35174   0.08080   0.61536   0.00000  Uiso   1.00
H490   H     0.58069   0.02237   0.80135   0.00000  Uiso   1.00
H491   H     0.48998   0.12506   0.70821   0.00000  Uiso   1.00
H492   H     0.53001   0.05765   0.90410   0.00000  Uiso   1.00
N493   N     0.47827   0.15223   0.73542   0.00000  Uiso   1.00
N494   N     0.52173   0.18110   0.76457   0.00000  Uiso   1.00
O495   O     0.63102   0.24629   0.75357   0.00000  Uiso   1.00
O496   O     0.60365   0.32761   0.79037   0.00000  Uiso   1.00
O497   O     0.39075   0.23704   0.74423   0.00000  Uiso   1.00
O498   O     0.64823   0.17358   0.83380   0.00000  Uiso   1.00
O499   O     0.40796   0.16433   0.82446   0.00000  Uiso   1.00
O500   O     0.60925   0.09629   0.75576   0.00000  Uiso   1.00
O501   O     0.36898   0.08704   0.74642   0.00000  Uiso   1.00
O502   O     0.59204   0.16901   0.67554   0.00000  Uiso   1.00
O503   O     0.35177   0.15976   0.66620   0.00000  Uiso   1.00
O504   O     0.34912   0.08488   0.57453   0.00000  Uiso   1.00
Zn505  Zn    0.60453   0.17284   0.75623   0.00000  Uiso   1.00
Zn506  Zn    0.39547   0.16049   0.74376   0.00000  Uiso   1.00
C507   C     0.68196   0.26498   0.75058   0.00000  Uiso   1.00
C508   C     0.71946   0.16693   0.91609   0.00000  Uiso   1.00
C509   C     0.68895   0.31963   0.75039   0.00000  Uiso   1.00
C510   C     0.70196   0.16784   0.85520   0.00000  Uiso   1.00
C511   C     0.98095   0.01502   0.76457   0.00000  Uiso   1.00
C512   C     0.98596   0.06871   0.75437   0.00000  Uiso   1.00
C513   C     0.96381   0.16056   0.64484   0.00000  Uiso   1.00
C514   C     0.93489   0.09134   0.50024   0.00000  Uiso   1.00
C515   C     0.94241   0.14660   0.58524   0.00000  Uiso   1.00
C516   C     0.69089   0.19648   0.95068   0.00000  Uiso   1.00
C517   C     0.71454   0.20518   0.50775   0.00000  Uiso   1.00
C518   C     0.79825   0.15832   0.99482   0.00000  Uiso   1.00
C519   C     0.76844   0.18742   0.52968   0.00000  Uiso   1.00
C520   C     0.76959   0.14266   0.93954   0.00000  Uiso   1.00
C521   C     0.85553   0.14415   0.51297   0.00000  Uiso   1.00
C522   C     0.87933   0.10760   0.98029   0.00000  Uiso   1.00
C523   C     0.84664   0.08677   0.92895   0.00000  Uiso   1.00
C524   C     0.79234   0.10411   0.90868   0.00000  Uiso   1.00
C525   C     0.89027   0.16653   0.56228   0.00000  Uiso   1.00
C526   C     0.96550   0.10819   0.55403   0.00000  Uiso   1.00
H527   H     0.84335   0.20827   0.79180   0.00000  Uiso   1.00
H528   H     0.87630   0.19860   0.58510   0.00000  Uiso   1.00
H529   H     0.98470   0.21425   0.93328   0.00000  Uiso   1.00
H530   H     0.78507   0.19575   0.57420   0.00000  Uiso   1.00
H531   H     0.95283   0.06278   0.97572   0.00000  Uiso   1.00
H532   H     0.69219   0.22747   0.53463   0.00000  Uiso   1.00
H533   H     0.76804   0.08657   0.86889   0.00000  Uiso   1.00
H534   H     0.72599   0.00259   0.73392   0.00000  Uiso   1.00
H535   H     0.68508   0.08080   0.61536   0.00000  Uiso   1.00
H536   H     0.91402   0.02237   0.80135   0.00000  Uiso   1.00
H537   H     0.82331   0.12506   0.70821   0.00000  Uiso   1.00
H538   H     0.86334   0.05765   0.90410   0.00000  Uiso   1.00
N539   N     0.81160   0.15223   0.73542   0.00000  Uiso   1.00
N540   N     0.85507   0.18110   0.76457   0.00000  Uiso   1.00
O541   O     0.96435   0.24629   0.75357   0.00000  Uiso   1.00
O542   O     0.93698   0.32761   0.79037   0.00000  Uiso   1.00
O543   O     0.72408   0.23704   0.74423   0.00000  Uiso   1.00
O544   O     0.98157   0.17358   0.83380   0.00000  Uiso   1.00
O545   O     0.74130   0.16433   0.82446   0.00000  Uiso   1.00
O546   O     0.94258   0.09629   0.75576   0.00000  Uiso   1.00
O547   O     0.70231   0.08704   0.74642   0.00000  Uiso   1.00
O548   O     0.92537   0.16901   0.67554   0.00000  Uiso   1.00
O549   O     0.68510   0.15976   0.66620   0.00000  Uiso   1.00
O550   O     0.68245   0.08488   0.57453   0.00000  Uiso   1.00
Zn551  Zn    0.93786   0.17284   0.75623   0.00000  Uiso   1.00
Zn552  Zn    0.72881   0.16049   0.74376   0.00000  Uiso   1.00
C553   C     0.01530   0.59832   0.75058   0.00000  Uiso   1.00
C554   C     0.05279   0.50026   0.91609   0.00000  Uiso   1.00
C555   C     0.02228   0.65297   0.75039   0.00000  Uiso   1.00
C556   C     0.03529   0.50117   0.85520   0.00000  Uiso   1.00
C557   C     0.31428   0.34835   0.76457   0.00000  Uiso   1.00
C558   C     0.31930   0.40205   0.75437   0.00000  Uiso   1.00
C559   C     0.29714   0.49389   0.64484   0.00000  Uiso   1.00
C560   C     0.26823   0.42467   0.50024   0.00000  Uiso   1.00
C561   C     0.27574   0.47994   0.58524   0.00000  Uiso   1.00
C562   C     0.02422   0.52982   0.95068   0.00000  Uiso   1.00
C563   C     0.04787   0.53851   0.50775   0.00000  Uiso   1.00
C564   C     0.13158   0.49165   0.99482   0.00000  Uiso   1.00
C565   C     0.10178   0.52075   0.52968   0.00000  Uiso   1.00
C566   C     0.10292   0.47600   0.93954   0.00000  Uiso   1.00
C567   C     0.18887   0.47748   0.51297   0.00000  Uiso   1.00
C568   C     0.21266   0.44093   0.98029   0.00000  Uiso   1.00
C569   C     0.17997   0.42010   0.92895   0.00000  Uiso   1.00
C570   C     0.12568   0.43744   0.90868   0.00000  Uiso   1.00
C571   C     0.22360   0.49986   0.56228   0.00000  Uiso   1.00
C572   C     0.29884   0.44152   0.55403   0.00000  Uiso   1.00
H573   H     0.17668   0.54160   0.79180   0.00000  Uiso   1.00
H574   H     0.20963   0.53193   0.58510   0.00000  Uiso   1.00
H575   H     0.31803   0.54758   0.93328   0.00000  Uiso   1.00
H576   H     0.11840   0.52908   0.57420   0.00000  Uiso   1.00
H577   H     0.28616   0.39611   0.97572   0.00000  Uiso   1.00
H578   H     0.02552   0.56080   0.53463   0.00000  Uiso   1.00
H579   H     0.10137   0.41990   0.86889   0.00000  Uiso   1.00
H580   H     0.05932   0.33592   0.73392   0.00000  Uiso   1.00
H581   H     0.01841   0.41414   0.61536   0.00000  Uiso   1.00
H582   H     0.24735   0.35570   0.80135   0.00000  Uiso   1.00
H583   H     0.15665   0.45839   0.70821   0.00000  Uiso   1.00
H584   H     0.19668   0.39098   0.90410   0.00000  Uiso   1.00
N585   N     0.14493   0.48556   0.73542   0.00000  Uiso   1.00
N586   N     0.18840   0.51444   0.76457   0.00000  Uiso   1.00
O587   O     0.29769   0.57963   0.75357   0.00000  Uiso   1.00
O588   O     0.27031   0.66094   0.79037   0.00000  Uiso   1.00
O589   O     0.05742   0.57038   0.74423   0.00000  Uiso   1.00
O590   O     0.31490   0.50691   0.83380   0.00000  Uiso   1.00
O591   O     0.07463   0.49766   0.82446   0.00000  Uiso   1.00
O592   O     0.27592   0.42962   0.75576   0.00000  Uiso   1.00
O593   O     0.03565   0.42037   0.74642   0.00000  Uiso   1.00
O594   O     0.25870   0.50234   0.67554   0.00000  Uiso   1.00
O595   O     0.01843   0.49309   0.66620   0.00000  Uiso   1.00
O596   O     0.01578   0.41822   0.57453   0.00000  Uiso   1.00
Zn597  Zn    0.27119   0.50618   0.75623   0.00000  Uiso   1.00
Zn598  Zn    0.06214   0.49382   0.74376   0.00000  Uiso   1.00
C599   C     0.34863   0.59832   0.75058   0.00000  Uiso   1.00
C600   C     0.38612   0.50026   0.91609   0.00000  Uiso   1.00
C601   C     0.35562   0.65297   0.75039   0.00000  Uiso   1.00
C602   C     0.36863   0.50117   0.85520   0.00000  Uiso   1.00
C603   C     0.64761   0.34835   0.76457   0.00000  Uiso   1.00
C604   C     0.65263   0.40205   0.75437   0.00000  Uiso   1.00
C605   C     0.63047   0.49389   0.64484   0.00000  Uiso   1.00
C606   C     0.60156   0.42467   0.50024   0.00000  Uiso   1.00
C607   C     0.60908   0.47994   0.58524   0.00000  Uiso   1.00
C608   C     0.35756   0.52982   0.95068   0.00000  Uiso   1.00
C609   C     0.38121   0.53851   0.50775   0.00000  Uiso   1.00
C610   C     0.46492   0.49165   0.99482   0.00000  Uiso   1.00
C611   C     0.43511   0.52075   0.52968   0.00000  Uiso   1.00
C612   C     0.43626   0.47600   0.93954   0.00000  Uiso   1.00
C613   C     0.52220   0.47748   0.51297   0.00000  Uiso   1.00
C614   C     0.54600   0.44093   0.98029   0.00000  Uiso   1.00
C615   C     0.51331   0.42010   0.92895   0.00000  Uiso   1.00
C616   C     0.45901   0.43744   0.90868   0.00000  Uiso   1.00
C617   C     0.55693   0.49986   0.56228   0.00000  Uiso   1.00
C618   C     0.63217   0.44152   0.55403   0.00000  Uiso   1.00
H619   H     0.51002   0.54160   0.79180   0.00000  Uiso   1.00
H620   H     0.54297   0.53193   0.58510   0.00000  Uiso   1.00
H621   H     0.65137   0.54758   0.93328   0.00000  Uiso   1.00
H622   H     0.45174   0.52908   0.57420   0.00000  Uiso   1.00
H623   H     0.61949   0.39611   0.97572   0.00000  Uiso   1.00
H624   H     0.35886   0.56080   0.53463   0.00000  Uiso   1.00
H625   H     0.43471   0.41990   0.86889   0.00000  Uiso   1.00
H626   H     0.39266   0.33592   0.73392   0.00000  Uiso   1.00
H627   H     0.35174   0.41414   0.61536   0.00000  Uiso   1.00
H628   H     0.58069   0.35570   0.80135   0.00000  Uiso   1.00
H629   H     0.48998   0.45839   0.70821   0.00000  Uiso   1.00
H630   H     0.53001   0.39098   0.90410   0.00000  Uiso   1.00
N631   N     0.47827   0.48556   0.73542   0.00000  Uiso   1.00
N632   N     0.52173   0.51444   0.76457   0.00000  Uiso   1.00
O633   O     0.63102   0.57963   0.75357   0.00000  Uiso   1.00
O634   O     0.60365   0.66094   0.79037   0.00000  Uiso   1.00
O635   O     0.39075   0.57038   0.74423   0.00000  Uiso   1.00
O636   O     0.64823   0.50691   0.83380   0.00000  Uiso   1.00
O637   O     0.40796   0.49766   0.82446   0.00000  Uiso   1.00
O638   O     0.60925   0.42962   0.75576   0.00000  Uiso   1.00
O639   O     0.36898   0.42037   0.74642   0.00000  Uiso   1.00
O640   O     0.59204   0.50234   0.67554   0.00000  Uiso   1.00
O641   O     0.35177   0.49309   0.66620   0.00000  Uiso   1.00
O642   O     0.34912   0.41822   0.57453   0.00000  Uiso   1.00
Zn643  Zn    0.60453   0.50618   0.75623   0.00000  Uiso   1.00
Zn644  Zn    0.39547   0.49382   0.74376   0.00000  Uiso   1.00
C645   C     0.68196   0.59832   0.75058   0.00000  Uiso   1.00
C646   C     0.71946   0.50026   0.91609   0.00000  Uiso   1.00
C647   C     0.68895   0.65297   0.75039   0.00000  Uiso   1.00
C648   C     0.70196   0.50117   0.85520   0.00000  Uiso   1.00
C649   C     0.98095   0.34835   0.76457   0.00000  Uiso   1.00
C650   C     0.98596   0.40205   0.75437   0.00000  Uiso   1.00
C651   C     0.96381   0.49389   0.64484   0.00000  Uiso   1.00
C652   C     0.93489   0.42467   0.50024   0.00000  Uiso   1.00
C653   C     0.94241   0.47994   0.58524   0.00000  Uiso   1.00
C654   C     0.69089   0.52982   0.95068   0.00000  Uiso   1.00
C655   C     0.71454   0.53851   0.50775   0.00000  Uiso   1.00
C656   C     0.79825   0.49165   0.99482   0.00000  Uiso   1.00
C657   C     0.76844   0.52075   0.52968   0.00000  Uiso   1.00
C658   C     0.76959   0.47600   0.93954   0.00000  Uiso   1.00
C659   C     0.85553   0.47748   0.51297   0.00000  Uiso   1.00
C660   C     0.87933   0.44093   0.98029   0.00000  Uiso   1.00
C661   C     0.84664   0.42010   0.92895   0.00000  Uiso   1.00
C662   C     0.79234   0.43744   0.90868   0.00000  Uiso   1.00
C663   C     0.89027   0.49986   0.56228   0.00000  Uiso   1.00
C664   C     0.96550   0.44152   0.55403   0.00000  Uiso   1.00
H665   H     0.84335   0.54160   0.79180   0.00000  Uiso   1.00
H666   H     0.87630   0.53193   0.58510   0.00000  Uiso   1.00
H667   H     0.98470   0.54758   0.93328   0.00000  Uiso   1.00
H668   H     0.78507   0.52908   0.57420   0.00000  Uiso   1.00
H669   H     0.95283   0.39611   0.97572   0.00000  Uiso   1.00
H670   H     0.69219   0.56080   0.53463   0.00000  Uiso   1.00
H671   H     0.76804   0.41990   0.86889   0.00000  Uiso   1.00
H672   H     0.72599   0.33592   0.73392   0.00000  Uiso   1.00
H673   H     0.68508   0.41414   0.61536   0.00000  Uiso   1.00
H674   H     0.91402   0.35570   0.80135   0.00000  Uiso   1.00
H675   H     0.82331   0.45839   0.70821   0.00000  Uiso   1.00
H676   H     0.86334   0.39098   0.90410   0.00000  Uiso   1.00
N677   N     0.81160   0.48556   0.73542   0.00000  Uiso   1.00
N678   N     0.85507   0.51444   0.76457   0.00000  Uiso   1.00
O679   O     0.96435   0.57963   0.75357   0.00000  Uiso   1.00
O680   O     0.93698   0.66094   0.79037   0.00000  Uiso   1.00
O681   O     0.72408   0.57038   0.74423   0.00000  Uiso   1.00
O682   O     0.98157   0.50691   0.83380   0.00000  Uiso   1.00
O683   O     0.74130   0.49766   0.82446   0.00000  Uiso   1.00
O684   O     0.94258   0.42962   0.75576   0.00000  Uiso   1.00
O685   O     0.70231   0.42037   0.74642   0.00000  Uiso   1.00
O686   O     0.92537   0.50234   0.67554   0.00000  Uiso   1.00
O687   O     0.68510   0.49309   0.66620   0.00000  Uiso   1.00
O688   O     0.68245   0.41822   0.57453   0.00000  Uiso   1.00
Zn689  Zn    0.93786   0.50618   0.75623   0.00000  Uiso   1.00
Zn690  Zn    0.72881   0.49382   0.74376   0.00000  Uiso   1.00
C691   C     0.01530   0.93165   0.75058   0.00000  Uiso   1.00
C692   C     0.05279   0.83360   0.91609   0.00000  Uiso   1.00
C693   C     0.02228   0.98630   0.75039   0.00000  Uiso   1.00
C694   C     0.03529   0.83451   0.85520   0.00000  Uiso   1.00
C695   C     0.31428   0.68169   0.76457   0.00000  Uiso   1.00
C696   C     0.31930   0.73538   0.75437   0.00000  Uiso   1.00
C697   C     0.29714   0.82723   0.64484   0.00000  Uiso   1.00
C698   C     0.26823   0.75800   0.50024   0.00000  Uiso   1.00
C699   C     0.27574   0.81327   0.58524   0.00000  Uiso   1.00
C700   C     0.02422   0.86315   0.95068   0.00000  Uiso   1.00
C701   C     0.04787   0.87184   0.50775   0.00000  Uiso   1.00
C702   C     0.13158   0.82499   0.99482   0.00000  Uiso   1.00
C703   C     0.10178   0.85409   0.52968   0.00000  Uiso   1.00
C704   C     0.10292   0.80933   0.93954   0.00000  Uiso   1.00
C705   C     0.18887   0.81081   0.51297   0.00000  Uiso   1.00
C706   C     0.21266   0.77427   0.98029   0.00000  Uiso   1.00
C707   C     0.17997   0.75344   0.92895   0.00000  Uiso   1.00
C708   C     0.12568   0.77077   0.90868   0.00000  Uiso   1.00
C709   C     0.22360   0.83320   0.56228   0.00000  Uiso   1.00
C710   C     0.29884   0.77486   0.55403   0.00000  Uiso   1.00
H711   H     0.17668   0.87494   0.79180   0.00000  Uiso   1.00
H712   H     0.20963   0.86527   0.58510   0.00000  Uiso   1.00
H713   H     0.31803   0.88092   0.93328   0.00000  Uiso   1.00
H714   H     0.11840   0.86242   0.57420   0.00000  Uiso   1.00
H715   H     0.28616   0.72945   0.97572   0.00000  Uiso   1.00
H716   H     0.02552   0.89414   0.53463   0.00000  Uiso   1.00
H717   H     0.10137   0.75323   0.86889   0.00000  Uiso   1.00
H718   H     0.05932   0.66925   0.73392   0.00000  Uiso   1.00
H719   H     0.01841   0.74747   0.61536   0.00000  Uiso   1.00
H720   H     0.24735   0.68903   0.80135   0.00000  Uiso   1.00
H721   H     0.15665   0.79172   0.70821   0.00000  Uiso   1.00
H722   H     0.19668   0.72431   0.90410   0.00000  Uiso   1.00
N723   N     0.14493   0.81890   0.73542   0.00000  Uiso   1.00
N724   N     0.18840   0.84777   0.76457   0.00000  Uiso   1.00
O725   O     0.29769   0.91296   0.75357   0.00000  Uiso   1.00
O726   O     0.27031   0.99428   0.79037   0.00000  Uiso   1.00
O727   O     0.05742   0.90371   0.74423   0.00000  Uiso   1.00
O728   O     0.31490   0.84024   0.83380   0.00000  Uiso   1.00
O729   O     0.07463   0.83099   0.82446   0.00000  Uiso   1.00
O730   O     0.27592   0.76296   0.75576   0.00000  Uiso   1.00
O731   O     0.03565   0.75371   0.74642   0.00000  Uiso   1.00
O732   O     0.25870   0.83567   0.67554   0.00000  Uiso   1.00
O733   O     0.01843   0.82642   0.66620   0.00000  Uiso   1.00
O734   O     0.01578   0.75155   0.57453   0.00000  Uiso   1.00
Zn735  Zn    0.27119   0.83951   0.75623   0.00000  Uiso   1.00
Zn736  Zn    0.06214   0.82716   0.74376   0.00000  Uiso   1.00
C737   C     0.34863   0.93165   0.75058   0.00000  Uiso   1.00
C738   C     0.38612   0.83360   0.91609   0.00000  Uiso   1.00
C739   C     0.35562   0.98630   0.75039   0.00000  Uiso   1.00
C740   C     0.36863   0.83451   0.85520   0.00000  Uiso   1.00
C741   C     0.64761   0.68169   0.76457   0.00000  Uiso   1.00
C742   C     0.65263   0.73538   0.75437   0.00000  Uiso   1.00
C743   C     0.63047   0.82723   0.64484   0.00000  Uiso   1.00
C744   C     0.60156   0.75800   0.50024   0.00000  Uiso   1.00
C745   C     0.60908   0.81327   0.58524   0.00000  Uiso   1.00
C746   C     0.35756   0.86315   0.95068   0.00000  Uiso   1.00
C747   C     0.38121   0.87184   0.50775   0.00000  Uiso   1.00
C748   C     0.46492   0.82499   0.99482   0.00000  Uiso   1.00
C749   C     0.43511   0.85409   0.52968   0.00000  Uiso   1.00
C750   C     0.43626   0.80933   0.93954   0.00000  Uiso   1.00
C751   C     0.52220   0.81081   0.51297   0.00000  Uiso   1.00
C752   C     0.54600   0.77427   0.98029   0.00000  Uiso   1.00
C753   C     0.51331   0.75344   0.92895   0.00000  Uiso   1.00
C754   C     0.45901   0.77077   0.90868   0.00000  Uiso   1.00
C755   C     0.55693   0.83320   0.56228   0.00000  Uiso   1.00
C756   C     0.63217   0.77486   0.55403   0.00000  Uiso   1.00
H757   H     0.51002   0.87494   0.79180   0.00000  Uiso   1.00
H758   H     0.54297   0.86527   0.58510   0.00000  Uiso   1.00
H759   H     0.65137   0.88092   0.93328   0.00000  Uiso   1.00
H760   H     0.45174   0.86242   0.57420   0.00000  Uiso   1.00
H761   H     0.61949   0.72945   0.97572   0.00000  Uiso   1.00
H762   H     0.35886   0.89414   0.53463   0.00000  Uiso   1.00
H763   H     0.43471   0.75323   0.86889   0.00000  Uiso   1.00
H764   H     0.39266   0.66925   0.73392   0.00000  Uiso   1.00
H765   H     0.35174   0.74747   0.61536   0.00000  Uiso   1.00
H766   H     0.58069   0.68903   0.80135   0.00000  Uiso   1.00
H767   H     0.48998   0.79172   0.70821   0.00000  Uiso   1.00
H768   H     0.53001   0.72431   0.90410   0.00000  Uiso   1.00
N769   N     0.47827   0.81890   0.73542   0.00000  Uiso   1.00
N770   N     0.52173   0.84777   0.76457   0.00000  Uiso   1.00
O771   O     0.63102   0.91296   0.75357   0.00000  Uiso   1.00
O772   O     0.60365   0.99428   0.79037   0.00000  Uiso   1.00
O773   O     0.39075   0.90371   0.74423   0.00000  Uiso   1.00
O774   O     0.64823   0.84024   0.83380   0.00000  Uiso   1.00
O775   O     0.40796   0.83099   0.82446   0.00000  Uiso   1.00
O776   O     0.60925   0.76296   0.75576   0.00000  Uiso   1.00
O777   O     0.36898   0.75371   0.74642   0.00000  Uiso   1.00
O778   O     0.59204   0.83567   0.67554   0.00000  Uiso   1.00
O779   O     0.35177   0.82642   0.66620   0.00000  Uiso   1.00
O780   O     0.34912   0.75155   0.57453   0.00000  Uiso   1.00
Zn781  Zn    0.60453   0.83951   0.75623   0.00000  Uiso   1.00
Zn782  Zn    0.39547   0.82716   0.74376   0.00000  Uiso   1.00
C783   C     0.68196   0.93165   0.75058   0.00000  Uiso   1.00
C784   C     0.71946   0.83360   0.91609   0.00000  Uiso   1.00
C785   C     0.68895   0.98630   0.75039   0.00000  Uiso   1.00
C786   C     0.70196   0.83451   0.85520   0.00000  Uiso   1.00
C787   C     0.98095   0.68169   0.76457   0.00000  Uiso   1.00
C788   C     0.98596   0.73538   0.75437   0.00000  Uiso   1.00
C789   C     0.96381   0.82723   0.64484   0.00000  Uiso   1.00
C790   C     0.93489   0.75800   0.50024   0.00000  Uiso   1.00
C791   C     0.94241   0.81327   0.58524   0.00000  Uiso   1.00
C792   C     0.69089   0.86315   0.95068   0.00000  Uiso   1.00
C793   C     0.71454   0.87184   0.50775   0.00000  Uiso   1.00
C794   C     0.79825   0.82499   0.99482   0.00000  Uiso   1.00
C795   C     0.76844   0.85409   0.52968   0.00000  Uiso   1.00
C796   C     0.76959   0.80933   0.93954   0.00000  Uiso   1.00
C797   C     0.85553   0.81081   0.51297   0.00000  Uiso   1.00
C798   C     0.87933   0.77427   0.98029   0.00000  Uiso   1.00
C799   C     0.84664   0.75344   0.92895   0.00000  Uiso   1.00
C800   C     0.79234   0.77077   0.90868   0.00000  Uiso   1.00
C801   C     0.89027   0.83320   0.56228   0.00000  Uiso   1.00
C802   C     0.96550   0.77486   0.55403   0.00000  Uiso   1.00
H803   H     0.84335   0.87494   0.79180   0.00000  Uiso   1.00
H804   H     0.87630   0.86527   0.58510   0.00000  Uiso   1.00
H805   H     0.98470   0.88092   0.93328   0.00000  Uiso   1.00
H806   H     0.78507   0.86242   0.57420   0.00000  Uiso   1.00
H807   H     0.95283   0.72945   0.97572   0.00000  Uiso   1.00
H808   H     0.69219   0.89414   0.53463   0.00000  Uiso   1.00
H809   H     0.76804   0.75323   0.86889   0.00000  Uiso   1.00
H810   H     0.72599   0.66925   0.73392   0.00000  Uiso   1.00
H811   H     0.68508   0.74747   0.61536   0.00000  Uiso   1.00
H812   H     0.91402   0.68903   0.80135   0.00000  Uiso   1.00
H813   H     0.82331   0.79172   0.70821   0.00000  Uiso   1.00
H814   H     0.86334   0.72431   0.90410   0.00000  Uiso   1.00
N815   N     0.81160   0.81890   0.73542   0.00000  Uiso   1.00
N816   N     0.85507   0.84777   0.76457   0.00000  Uiso   1.00
O817   O     0.96435   0.91296   0.75357   0.00000  Uiso   1.00
O818   O     0.93698   0.99428   0.79037   0.00000  Uiso   1.00
O819   O     0.72408   0.90371   0.74423   0.00000  Uiso   1.00
O820   O     0.98157   0.84024   0.83380   0.00000  Uiso   1.00
O821   O     0.74130   0.83099   0.82446   0.00000  Uiso   1.00
O822   O     0.94258   0.76296   0.75576   0.00000  Uiso   1.00
O823   O     0.70231   0.75371   0.74642   0.00000  Uiso   1.00
O824   O     0.92537   0.83567   0.67554   0.00000  Uiso   1.00
O825   O     0.68510   0.82642   0.66620   0.00000  Uiso   1.00
O826   O     0.68245   0.75155   0.57453   0.00000  Uiso   1.00
Zn827  Zn    0.93786   0.83951   0.75623   0.00000  Uiso   1.00
Zn828  Zn    0.72881   0.82716   0.74376   0.00000  Uiso   1.00
loop_
_geom_bond_atom_site_label_1
_geom_bond_atom_site_label_2
_geom_bond_distance
_geom_bond_site_symmetry_2
_ccdc_geom_bond_type
C1     O37     1.293   .     A
C1     C3      1.407   .     S
C1     O127    1.272   1_455 S
C2     C4      1.453   .     S
C2     C14     1.405   .     A
C2     C10     1.403   .     A
C3     C235    1.348   1_455 S
C3     H166    1.088   .     S
C4     O39     1.297   .     A
C4     O130    1.288   1_455 S
C5     C6      1.417   .     S
C5     C325    1.348   1_545 S
C5     O312    1.390   1_545 S
C6     O40     1.288   .     A
C6     O87     1.277   .     S
C7     O42     1.298   .     A
C7     C9      1.454   .     S
C7     O89     1.288   .     S
C8     C20     1.395   .     A
C8     C430    1.400   1_554 S
C8     H439    1.084   1_554 S
C9     C20     1.421   .     A
C9     C19     1.386   .     A
C10    C425    1.387   .     S
C10    H115    1.083   1_455 S
C11    C13     1.391   .     A
C11    H26     1.083   .     S
C11    C424    1.387   1_554 S
C12    C14     1.405   .     A
C12    C427    1.419   .     S
C12    C429    1.410   .     S
C13    H24     1.079   .     S
C13    C426    1.419   1_554 S
C14    C18     1.414   .     A
C15    C19     1.386   .     A
C15    C426    1.410   1_554 S
C15    C430    1.417   1_554 S
C16    C17     1.392   .     A
C16    C422    1.400   .     S
C16    C429    1.417   .     S
C17    C18     1.387   .     A
C17    H32     1.084   .     S
C18    H27     1.082   .     S
C19    H22     1.080   .     S
C20    O90     1.379   .     S
H21    N34     1.029   .     S
H23    C56     1.083   .     S
H25    C422    1.084   .     S
H28    C279    1.088   1_545 S
H29    O44     0.988   .     S
H30    O312    0.991   1_545 S
H31    N33     1.029   .     S
N33    N34     1.288   .     D
N33    Zn46    2.016   .     S
N34    Zn45    2.016   .     S
O35    Zn45    1.957   .     S
O35    C47     1.272   .     S
O36    C143    1.390   .     S
O36    H168    0.991   .     S
O37    Zn46    1.984   .     S
O38    Zn45    1.956   .     S
O38    C50     1.288   .     S
O39    Zn46    1.915   .     S
O40    Zn45    1.984   .     S
O41    Zn46    1.957   .     S
O41    C98     1.277   1_455 S
O42    Zn45    1.915   .     S
O43    Zn46    1.956   .     S
O43    C99     1.288   1_455 S
O44    C112    1.379   1_455 S
C47    O83     1.293   .     A
C47    C49     1.407   .     S
C48    C50     1.453   .     S
C48    C60     1.405   .     A
C48    C56     1.403   .     A
C49    C143    1.348   .     S
C49    H212    1.088   .     S
C50    O85     1.297   .     A
C51    C52     1.417   .     S
C51    C371    1.348   1_545 S
C51    O358    1.390   1_545 S
C52    O86     1.288   .     A
C52    O133    1.277   .     S
C53    O88     1.298   .     A
C53    C55     1.454   .     S
C53    O135    1.288   .     S
C54    C66     1.395   .     A
C54    C476    1.400   1_554 S
C54    H485    1.084   1_554 S
C55    C66     1.421   .     A
C55    C65     1.386   .     A
C56    C471    1.387   .     S
C57    C59     1.391   .     A
C57    H72     1.083   .     S
C57    C470    1.387   1_554 S
C58    C60     1.405   .     A
C58    C473    1.419   .     S
C58    C475    1.410   .     S
C59    H70     1.079   .     S
C59    C472    1.419   1_554 S
C60    C64     1.414   .     A
C61    C65     1.386   .     A
C61    C472    1.410   1_554 S
C61    C476    1.417   1_554 S
C62    C63     1.392   .     A
C62    C468    1.400   .     S
C62    C475    1.417   .     S
C63    C64     1.387   .     A
C63    H78     1.084   .     S
C64    H73     1.082   .     S
C65    H68     1.080   .     S
C66    O136    1.379   .     S
H67    N80     1.029   .     S
H69    C102    1.083   .     S
H71    C468    1.084   .     S
H74    C325    1.088   1_545 S
H75    O90     0.988   .     S
H76    O358    0.991   1_545 S
H77    N79     1.029   .     S
N79    N80     1.288   .     D
N79    Zn92    2.016   .     S
N80    Zn91    2.016   .     S
O81    Zn91    1.957   .     S
O81    C93     1.272   .     S
O82    C189    1.390   .     S
O82    H214    0.991   .     S
O83    Zn92    1.984   .     S
O84    Zn91    1.956   .     S
O84    C96     1.288   .     S
O85    Zn92    1.915   .     S
O86    Zn91    1.984   .     S
O87    Zn92    1.957   .     S
O88    Zn91    1.915   .     S
O89    Zn92    1.956   .     S
C93    O129    1.293   .     A
C93    C95     1.407   .     S
C94    C96     1.453   .     S
C94    C106    1.405   .     A
C94    C102    1.403   .     A
C95    C189    1.348   .     S
C95    H258    1.088   .     S
C96    O131    1.297   .     A
C97    C98     1.417   .     S
C97    C279    1.348   1_645 S
C97    O404    1.390   1_545 S
C98    O132    1.288   .     A
C98    O41     1.277   1_655 S
C99    O134    1.298   .     A
C99    C101    1.454   .     S
C99    O43     1.288   1_655 S
C100   C112    1.395   .     A
C100   C522    1.400   1_554 S
C100   H531    1.084   1_554 S
C101   C112    1.421   .     A
C101   C111    1.386   .     A
C102   C517    1.387   .     S
C103   C105    1.391   .     A
C103   H118    1.083   .     S
C103   C516    1.387   1_554 S
C104   C106    1.405   .     A
C104   C519    1.419   .     S
C104   C521    1.410   .     S
C105   H116    1.079   .     S
C105   C518    1.419   1_554 S
C106   C110    1.414   .     A
C107   C111    1.386   .     A
C107   C518    1.410   1_554 S
C107   C522    1.417   1_554 S
C108   C109    1.392   .     A
C108   C514    1.400   .     S
C108   C521    1.417   .     S
C109   C110    1.387   .     A
C109   H124    1.084   .     S
C110   H119    1.082   .     S
C111   H114    1.080   .     S
C112   O44     1.379   1_655 S
H113   N126    1.029   .     S
H115   C10     1.083   1_655 S
H117   C514    1.084   .     S
H120   C371    1.088   1_545 S
H121   O136    0.988   .     S
H122   O404    0.991   1_545 S
H123   N125    1.029   .     S
N125   N126    1.288   .     D
N125   Zn138   2.016   .     S
N126   Zn137   2.016   .     S
O127   Zn137   1.957   .     S
O127   C1      1.272   1_655 S
O128   C235    1.390   .     S
O128   H260    0.991   .     S
O129   Zn138   1.984   .     S
O130   Zn137   1.956   .     S
O130   C4      1.288   1_655 S
O131   Zn138   1.915   .     S
O132   Zn137   1.984   .     S
O133   Zn138   1.957   .     S
O134   Zn137   1.915   .     S
O135   Zn138   1.956   .     S
C139   O175    1.293   .     A
C139   C141    1.407   .     S
C139   O265    1.272   1_455 S
C140   C142    1.453   .     S
C140   C152    1.405   .     A
C140   C148    1.403   .     A
C141   C373    1.348   1_455 S
C141   H304    1.088   .     S
C142   O177    1.297   .     A
C142   O268    1.288   1_455 S
C143   C144    1.417   .     S
C144   O178    1.288   .     A
C144   O225    1.277   .     S
C145   O180    1.298   .     A
C145   C147    1.454   .     S
C145   O227    1.288   .     S
C146   C158    1.395   .     A
C146   C568    1.400   1_554 S
C146   H577    1.084   1_554 S
C147   C158    1.421   .     A
C147   C157    1.386   .     A
C148   C563    1.387   .     S
C148   H253    1.083   1_455 S
C149   C151    1.391   .     A
C149   H164    1.083   .     S
C149   C562    1.387   1_554 S
C150   C152    1.405   .     A
C150   C565    1.419   .     S
C150   C567    1.410   .     S
C151   H162    1.079   .     S
C151   C564    1.419   1_554 S
C152   C156    1.414   .     A
C153   C157    1.386   .     A
C153   C564    1.410   1_554 S
C153   C568    1.417   1_554 S
C154   C155    1.392   .     A
C154   C560    1.400   .     S
C154   C567    1.417   .     S
C155   C156    1.387   .     A
C155   H170    1.084   .     S
C156   H165    1.082   .     S
C157   H160    1.080   .     S
C158   O228    1.379   .     S
H159   N172    1.029   .     S
H161   C194    1.083   .     S
H163   C560    1.084   .     S
H167   O182    0.988   .     S
H169   N171    1.029   .     S
N171   N172    1.288   .     D
N171   Zn184   2.016   .     S
N172   Zn183   2.016   .     S
O173   Zn183   1.957   .     S
O173   C185    1.272   .     S
O174   C281    1.390   .     S
O174   H306    0.991   .     S
O175   Zn184   1.984   .     S
O176   Zn183   1.956   .     S
O176   C188    1.288   .     S
O177   Zn184   1.915   .     S
O178   Zn183   1.984   .     S
O179   Zn184   1.957   .     S
O179   C236    1.277   1_455 S
O180   Zn183   1.915   .     S
O181   Zn184   1.956   .     S
O181   C237    1.288   1_455 S
O182   C250    1.379   1_455 S
C185   O221    1.293   .     A
C185   C187    1.407   .     S
C186   C188    1.453   .     S
C186   C198    1.405   .     A
C186   C194    1.403   .     A
C187   C281    1.348   .     S
C187   H350    1.088   .     S
C188   O223    1.297   .     A
C189   C190    1.417   .     S
C190   O224    1.288   .     A
C190   O271    1.277   .     S
C191   O226    1.298   .     A
C191   C193    1.454   .     S
C191   O273    1.288   .     S
C192   C204    1.395   .     A
C192   C614    1.400   1_554 S
C192   H623    1.084   1_554 S
C193   C204    1.421   .     A
C193   C203    1.386   .     A
C194   C609    1.387   .     S
C195   C197    1.391   .     A
C195   H210    1.083   .     S
C195   C608    1.387   1_554 S
C196   C198    1.405   .     A
C196   C611    1.419   .     S
C196   C613    1.410   .     S
C197   H208    1.079   .     S
C197   C610    1.419   1_554 S
C198   C202    1.414   .     A
C199   C203    1.386   .     A
C199   C610    1.410   1_554 S
C199   C614    1.417   1_554 S
C200   C201    1.392   .     A
C200   C606    1.400   .     S
C200   C613    1.417   .     S
C201   C202    1.387   .     A
C201   H216    1.084   .     S
C202   H211    1.082   .     S
C203   H206    1.080   .     S
C204   O274    1.379   .     S
H205   N218    1.029   .     S
H207   C240    1.083   .     S
H209   C606    1.084   .     S
H213   O228    0.988   .     S
H215   N217    1.029   .     S
N217   N218    1.288   .     D
N217   Zn230   2.016   .     S
N218   Zn229   2.016   .     S
O219   Zn229   1.957   .     S
O219   C231    1.272   .     S
O220   C327    1.390   .     S
O220   H352    0.991   .     S
O221   Zn230   1.984   .     S
O222   Zn229   1.956   .     S
O222   C234    1.288   .     S
O223   Zn230   1.915   .     S
O224   Zn229   1.984   .     S
O225   Zn230   1.957   .     S
O226   Zn229   1.915   .     S
O227   Zn230   1.956   .     S
C231   O267    1.293   .     A
C231   C233    1.407   .     S
C232   C234    1.453   .     S
C232   C244    1.405   .     A
C232   C240    1.403   .     A
C233   C327    1.348   .     S
C233   H396    1.088   .     S
C234   O269    1.297   .     A
C235   C236    1.417   .     S
C235   C3      1.348   1_655 S
C236   O270    1.288   .     A
C236   O179    1.277   1_655 S
C237   O272    1.298   .     A
C237   C239    1.454   .     S
C237   O181    1.288   1_655 S
C238   C250    1.395   .     A
C238   C660    1.400   1_554 S
C238   H669    1.084   1_554 S
C239   C250    1.421   .     A
C239   C249    1.386   .     A
C240   C655    1.387   .     S
C241   C243    1.391   .     A
C241   H256    1.083   .     S
C241   C654    1.387   1_554 S
C242   C244    1.405   .     A
C242   C657    1.419   .     S
C242   C659    1.410   .     S
C243   H254    1.079   .     S
C243   C656    1.419   1_554 S
C244   C248    1.414   .     A
C245   C249    1.386   .     A
C245   C656    1.410   1_554 S
C245   C660    1.417   1_554 S
C246   C247    1.392   .     A
C246   C652    1.400   .     S
C246   C659    1.417   .     S
C247   C248    1.387   .     A
C247   H262    1.084   .     S
C248   H257    1.082   .     S
C249   H252    1.080   .     S
C250   O182    1.379   1_655 S
H251   N264    1.029   .     S
H253   C148    1.083   1_655 S
H255   C652    1.084   .     S
H259   O274    0.988   .     S
H261   N263    1.029   .     S
N263   N264    1.288   .     D
N263   Zn276   2.016   .     S
N264   Zn275   2.016   .     S
O265   Zn275   1.957   .     S
O265   C139    1.272   1_655 S
O266   C373    1.390   .     S
O266   H398    0.991   .     S
O267   Zn276   1.984   .     S
O268   Zn275   1.956   .     S
O268   C142    1.288   1_655 S
O269   Zn276   1.915   .     S
O270   Zn275   1.984   .     S
O271   Zn276   1.957   .     S
O272   Zn275   1.915   .     S
O273   Zn276   1.956   .     S
C277   O313    1.293   .     A
C277   C279    1.407   .     S
C277   O403    1.272   1_455 S
C278   C280    1.453   .     S
C278   C290    1.405   .     A
C278   C286    1.403   .     A
C279   C97     1.348   1_465 S
C279   H28     1.088   1_565 S
C280   O315    1.297   .     A
C280   O406    1.288   1_455 S
C281   C282    1.417   .     S
C282   O316    1.288   .     A
C282   O363    1.277   .     S
C283   O318    1.298   .     A
C283   C285    1.454   .     S
C283   O365    1.288   .     S
C284   C296    1.395   .     A
C284   C706    1.400   1_554 S
C284   H715    1.084   1_554 S
C285   C296    1.421   .     A
C285   C295    1.386   .     A
C286   C701    1.387   .     S
C286   H391    1.083   1_455 S
C287   C289    1.391   .     A
C287   H302    1.083   .     S
C287   C700    1.387   1_554 S
C288   C290    1.405   .     A
C288   C703    1.419   .     S
C288   C705    1.410   .     S
C289   H300    1.079   .     S
C289   C702    1.419   1_554 S
C290   C294    1.414   .     A
C291   C295    1.386   .     A
C291   C702    1.410   1_554 S
C291   C706    1.417   1_554 S
C292   C293    1.392   .     A
C292   C698    1.400   .     S
C292   C705    1.417   .     S
C293   C294    1.387   .     A
C293   H308    1.084   .     S
C294   H303    1.082   .     S
C295   H298    1.080   .     S
C296   O366    1.379   .     S
H297   N310    1.029   .     S
H299   C332    1.083   .     S
H301   C698    1.084   .     S
H305   O320    0.988   .     S
H307   N309    1.029   .     S
N309   N310    1.288   .     D
N309   Zn322   2.016   .     S
N310   Zn321   2.016   .     S
O311   Zn321   1.957   .     S
O311   C323    1.272   .     S
O312   C5      1.390   1_565 S
O312   H30     0.991   1_565 S
O313   Zn322   1.984   .     S
O314   Zn321   1.956   .     S
O314   C326    1.288   .     S
O315   Zn322   1.915   .     S
O316   Zn321   1.984   .     S
O317   Zn322   1.957   .     S
O317   C374    1.277   1_455 S
O318   Zn321   1.915   .     S
O319   Zn322   1.956   .     S
O319   C375    1.288   1_455 S
O320   C388    1.379   1_455 S
C323   O359    1.293   .     A
C323   C325    1.407   .     S
C324   C326    1.453   .     S
C324   C336    1.405   .     A
C324   C332    1.403   .     A
C325   C5      1.348   1_565 S
C325   H74     1.088   1_565 S
C326   O361    1.297   .     A
C327   C328    1.417   .     S
C328   O362    1.288   .     A
C328   O409    1.277   .     S
C329   O364    1.298   .     A
C329   C331    1.454   .     S
C329   O411    1.288   .     S
C330   C342    1.395   .     A
C330   C752    1.400   1_554 S
C330   H761    1.084   1_554 S
C331   C342    1.421   .     A
C331   C341    1.386   .     A
C332   C747    1.387   .     S
C333   C335    1.391   .     A
C333   H348    1.083   .     S
C333   C746    1.387   1_554 S
C334   C336    1.405   .     A
C334   C749    1.419   .     S
C334   C751    1.410   .     S
C335   H346    1.079   .     S
C335   C748    1.419   1_554 S
C336   C340    1.414   .     A
C337   C341    1.386   .     A
C337   C748    1.410   1_554 S
C337   C752    1.417   1_554 S
C338   C339    1.392   .     A
C338   C744    1.400   .     S
C338   C751    1.417   .     S
C339   C340    1.387   .     A
C339   H354    1.084   .     S
C340   H349    1.082   .     S
C341   H344    1.080   .     S
C342   O412    1.379   .     S
H343   N356    1.029   .     S
H345   C378    1.083   .     S
H347   C744    1.084   .     S
H351   O366    0.988   .     S
H353   N355    1.029   .     S
N355   N356    1.288   .     D
N355   Zn368   2.016   .     S
N356   Zn367   2.016   .     S
O357   Zn367   1.957   .     S
O357   C369    1.272   .     S
O358   C51     1.390   1_565 S
O358   H76     0.991   1_565 S
O359   Zn368   1.984   .     S
O360   Zn367   1.956   .     S
O360   C372    1.288   .     S
O361   Zn368   1.915   .     S
O362   Zn367   1.984   .     S
O363   Zn368   1.957   .     S
O364   Zn367   1.915   .     S
O365   Zn368   1.956   .     S
C369   O405    1.293   .     A
C369   C371    1.407   .     S
C370   C372    1.453   .     S
C370   C382    1.405   .     A
C370   C378    1.403   .     A
C371   C51     1.348   1_565 S
C371   H120    1.088   1_565 S
C372   O407    1.297   .     A
C373   C374    1.417   .     S
C373   C141    1.348   1_655 S
C374   O408    1.288   .     A
C374   O317    1.277   1_655 S
C375   O410    1.298   .     A
C375   C377    1.454   .     S
C375   O319    1.288   1_655 S
C376   C388    1.395   .     A
C376   C798    1.400   1_554 S
C376   H807    1.084   1_554 S
C377   C388    1.421   .     A
C377   C387    1.386   .     A
C378   C793    1.387   .     S
C379   C381    1.391   .     A
C379   H394    1.083   .     S
C379   C792    1.387   1_554 S
C380   C382    1.405   .     A
C380   C795    1.419   .     S
C380   C797    1.410   .     S
C381   H392    1.079   .     S
C381   C794    1.419   1_554 S
C382   C386    1.414   .     A
C383   C387    1.386   .     A
C383   C794    1.410   1_554 S
C383   C798    1.417   1_554 S
C384   C385    1.392   .     A
C384   C790    1.400   .     S
C384   C797    1.417   .     S
C385   C386    1.387   .     A
C385   H400    1.084   .     S
C386   H395    1.082   .     S
C387   H390    1.080   .     S
C388   O320    1.379   1_655 S
H389   N402    1.029   .     S
H391   C286    1.083   1_655 S
H393   C790    1.084   .     S
H397   O412    0.988   .     S
H399   N401    1.029   .     S
N401   N402    1.288   .     D
N401   Zn414   2.016   .     S
N402   Zn413   2.016   .     S
O403   Zn413   1.957   .     S
O403   C277    1.272   1_655 S
O404   C97     1.390   1_565 S
O404   H122    0.991   1_565 S
O405   Zn414   1.984   .     S
O406   Zn413   1.956   .     S
O406   C280    1.288   1_655 S
O407   Zn414   1.915   .     S
O408   Zn413   1.984   .     S
O409   Zn414   1.957   .     S
O410   Zn413   1.915   .     S
O411   Zn414   1.956   .     S
C415   O451    1.293   .     A
C415   C417    1.407   .     S
C415   O541    1.272   1_455 S
C416   C418    1.453   .     S
C416   C428    1.405   .     A
C416   C424    1.403   .     A
C417   C649    1.348   1_455 S
C417   H580    1.088   .     S
C418   O453    1.297   .     A
C418   O544    1.288   1_455 S
C419   C420    1.417   .     S
C419   C739    1.348   1_545 S
C419   O726    1.390   1_545 S
C420   O454    1.288   .     A
C420   O501    1.277   .     S
C421   O456    1.298   .     A
C421   C423    1.454   .     S
C421   O503    1.288   .     S
C422   C434    1.395   .     A
C423   C434    1.421   .     A
C423   C433    1.386   .     A
C424   C11     1.387   1_556 S
C424   H529    1.083   1_455 S
C425   C427    1.391   .     A
C425   H440    1.083   .     S
C426   C428    1.405   .     A
C426   C13     1.419   1_556 S
C426   C15     1.410   1_556 S
C427   H438    1.079   .     S
C428   C432    1.414   .     A
C429   C433    1.386   .     A
C430   C431    1.392   .     A
C430   C8      1.400   1_556 S
C430   C15     1.417   1_556 S
C431   C432    1.387   .     A
C431   H446    1.084   .     S
C432   H441    1.082   .     S
C433   H436    1.080   .     S
C434   O504    1.379   .     S
H435   N448    1.029   .     S
H437   C470    1.083   .     S
H439   C8      1.084   1_556 S
H442   C693    1.088   1_545 S
H443   O458    0.988   .     S
H444   O726    0.991   1_545 S
H445   N447    1.029   .     S
N447   N448    1.288   .     D
N447   Zn460   2.016   .     S
N448   Zn459   2.016   .     S
O449   Zn459   1.957   .     S
O449   C461    1.272   .     S
O450   C557    1.390   .     S
O450   H582    0.991   .     S
O451   Zn460   1.984   .     S
O452   Zn459   1.956   .     S
O452   C464    1.288   .     S
O453   Zn460   1.915   .     S
O454   Zn459   1.984   .     S
O455   Zn460   1.957   .     S
O455   C512    1.277   1_455 S
O456   Zn459   1.915   .     S
O457   Zn460   1.956   .     S
O457   C513    1.288   1_455 S
O458   C526    1.379   1_455 S
C461   O497    1.293   .     A
C461   C463    1.407   .     S
C462   C464    1.453   .     S
C462   C474    1.405   .     A
C462   C470    1.403   .     A
C463   C557    1.348   .     S
C463   H626    1.088   .     S
C464   O499    1.297   .     A
C465   C466    1.417   .     S
C465   C785    1.348   1_545 S
C465   O772    1.390   1_545 S
C466   O500    1.288   .     A
C466   O547    1.277   .     S
C467   O502    1.298   .     A
C467   C469    1.454   .     S
C467   O549    1.288   .     S
C468   C480    1.395   .     A
C469   C480    1.421   .     A
C469   C479    1.386   .     A
C470   C57     1.387   1_556 S
C471   C473    1.391   .     A
C471   H486    1.083   .     S
C472   C474    1.405   .     A
C472   C59     1.419   1_556 S
C472   C61     1.410   1_556 S
C473   H484    1.079   .     S
C474   C478    1.414   .     A
C475   C479    1.386   .     A
C476   C477    1.392   .     A
C476   C54     1.400   1_556 S
C476   C61     1.417   1_556 S
C477   C478    1.387   .     A
C477   H492    1.084   .     S
C478   H487    1.082   .     S
C479   H482    1.080   .     S
C480   O550    1.379   .     S
H481   N494    1.029   .     S
H483   C516    1.083   .     S
H485   C54     1.084   1_556 S
H488   C739    1.088   1_545 S
H489   O504    0.988   .     S
H490   O772    0.991   1_545 S
H491   N493    1.029   .     S
N493   N494    1.288   .     D
N493   Zn506   2.016   .     S
N494   Zn505   2.016   .     S
O495   Zn505   1.957   .     S
O495   C507    1.272   .     S
O496   C603    1.390   .     S
O496   H628    0.991   .     S
O497   Zn506   1.984   .     S
O498   Zn505   1.956   .     S
O498   C510    1.288   .     S
O499   Zn506   1.915   .     S
O500   Zn505   1.984   .     S
O501   Zn506   1.957   .     S
O502   Zn505   1.915   .     S
O503   Zn506   1.956   .     S
C507   O543    1.293   .     A
C507   C509    1.407   .     S
C508   C510    1.453   .     S
C508   C520    1.405   .     A
C508   C516    1.403   .     A
C509   C603    1.348   .     S
C509   H672    1.088   .     S
C510   O545    1.297   .     A
C511   C512    1.417   .     S
C511   C693    1.348   1_645 S
C511   O818    1.390   1_545 S
C512   O546    1.288   .     A
C512   O455    1.277   1_655 S
C513   O548    1.298   .     A
C513   C515    1.454   .     S
C513   O457    1.288   1_655 S
C514   C526    1.395   .     A
C515   C526    1.421   .     A
C515   C525    1.386   .     A
C516   C103    1.387   1_556 S
C517   C519    1.391   .     A
C517   H532    1.083   .     S
C518   C520    1.405   .     A
C518   C105    1.419   1_556 S
C518   C107    1.410   1_556 S
C519   H530    1.079   .     S
C520   C524    1.414   .     A
C521   C525    1.386   .     A
C522   C523    1.392   .     A
C522   C100    1.400   1_556 S
C522   C107    1.417   1_556 S
C523   C524    1.387   .     A
C523   H538    1.084   .     S
C524   H533    1.082   .     S
C525   H528    1.080   .     S
C526   O458    1.379   1_655 S
H527   N540    1.029   .     S
H529   C424    1.083   1_655 S
H531   C100    1.084   1_556 S
H534   C785    1.088   1_545 S
H535   O550    0.988   .     S
H536   O818    0.991   1_545 S
H537   N539    1.029   .     S
N539   N540    1.288   .     D
N539   Zn552   2.016   .     S
N540   Zn551   2.016   .     S
O541   Zn551   1.957   .     S
O541   C415    1.272   1_655 S
O542   C649    1.390   .     S
O542   H674    0.991   .     S
O543   Zn552   1.984   .     S
O544   Zn551   1.956   .     S
O544   C418    1.288   1_655 S
O545   Zn552   1.915   .     S
O546   Zn551   1.984   .     S
O547   Zn552   1.957   .     S
O548   Zn551   1.915   .     S
O549   Zn552   1.956   .     S
C553   O589    1.293   .     A
C553   C555    1.407   .     S
C553   O679    1.272   1_455 S
C554   C556    1.453   .     S
C554   C566    1.405   .     A
C554   C562    1.403   .     A
C555   C787    1.348   1_455 S
C555   H718    1.088   .     S
C556   O591    1.297   .     A
C556   O682    1.288   1_455 S
C557   C558    1.417   .     S
C558   O592    1.288   .     A
C558   O639    1.277   .     S
C559   O594    1.298   .     A
C559   C561    1.454   .     S
C559   O641    1.288   .     S
C560   C572    1.395   .     A
C561   C572    1.421   .     A
C561   C571    1.386   .     A
C562   C149    1.387   1_556 S
C562   H667    1.083   1_455 S
C563   C565    1.391   .     A
C563   H578    1.083   .     S
C564   C566    1.405   .     A
C564   C151    1.419   1_556 S
C564   C153    1.410   1_556 S
C565   H576    1.079   .     S
C566   C570    1.414   .     A
C567   C571    1.386   .     A
C568   C569    1.392   .     A
C568   C146    1.400   1_556 S
C568   C153    1.417   1_556 S
C569   C570    1.387   .     A
C569   H584    1.084   .     S
C570   H579    1.082   .     S
C571   H574    1.080   .     S
C572   O642    1.379   .     S
H573   N586    1.029   .     S
H575   C608    1.083   .     S
H577   C146    1.084   1_556 S
H581   O596    0.988   .     S
H583   N585    1.029   .     S
N585   N586    1.288   .     D
N585   Zn598   2.016   .     S
N586   Zn597   2.016   .     S
O587   Zn597   1.957   .     S
O587   C599    1.272   .     S
O588   C695    1.390   .     S
O588   H720    0.991   .     S
O589   Zn598   1.984   .     S
O590   Zn597   1.956   .     S
O590   C602    1.288   .     S
O591   Zn598   1.915   .     S
O592   Zn597   1.984   .     S
O593   Zn598   1.957   .     S
O593   C650    1.277   1_455 S
O594   Zn597   1.915   .     S
O595   Zn598   1.956   .     S
O595   C651    1.288   1_455 S
O596   C664    1.379   1_455 S
C599   O635    1.293   .     A
C599   C601    1.407   .     S
C600   C602    1.453   .     S
C600   C612    1.405   .     A
C600   C608    1.403   .     A
C601   C695    1.348   .     S
C601   H764    1.088   .     S
C602   O637    1.297   .     A
C603   C604    1.417   .     S
C604   O638    1.288   .     A
C604   O685    1.277   .     S
C605   O640    1.298   .     A
C605   C607    1.454   .     S
C605   O687    1.288   .     S
C606   C618    1.395   .     A
C607   C618    1.421   .     A
C607   C617    1.386   .     A
C608   C195    1.387   1_556 S
C609   C611    1.391   .     A
C609   H624    1.083   .     S
C610   C612    1.405   .     A
C610   C197    1.419   1_556 S
C610   C199    1.410   1_556 S
C611   H622    1.079   .     S
C612   C616    1.414   .     A
C613   C617    1.386   .     A
C614   C615    1.392   .     A
C614   C192    1.400   1_556 S
C614   C199    1.417   1_556 S
C615   C616    1.387   .     A
C615   H630    1.084   .     S
C616   H625    1.082   .     S
C617   H620    1.080   .     S
C618   O688    1.379   .     S
H619   N632    1.029   .     S
H621   C654    1.083   .     S
H623   C192    1.084   1_556 S
H627   O642    0.988   .     S
H629   N631    1.029   .     S
N631   N632    1.288   .     D
N631   Zn644   2.016   .     S
N632   Zn643   2.016   .     S
O633   Zn643   1.957   .     S
O633   C645    1.272   .     S
O634   C741    1.390   .     S
O634   H766    0.991   .     S
O635   Zn644   1.984   .     S
O636   Zn643   1.956   .     S
O636   C648    1.288   .     S
O637   Zn644   1.915   .     S
O638   Zn643   1.984   .     S
O639   Zn644   1.957   .     S
O640   Zn643   1.915   .     S
O641   Zn644   1.956   .     S
C645   O681    1.293   .     A
C645   C647    1.407   .     S
C646   C648    1.453   .     S
C646   C658    1.405   .     A
C646   C654    1.403   .     A
C647   C741    1.348   .     S
C647   H810    1.088   .     S
C648   O683    1.297   .     A
C649   C650    1.417   .     S
C649   C417    1.348   1_655 S
C650   O684    1.288   .     A
C650   O593    1.277   1_655 S
C651   O686    1.298   .     A
C651   C653    1.454   .     S
C651   O595    1.288   1_655 S
C652   C664    1.395   .     A
C653   C664    1.421   .     A
C653   C663    1.386   .     A
C654   C241    1.387   1_556 S
C655   C657    1.391   .     A
C655   H670    1.083   .     S
C656   C658    1.405   .     A
C656   C243    1.419   1_556 S
C656   C245    1.410   1_556 S
C657   H668    1.079   .     S
C658   C662    1.414   .     A
C659   C663    1.386   .     A
C660   C661    1.392   .     A
C660   C238    1.400   1_556 S
C660   C245    1.417   1_556 S
C661   C662    1.387   .     A
C661   H676    1.084   .     S
C662   H671    1.082   .     S
C663   H666    1.080   .     S
C664   O596    1.379   1_655 S
H665   N678    1.029   .     S
H667   C562    1.083   1_655 S
H669   C238    1.084   1_556 S
H673   O688    0.988   .     S
H675   N677    1.029   .     S
N677   N678    1.288   .     D
N677   Zn690   2.016   .     S
N678   Zn689   2.016   .     S
O679   Zn689   1.957   .     S
O679   C553    1.272   1_655 S
O680   C787    1.390   .     S
O680   H812    0.991   .     S
O681   Zn690   1.984   .     S
O682   Zn689   1.956   .     S
O682   C556    1.288   1_655 S
O683   Zn690   1.915   .     S
O684   Zn689   1.984   .     S
O685   Zn690   1.957   .     S
O686   Zn689   1.915   .     S
O687   Zn690   1.956   .     S
C691   O727    1.293   .     A
C691   C693    1.407   .     S
C691   O817    1.272   1_455 S
C692   C694    1.453   .     S
C692   C704    1.405   .     A
C692   C700    1.403   .     A
C693   C511    1.348   1_465 S
C693   H442    1.088   1_565 S
C694   O729    1.297   .     A
C694   O820    1.288   1_455 S
C695   C696    1.417   .     S
C696   O730    1.288   .     A
C696   O777    1.277   .     S
C697   O732    1.298   .     A
C697   C699    1.454   .     S
C697   O779    1.288   .     S
C698   C710    1.395   .     A
C699   C710    1.421   .     A
C699   C709    1.386   .     A
C700   C287    1.387   1_556 S
C700   H805    1.083   1_455 S
C701   C703    1.391   .     A
C701   H716    1.083   .     S
C702   C704    1.405   .     A
C702   C289    1.419   1_556 S
C702   C291    1.410   1_556 S
C703   H714    1.079   .     S
C704   C708    1.414   .     A
C705   C709    1.386   .     A
C706   C707    1.392   .     A
C706   C284    1.400   1_556 S
C706   C291    1.417   1_556 S
C707   C708    1.387   .     A
C707   H722    1.084   .     S
C708   H717    1.082   .     S
C709   H712    1.080   .     S
C710   O780    1.379   .     S
H711   N724    1.029   .     S
H713   C746    1.083   .     S
H715   C284    1.084   1_556 S
H719   O734    0.988   .     S
H721   N723    1.029   .     S
N723   N724    1.288   .     D
N723   Zn736   2.016   .     S
N724   Zn735   2.016   .     S
O725   Zn735   1.957   .     S
O725   C737    1.272   .     S
O726   C419    1.390   1_565 S
O726   H444    0.991   1_565 S
O727   Zn736   1.984   .     S
O728   Zn735   1.956   .     S
O728   C740    1.288   .     S
O729   Zn736   1.915   .     S
O730   Zn735   1.984   .     S
O731   Zn736   1.957   .     S
O731   C788    1.277   1_455 S
O732   Zn735   1.915   .     S
O733   Zn736   1.956   .     S
O733   C789    1.288   1_455 S
O734   C802    1.379   1_455 S
C737   O773    1.293   .     A
C737   C739    1.407   .     S
C738   C740    1.453   .     S
C738   C750    1.405   .     A
C738   C746    1.403   .     A
C739   C419    1.348   1_565 S
C739   H488    1.088   1_565 S
C740   O775    1.297   .     A
C741   C742    1.417   .     S
C742   O776    1.288   .     A
C742   O823    1.277   .     S
C743   O778    1.298   .     A
C743   C745    1.454   .     S
C743   O825    1.288   .     S
C744   C756    1.395   .     A
C745   C756    1.421   .     A
C745   C755    1.386   .     A
C746   C333    1.387   1_556 S
C747   C749    1.391   .     A
C747   H762    1.083   .     S
C748   C750    1.405   .     A
C748   C335    1.419   1_556 S
C748   C337    1.410   1_556 S
C749   H760    1.079   .     S
C750   C754    1.414   .     A
C751   C755    1.386   .     A
C752   C753    1.392   .     A
C752   C330    1.400   1_556 S
C752   C337    1.417   1_556 S
C753   C754    1.387   .     A
C753   H768    1.084   .     S
C754   H763    1.082   .     S
C755   H758    1.080   .     S
C756   O826    1.379   .     S
H757   N770    1.029   .     S
H759   C792    1.083   .     S
H761   C330    1.084   1_556 S
H765   O780    0.988   .     S
H767   N769    1.029   .     S
N769   N770    1.288   .     D
N769   Zn782   2.016   .     S
N770   Zn781   2.016   .     S
O771   Zn781   1.957   .     S
O771   C783    1.272   .     S
O772   C465    1.390   1_565 S
O772   H490    0.991   1_565 S
O773   Zn782   1.984   .     S
O774   Zn781   1.956   .     S
O774   C786    1.288   .     S
O775   Zn782   1.915   .     S
O776   Zn781   1.984   .     S
O777   Zn782   1.957   .     S
O778   Zn781   1.915   .     S
O779   Zn782   1.956   .     S
C783   O819    1.293   .     A
C783   C785    1.407   .     S
C784   C786    1.453   .     S
C784   C796    1.405   .     A
C784   C792    1.403   .     A
C785   C465    1.348   1_565 S
C785   H534    1.088   1_565 S
C786   O821    1.297   .     A
C787   C788    1.417   .     S
C787   C555    1.348   1_655 S
C788   O822    1.288   .     A
C788   O731    1.277   1_655 S
C789   O824    1.298   .     A
C789   C791    1.454   .     S
C789   O733    1.288   1_655 S
C790   C802    1.395   .     A
C791   C802    1.421   .     A
C791   C801    1.386   .     A
C792   C379    1.387   1_556 S
C793   C795    1.391   .     A
C793   H808    1.083   .     S
C794   C796    1.405   .     A
C794   C381    1.419   1_556 S
C794   C383    1.410   1_556 S
C795   H806    1.079   .     S
C796   C800    1.414   .     A
C797   C801    1.386   .     A
C798   C799    1.392   .     A
C798   C376    1.400   1_556 S
C798   C383    1.417   1_556 S
C799   C800    1.387   .     A
C799   H814    1.084   .     S
C800   H809    1.082   .     S
C801   H804    1.080   .     S
C802   O734    1.379   1_655 S
H803   N816    1.029   .     S
H805   C700    1.083   1_655 S
H807   C376    1.084   1_556 S
H811   O826    0.988   .     S
H813   N815    1.029   .     S
N815   N816    1.288   .     D
N815   Zn828   2.016   .     S
N816   Zn827   2.016   .     S
O817   Zn827   1.957   .     S
O817   C691    1.272   1_655 S
O818   C511    1.390   1_565 S
O818   H536    0.991   1_565 S
O819   Zn828   1.984   .     S
O820   Zn827   1.956   .     S
O820   C694    1.288   1_655 S
O821   Zn828   1.915   .     S
O822   Zn827   1.984   .     S
O823   Zn828   1.957   .     S
O824   Zn827   1.915   .     S
O825   Zn828   1.956   .     S
