data_str_m2_o1_o17_pcu_sym.182
_audit_creation_date              2020-01-03
_audit_creation_method            'Materials Studio'
_symmetry_space_group_name_H-M    'P1'
_symmetry_Int_Tables_number       1
_symmetry_cell_setting            triclinic
loop_
_symmetry_equiv_pos_as_xyz
  x,y,z
_cell_length_a                    32.4348
_cell_length_b                    28.5785
_cell_length_c                    30.1549
_cell_angle_alpha                 89.2887
_cell_angle_beta                  90.2840
_cell_angle_gamma                 90.1020
loop_
_atom_site_label
_atom_site_type_symbol
_atom_site_fract_x
_atom_site_fract_y
_atom_site_fract_z
_atom_site_U_iso_or_equiv
_atom_site_adp_type
_atom_site_occupancy
C1     C     0.08737   0.16663   0.25011   0.00000  Uiso   1.00
C2     C     0.24596   0.16670   0.24988   0.00000  Uiso   1.00
C3     C     0.11129   0.22523   0.01946   0.00000  Uiso   1.00
C4     C     0.22203   0.10809   0.48054   0.00000  Uiso   1.00
C5     C     0.02121   0.12578   0.23933   0.00000  Uiso   1.00
C6     C     0.31212   0.20756   0.26067   0.00000  Uiso   1.00
C7     C     0.31189   0.12589   0.23898   0.00000  Uiso   1.00
C8     C     0.02144   0.20744   0.26101   0.00000  Uiso   1.00
C9     C     0.29057   0.16676   0.24973   0.00000  Uiso   1.00
C10    C     0.04276   0.16657   0.25027   0.00000  Uiso   1.00
C11    C     0.13355   0.02488   0.23417   0.00000  Uiso   1.00
C12    C     0.19979   0.30845   0.26583   0.00000  Uiso   1.00
C13    C     0.19985   0.02464   0.26559   0.00000  Uiso   1.00
C14    C     0.13349   0.30870   0.23441   0.00000  Uiso   1.00
C15    C     0.16544   0.16697   0.16445   0.00000  Uiso   1.00
C16    C     0.16789   0.16637   0.33555   0.00000  Uiso   1.00
C17    C     0.19605   0.13599   0.40795   0.00000  Uiso   1.00
C18    C     0.13728   0.19735   0.09205   0.00000  Uiso   1.00
C19    C     0.16902   0.16574   0.38387   0.00000  Uiso   1.00
C20    C     0.16431   0.16759   0.11613   0.00000  Uiso   1.00
C21    C     0.14198   0.19535   0.40586   0.00000  Uiso   1.00
C22    C     0.19134   0.13796   0.09414   0.00000  Uiso   1.00
C23    C     0.14066   0.19559   0.45189   0.00000  Uiso   1.00
C24    C     0.19265   0.13772   0.04811   0.00000  Uiso   1.00
C25    C     0.16728   0.16625   0.47665   0.00000  Uiso   1.00
C26    C     0.16604   0.16707   0.02335   0.00000  Uiso   1.00
C27    C     0.19525   0.13635   0.45482   0.00000  Uiso   1.00
C28    C     0.13807   0.19698   0.04518   0.00000  Uiso   1.00
C29    C     0.11281   0.22469   0.47343   0.00000  Uiso   1.00
C30    C     0.22050   0.10862   0.02657   0.00000  Uiso   1.00
Cu31   Cu    0.16667   0.21355   0.25000   0.00000  Uiso   1.00
Cu32   Cu    0.16667   0.11978   0.25000   0.00000  Uiso   1.00
H33    H     0.12130   0.21780   0.38686   0.00000  Uiso   1.00
H34    H     0.21201   0.11551   0.11314   0.00000  Uiso   1.00
H35    H     0.09200   0.24705   0.45460   0.00000  Uiso   1.00
H36    H     0.24130   0.08625   0.04540   0.00000  Uiso   1.00
H37    H     0.08888   0.24799   0.03449   0.00000  Uiso   1.00
H38    H     0.24444   0.08533   0.46551   0.00000  Uiso   1.00
H39    H     0.03723   0.09396   0.23071   0.00000  Uiso   1.00
H40    H     0.29610   0.23937   0.26929   0.00000  Uiso   1.00
H41    H     0.29567   0.09410   0.23032   0.00000  Uiso   1.00
H42    H     0.03766   0.23924   0.26967   0.00000  Uiso   1.00
H43    H     0.10700   0.04341   0.22118   0.00000  Uiso   1.00
H44    H     0.22633   0.28992   0.27882   0.00000  Uiso   1.00
H45    H     0.22656   0.04306   0.27777   0.00000  Uiso   1.00
H46    H     0.10677   0.29027   0.22223   0.00000  Uiso   1.00
N47    N     0.16667   0.28402   0.25000   0.00000  Uiso   1.00
N48    N     0.16667   0.04931   0.25000   0.00000  Uiso   1.00
O49    O     0.10655   0.20625   0.24999   0.00000  Uiso   1.00
O50    O     0.22679   0.12709   0.25000   0.00000  Uiso   1.00
O51    O     0.22679   0.20625   0.25000   0.00000  Uiso   1.00
O52    O     0.10655   0.12709   0.24999   0.00000  Uiso   1.00
O53    O     0.16666   0.20627   0.18513   0.00000  Uiso   1.00
O54    O     0.16668   0.12707   0.31487   0.00000  Uiso   1.00
O55    O     0.16668   0.20627   0.31487   0.00000  Uiso   1.00
O56    O     0.16666   0.12707   0.18513   0.00000  Uiso   1.00
C57    C     0.22665   0.10688   0.38448   0.00000  Uiso   1.00
C58    C     0.22173   0.05809   0.38279   0.00000  Uiso   1.00
C59    C     0.25256   0.03038   0.36436   0.00000  Uiso   1.00
C60    C     0.28815   0.05122   0.34708   0.00000  Uiso   1.00
C61    C     0.29301   0.09979   0.34833   0.00000  Uiso   1.00
C62    C     0.26231   0.12764   0.36680   0.00000  Uiso   1.00
H63    H     0.19448   0.04160   0.39656   0.00000  Uiso   1.00
H64    H     0.24883   0.32609   0.36339   0.00000  Uiso   1.00
H65    H     0.31196   0.02975   0.33274   0.00000  Uiso   1.00
H66    H     0.32076   0.11585   0.33539   0.00000  Uiso   1.00
H67    H     0.26666   0.16518   0.36817   0.00000  Uiso   1.00
C68    C     0.10673   0.22652   0.11552   0.00000  Uiso   1.00
C69    C     0.07106   0.20582   0.13323   0.00000  Uiso   1.00
C70    C     0.04039   0.23373   0.15169   0.00000  Uiso   1.00
C71    C     0.04529   0.28230   0.15289   0.00000  Uiso   1.00
C72    C     0.08090   0.30308   0.13558   0.00000  Uiso   1.00
C73    C     0.11169   0.27530   0.11716   0.00000  Uiso   1.00
H74    H     0.06666   0.16829   0.13190   0.00000  Uiso   1.00
H75    H     0.01263   0.21772   0.16466   0.00000  Uiso   1.00
H76    H     0.02152   0.30382   0.16722   0.00000  Uiso   1.00
H77    H     0.08467   0.00736   0.13651   0.00000  Uiso   1.00
H78    H     0.13895   0.29174   0.10336   0.00000  Uiso   1.00
C79    C     0.42070   0.16663   0.25011   0.00000  Uiso   1.00
C80    C     0.57929   0.16670   0.24988   0.00000  Uiso   1.00
C81    C     0.44462   0.22523   0.01946   0.00000  Uiso   1.00
C82    C     0.55536   0.10809   0.48054   0.00000  Uiso   1.00
C83    C     0.35454   0.12578   0.23933   0.00000  Uiso   1.00
C84    C     0.64546   0.20756   0.26067   0.00000  Uiso   1.00
C85    C     0.64523   0.12589   0.23898   0.00000  Uiso   1.00
C86    C     0.35477   0.20744   0.26101   0.00000  Uiso   1.00
C87    C     0.62391   0.16676   0.24973   0.00000  Uiso   1.00
C88    C     0.37609   0.16657   0.25027   0.00000  Uiso   1.00
C89    C     0.46688   0.02488   0.23417   0.00000  Uiso   1.00
C90    C     0.53312   0.30845   0.26583   0.00000  Uiso   1.00
C91    C     0.53318   0.02464   0.26559   0.00000  Uiso   1.00
C92    C     0.46682   0.30870   0.23441   0.00000  Uiso   1.00
C93    C     0.49877   0.16697   0.16445   0.00000  Uiso   1.00
C94    C     0.50122   0.16637   0.33555   0.00000  Uiso   1.00
C95    C     0.52938   0.13599   0.40795   0.00000  Uiso   1.00
C96    C     0.47062   0.19735   0.09205   0.00000  Uiso   1.00
C97    C     0.50235   0.16574   0.38387   0.00000  Uiso   1.00
C98    C     0.49764   0.16759   0.11613   0.00000  Uiso   1.00
C99    C     0.47531   0.19535   0.40586   0.00000  Uiso   1.00
C100   C     0.52467   0.13796   0.09414   0.00000  Uiso   1.00
C101   C     0.47400   0.19559   0.45189   0.00000  Uiso   1.00
C102   C     0.52598   0.13772   0.04811   0.00000  Uiso   1.00
C103   C     0.50061   0.16625   0.47665   0.00000  Uiso   1.00
C104   C     0.49937   0.16707   0.02335   0.00000  Uiso   1.00
C105   C     0.52859   0.13635   0.45482   0.00000  Uiso   1.00
C106   C     0.47140   0.19698   0.04518   0.00000  Uiso   1.00
C107   C     0.44614   0.22469   0.47343   0.00000  Uiso   1.00
C108   C     0.55383   0.10862   0.02657   0.00000  Uiso   1.00
Cu109  Cu    0.50000   0.21355   0.25000   0.00000  Uiso   1.00
Cu110  Cu    0.50000   0.11978   0.25000   0.00000  Uiso   1.00
H111   H     0.45463   0.21780   0.38686   0.00000  Uiso   1.00
H112   H     0.54534   0.11551   0.11314   0.00000  Uiso   1.00
H113   H     0.42534   0.24705   0.45460   0.00000  Uiso   1.00
H114   H     0.57464   0.08625   0.04540   0.00000  Uiso   1.00
H115   H     0.42221   0.24799   0.03449   0.00000  Uiso   1.00
H116   H     0.57778   0.08533   0.46551   0.00000  Uiso   1.00
H117   H     0.37057   0.09396   0.23071   0.00000  Uiso   1.00
H118   H     0.62943   0.23937   0.26929   0.00000  Uiso   1.00
H119   H     0.62900   0.09410   0.23032   0.00000  Uiso   1.00
H120   H     0.37100   0.23924   0.26967   0.00000  Uiso   1.00
H121   H     0.44034   0.04341   0.22118   0.00000  Uiso   1.00
H122   H     0.55966   0.28992   0.27882   0.00000  Uiso   1.00
H123   H     0.55990   0.04306   0.27777   0.00000  Uiso   1.00
H124   H     0.44010   0.29027   0.22223   0.00000  Uiso   1.00
N125   N     0.50000   0.28402   0.25000   0.00000  Uiso   1.00
N126   N     0.50000   0.04931   0.25000   0.00000  Uiso   1.00
O127   O     0.43988   0.20625   0.24999   0.00000  Uiso   1.00
O128   O     0.56012   0.12709   0.25000   0.00000  Uiso   1.00
O129   O     0.56012   0.20625   0.25000   0.00000  Uiso   1.00
O130   O     0.43988   0.12709   0.24999   0.00000  Uiso   1.00
O131   O     0.49999   0.20627   0.18513   0.00000  Uiso   1.00
O132   O     0.50001   0.12707   0.31487   0.00000  Uiso   1.00
O133   O     0.50001   0.20627   0.31487   0.00000  Uiso   1.00
O134   O     0.49999   0.12707   0.18513   0.00000  Uiso   1.00
C135   C     0.55998   0.10688   0.38448   0.00000  Uiso   1.00
C136   C     0.55507   0.05809   0.38279   0.00000  Uiso   1.00
C137   C     0.58590   0.03038   0.36436   0.00000  Uiso   1.00
C138   C     0.62149   0.05122   0.34708   0.00000  Uiso   1.00
C139   C     0.62635   0.09979   0.34833   0.00000  Uiso   1.00
C140   C     0.59564   0.12764   0.36680   0.00000  Uiso   1.00
H141   H     0.52782   0.04160   0.39656   0.00000  Uiso   1.00
H142   H     0.58216   0.32609   0.36339   0.00000  Uiso   1.00
H143   H     0.64529   0.02975   0.33274   0.00000  Uiso   1.00
H144   H     0.65409   0.11585   0.33539   0.00000  Uiso   1.00
H145   H     0.59999   0.16518   0.36817   0.00000  Uiso   1.00
C146   C     0.44006   0.22652   0.11552   0.00000  Uiso   1.00
C147   C     0.40439   0.20582   0.13323   0.00000  Uiso   1.00
C148   C     0.37372   0.23373   0.15169   0.00000  Uiso   1.00
C149   C     0.37863   0.28230   0.15289   0.00000  Uiso   1.00
C150   C     0.41423   0.30308   0.13558   0.00000  Uiso   1.00
C151   C     0.44503   0.27530   0.11716   0.00000  Uiso   1.00
H152   H     0.40000   0.16829   0.13190   0.00000  Uiso   1.00
H153   H     0.34596   0.21772   0.16466   0.00000  Uiso   1.00
H154   H     0.35485   0.30382   0.16722   0.00000  Uiso   1.00
H155   H     0.41801   0.00736   0.13651   0.00000  Uiso   1.00
H156   H     0.47229   0.29174   0.10336   0.00000  Uiso   1.00
C157   C     0.75404   0.16663   0.25011   0.00000  Uiso   1.00
C158   C     0.91263   0.16670   0.24988   0.00000  Uiso   1.00
C159   C     0.77795   0.22523   0.01946   0.00000  Uiso   1.00
C160   C     0.88870   0.10809   0.48054   0.00000  Uiso   1.00
C161   C     0.68788   0.12578   0.23933   0.00000  Uiso   1.00
C162   C     0.97879   0.20756   0.26067   0.00000  Uiso   1.00
C163   C     0.97856   0.12589   0.23898   0.00000  Uiso   1.00
C164   C     0.68811   0.20744   0.26101   0.00000  Uiso   1.00
C165   C     0.95724   0.16676   0.24973   0.00000  Uiso   1.00
C166   C     0.70943   0.16657   0.25027   0.00000  Uiso   1.00
C167   C     0.80021   0.02488   0.23417   0.00000  Uiso   1.00
C168   C     0.86645   0.30845   0.26583   0.00000  Uiso   1.00
C169   C     0.86651   0.02464   0.26559   0.00000  Uiso   1.00
C170   C     0.80015   0.30870   0.23441   0.00000  Uiso   1.00
C171   C     0.83211   0.16697   0.16445   0.00000  Uiso   1.00
C172   C     0.83456   0.16637   0.33555   0.00000  Uiso   1.00
C173   C     0.86272   0.13599   0.40795   0.00000  Uiso   1.00
C174   C     0.80395   0.19735   0.09205   0.00000  Uiso   1.00
C175   C     0.83569   0.16574   0.38387   0.00000  Uiso   1.00
C176   C     0.83097   0.16759   0.11613   0.00000  Uiso   1.00
C177   C     0.80864   0.19535   0.40586   0.00000  Uiso   1.00
C178   C     0.85800   0.13796   0.09414   0.00000  Uiso   1.00
C179   C     0.80733   0.19559   0.45189   0.00000  Uiso   1.00
C180   C     0.85932   0.13772   0.04811   0.00000  Uiso   1.00
C181   C     0.83394   0.16625   0.47665   0.00000  Uiso   1.00
C182   C     0.83270   0.16707   0.02335   0.00000  Uiso   1.00
C183   C     0.86192   0.13635   0.45482   0.00000  Uiso   1.00
C184   C     0.80473   0.19698   0.04518   0.00000  Uiso   1.00
C185   C     0.77948   0.22469   0.47343   0.00000  Uiso   1.00
C186   C     0.88717   0.10862   0.02657   0.00000  Uiso   1.00
Cu187  Cu    0.83333   0.21355   0.25000   0.00000  Uiso   1.00
Cu188  Cu    0.83333   0.11978   0.25000   0.00000  Uiso   1.00
H189   H     0.78796   0.21780   0.38686   0.00000  Uiso   1.00
H190   H     0.87868   0.11551   0.11314   0.00000  Uiso   1.00
H191   H     0.75867   0.24705   0.45460   0.00000  Uiso   1.00
H192   H     0.90797   0.08625   0.04540   0.00000  Uiso   1.00
H193   H     0.75554   0.24799   0.03449   0.00000  Uiso   1.00
H194   H     0.91111   0.08533   0.46551   0.00000  Uiso   1.00
H195   H     0.70390   0.09396   0.23071   0.00000  Uiso   1.00
H196   H     0.96276   0.23937   0.26929   0.00000  Uiso   1.00
H197   H     0.96234   0.09410   0.23032   0.00000  Uiso   1.00
H198   H     0.70433   0.23924   0.26967   0.00000  Uiso   1.00
H199   H     0.77367   0.04341   0.22118   0.00000  Uiso   1.00
H200   H     0.89300   0.28992   0.27882   0.00000  Uiso   1.00
H201   H     0.89323   0.04306   0.27777   0.00000  Uiso   1.00
H202   H     0.77344   0.29027   0.22223   0.00000  Uiso   1.00
N203   N     0.83333   0.28402   0.25000   0.00000  Uiso   1.00
N204   N     0.83333   0.04931   0.25000   0.00000  Uiso   1.00
O205   O     0.77321   0.20625   0.24999   0.00000  Uiso   1.00
O206   O     0.89345   0.12709   0.25000   0.00000  Uiso   1.00
O207   O     0.89345   0.20625   0.25000   0.00000  Uiso   1.00
O208   O     0.77321   0.12709   0.24999   0.00000  Uiso   1.00
O209   O     0.83332   0.20627   0.18513   0.00000  Uiso   1.00
O210   O     0.83334   0.12707   0.31487   0.00000  Uiso   1.00
O211   O     0.83334   0.20627   0.31487   0.00000  Uiso   1.00
O212   O     0.83332   0.12707   0.18513   0.00000  Uiso   1.00
C213   C     0.89332   0.10688   0.38448   0.00000  Uiso   1.00
C214   C     0.88840   0.05809   0.38279   0.00000  Uiso   1.00
C215   C     0.91923   0.03038   0.36436   0.00000  Uiso   1.00
C216   C     0.95482   0.05122   0.34708   0.00000  Uiso   1.00
C217   C     0.95968   0.09979   0.34833   0.00000  Uiso   1.00
C218   C     0.92897   0.12764   0.36680   0.00000  Uiso   1.00
H219   H     0.86115   0.04160   0.39656   0.00000  Uiso   1.00
H220   H     0.91550   0.32609   0.36339   0.00000  Uiso   1.00
H221   H     0.97863   0.02975   0.33274   0.00000  Uiso   1.00
H222   H     0.98743   0.11585   0.33539   0.00000  Uiso   1.00
H223   H     0.93333   0.16518   0.36817   0.00000  Uiso   1.00
C224   C     0.77340   0.22652   0.11552   0.00000  Uiso   1.00
C225   C     0.73772   0.20582   0.13323   0.00000  Uiso   1.00
C226   C     0.70706   0.23373   0.15169   0.00000  Uiso   1.00
C227   C     0.71196   0.28230   0.15289   0.00000  Uiso   1.00
C228   C     0.74757   0.30308   0.13558   0.00000  Uiso   1.00
C229   C     0.77836   0.27530   0.11716   0.00000  Uiso   1.00
H230   H     0.73333   0.16829   0.13190   0.00000  Uiso   1.00
H231   H     0.67930   0.21772   0.16466   0.00000  Uiso   1.00
H232   H     0.68818   0.30382   0.16722   0.00000  Uiso   1.00
H233   H     0.75134   0.00736   0.13651   0.00000  Uiso   1.00
H234   H     0.80562   0.29174   0.10336   0.00000  Uiso   1.00
C235   C     0.08737   0.49996   0.25011   0.00000  Uiso   1.00
C236   C     0.24596   0.50004   0.24988   0.00000  Uiso   1.00
C237   C     0.11129   0.55856   0.01946   0.00000  Uiso   1.00
C238   C     0.22203   0.44143   0.48054   0.00000  Uiso   1.00
C239   C     0.02121   0.45911   0.23933   0.00000  Uiso   1.00
C240   C     0.31212   0.54089   0.26067   0.00000  Uiso   1.00
C241   C     0.31189   0.45923   0.23898   0.00000  Uiso   1.00
C242   C     0.02144   0.54077   0.26101   0.00000  Uiso   1.00
C243   C     0.29057   0.50010   0.24973   0.00000  Uiso   1.00
C244   C     0.04276   0.49990   0.25027   0.00000  Uiso   1.00
C245   C     0.13355   0.35822   0.23417   0.00000  Uiso   1.00
C246   C     0.19979   0.64178   0.26583   0.00000  Uiso   1.00
C247   C     0.19985   0.35797   0.26559   0.00000  Uiso   1.00
C248   C     0.13349   0.64203   0.23441   0.00000  Uiso   1.00
C249   C     0.16544   0.50030   0.16445   0.00000  Uiso   1.00
C250   C     0.16789   0.49970   0.33555   0.00000  Uiso   1.00
C251   C     0.19605   0.46932   0.40795   0.00000  Uiso   1.00
C252   C     0.13728   0.53068   0.09205   0.00000  Uiso   1.00
C253   C     0.16902   0.49908   0.38387   0.00000  Uiso   1.00
C254   C     0.16431   0.50092   0.11613   0.00000  Uiso   1.00
C255   C     0.14198   0.52869   0.40586   0.00000  Uiso   1.00
C256   C     0.19134   0.47130   0.09414   0.00000  Uiso   1.00
C257   C     0.14066   0.52892   0.45189   0.00000  Uiso   1.00
C258   C     0.19265   0.47106   0.04811   0.00000  Uiso   1.00
C259   C     0.16728   0.49958   0.47665   0.00000  Uiso   1.00
C260   C     0.16604   0.50040   0.02335   0.00000  Uiso   1.00
C261   C     0.19525   0.46968   0.45482   0.00000  Uiso   1.00
C262   C     0.13807   0.53031   0.04518   0.00000  Uiso   1.00
C263   C     0.11281   0.55802   0.47343   0.00000  Uiso   1.00
C264   C     0.22050   0.44196   0.02657   0.00000  Uiso   1.00
Cu265  Cu    0.16667   0.54689   0.25000   0.00000  Uiso   1.00
Cu266  Cu    0.16667   0.45311   0.25000   0.00000  Uiso   1.00
H267   H     0.12130   0.55113   0.38686   0.00000  Uiso   1.00
H268   H     0.21201   0.44885   0.11314   0.00000  Uiso   1.00
H269   H     0.09200   0.58039   0.45460   0.00000  Uiso   1.00
H270   H     0.24130   0.41959   0.04540   0.00000  Uiso   1.00
H271   H     0.08888   0.58132   0.03449   0.00000  Uiso   1.00
H272   H     0.24444   0.41866   0.46551   0.00000  Uiso   1.00
H273   H     0.03723   0.42729   0.23071   0.00000  Uiso   1.00
H274   H     0.29610   0.57271   0.26929   0.00000  Uiso   1.00
H275   H     0.29567   0.42743   0.23032   0.00000  Uiso   1.00
H276   H     0.03766   0.57257   0.26967   0.00000  Uiso   1.00
H277   H     0.10700   0.37675   0.22118   0.00000  Uiso   1.00
H278   H     0.22633   0.62325   0.27882   0.00000  Uiso   1.00
H279   H     0.22656   0.37640   0.27777   0.00000  Uiso   1.00
H280   H     0.10677   0.62360   0.22223   0.00000  Uiso   1.00
N281   N     0.16667   0.61736   0.25000   0.00000  Uiso   1.00
N282   N     0.16667   0.38264   0.25000   0.00000  Uiso   1.00
O283   O     0.10655   0.53958   0.24999   0.00000  Uiso   1.00
O284   O     0.22679   0.46042   0.25000   0.00000  Uiso   1.00
O285   O     0.22679   0.53958   0.25000   0.00000  Uiso   1.00
O286   O     0.10655   0.46042   0.24999   0.00000  Uiso   1.00
O287   O     0.16666   0.53960   0.18513   0.00000  Uiso   1.00
O288   O     0.16668   0.46040   0.31487   0.00000  Uiso   1.00
O289   O     0.16668   0.53960   0.31487   0.00000  Uiso   1.00
O290   O     0.16666   0.46040   0.18513   0.00000  Uiso   1.00
C291   C     0.22665   0.44021   0.38448   0.00000  Uiso   1.00
C292   C     0.22173   0.39143   0.38279   0.00000  Uiso   1.00
C293   C     0.25256   0.36371   0.36436   0.00000  Uiso   1.00
C294   C     0.28815   0.38455   0.34708   0.00000  Uiso   1.00
C295   C     0.29301   0.43313   0.34833   0.00000  Uiso   1.00
C296   C     0.26231   0.46097   0.36680   0.00000  Uiso   1.00
H297   H     0.19448   0.37493   0.39656   0.00000  Uiso   1.00
H298   H     0.24883   0.65942   0.36339   0.00000  Uiso   1.00
H299   H     0.31196   0.36308   0.33274   0.00000  Uiso   1.00
H300   H     0.32076   0.44919   0.33539   0.00000  Uiso   1.00
H301   H     0.26666   0.49851   0.36817   0.00000  Uiso   1.00
C302   C     0.10673   0.55985   0.11552   0.00000  Uiso   1.00
C303   C     0.07106   0.53916   0.13323   0.00000  Uiso   1.00
C304   C     0.04039   0.56706   0.15169   0.00000  Uiso   1.00
C305   C     0.04529   0.61563   0.15289   0.00000  Uiso   1.00
C306   C     0.08090   0.63641   0.13558   0.00000  Uiso   1.00
C307   C     0.11169   0.60863   0.11716   0.00000  Uiso   1.00
H308   H     0.06666   0.50162   0.13190   0.00000  Uiso   1.00
H309   H     0.01263   0.55105   0.16466   0.00000  Uiso   1.00
H310   H     0.02152   0.63715   0.16722   0.00000  Uiso   1.00
H311   H     0.08467   0.34069   0.13651   0.00000  Uiso   1.00
H312   H     0.13895   0.62508   0.10336   0.00000  Uiso   1.00
C313   C     0.42070   0.49996   0.25011   0.00000  Uiso   1.00
C314   C     0.57929   0.50004   0.24988   0.00000  Uiso   1.00
C315   C     0.44462   0.55856   0.01946   0.00000  Uiso   1.00
C316   C     0.55536   0.44143   0.48054   0.00000  Uiso   1.00
C317   C     0.35454   0.45911   0.23933   0.00000  Uiso   1.00
C318   C     0.64546   0.54089   0.26067   0.00000  Uiso   1.00
C319   C     0.64523   0.45923   0.23898   0.00000  Uiso   1.00
C320   C     0.35477   0.54077   0.26101   0.00000  Uiso   1.00
C321   C     0.62391   0.50010   0.24973   0.00000  Uiso   1.00
C322   C     0.37609   0.49990   0.25027   0.00000  Uiso   1.00
C323   C     0.46688   0.35822   0.23417   0.00000  Uiso   1.00
C324   C     0.53312   0.64178   0.26583   0.00000  Uiso   1.00
C325   C     0.53318   0.35797   0.26559   0.00000  Uiso   1.00
C326   C     0.46682   0.64203   0.23441   0.00000  Uiso   1.00
C327   C     0.49877   0.50030   0.16445   0.00000  Uiso   1.00
C328   C     0.50122   0.49970   0.33555   0.00000  Uiso   1.00
C329   C     0.52938   0.46932   0.40795   0.00000  Uiso   1.00
C330   C     0.47062   0.53068   0.09205   0.00000  Uiso   1.00
C331   C     0.50235   0.49908   0.38387   0.00000  Uiso   1.00
C332   C     0.49764   0.50092   0.11613   0.00000  Uiso   1.00
C333   C     0.47531   0.52869   0.40586   0.00000  Uiso   1.00
C334   C     0.52467   0.47130   0.09414   0.00000  Uiso   1.00
C335   C     0.47400   0.52892   0.45189   0.00000  Uiso   1.00
C336   C     0.52598   0.47106   0.04811   0.00000  Uiso   1.00
C337   C     0.50061   0.49958   0.47665   0.00000  Uiso   1.00
C338   C     0.49937   0.50040   0.02335   0.00000  Uiso   1.00
C339   C     0.52859   0.46968   0.45482   0.00000  Uiso   1.00
C340   C     0.47140   0.53031   0.04518   0.00000  Uiso   1.00
C341   C     0.44614   0.55802   0.47343   0.00000  Uiso   1.00
C342   C     0.55383   0.44196   0.02657   0.00000  Uiso   1.00
Cu343  Cu    0.50000   0.54689   0.25000   0.00000  Uiso   1.00
Cu344  Cu    0.50000   0.45311   0.25000   0.00000  Uiso   1.00
H345   H     0.45463   0.55113   0.38686   0.00000  Uiso   1.00
H346   H     0.54534   0.44885   0.11314   0.00000  Uiso   1.00
H347   H     0.42534   0.58039   0.45460   0.00000  Uiso   1.00
H348   H     0.57464   0.41959   0.04540   0.00000  Uiso   1.00
H349   H     0.42221   0.58132   0.03449   0.00000  Uiso   1.00
H350   H     0.57778   0.41866   0.46551   0.00000  Uiso   1.00
H351   H     0.37057   0.42729   0.23071   0.00000  Uiso   1.00
H352   H     0.62943   0.57271   0.26929   0.00000  Uiso   1.00
H353   H     0.62900   0.42743   0.23032   0.00000  Uiso   1.00
H354   H     0.37100   0.57257   0.26967   0.00000  Uiso   1.00
H355   H     0.44034   0.37675   0.22118   0.00000  Uiso   1.00
H356   H     0.55966   0.62325   0.27882   0.00000  Uiso   1.00
H357   H     0.55990   0.37640   0.27777   0.00000  Uiso   1.00
H358   H     0.44010   0.62360   0.22223   0.00000  Uiso   1.00
N359   N     0.50000   0.61736   0.25000   0.00000  Uiso   1.00
N360   N     0.50000   0.38264   0.25000   0.00000  Uiso   1.00
O361   O     0.43988   0.53958   0.24999   0.00000  Uiso   1.00
O362   O     0.56012   0.46042   0.25000   0.00000  Uiso   1.00
O363   O     0.56012   0.53958   0.25000   0.00000  Uiso   1.00
O364   O     0.43988   0.46042   0.24999   0.00000  Uiso   1.00
O365   O     0.49999   0.53960   0.18513   0.00000  Uiso   1.00
O366   O     0.50001   0.46040   0.31487   0.00000  Uiso   1.00
O367   O     0.50001   0.53960   0.31487   0.00000  Uiso   1.00
O368   O     0.49999   0.46040   0.18513   0.00000  Uiso   1.00
C369   C     0.55998   0.44021   0.38448   0.00000  Uiso   1.00
C370   C     0.55507   0.39143   0.38279   0.00000  Uiso   1.00
C371   C     0.58590   0.36371   0.36436   0.00000  Uiso   1.00
C372   C     0.62149   0.38455   0.34708   0.00000  Uiso   1.00
C373   C     0.62635   0.43313   0.34833   0.00000  Uiso   1.00
C374   C     0.59564   0.46097   0.36680   0.00000  Uiso   1.00
H375   H     0.52782   0.37493   0.39656   0.00000  Uiso   1.00
H376   H     0.58216   0.65942   0.36339   0.00000  Uiso   1.00
H377   H     0.64529   0.36308   0.33274   0.00000  Uiso   1.00
H378   H     0.65409   0.44919   0.33539   0.00000  Uiso   1.00
H379   H     0.59999   0.49851   0.36817   0.00000  Uiso   1.00
C380   C     0.44006   0.55985   0.11552   0.00000  Uiso   1.00
C381   C     0.40439   0.53916   0.13323   0.00000  Uiso   1.00
C382   C     0.37372   0.56706   0.15169   0.00000  Uiso   1.00
C383   C     0.37863   0.61563   0.15289   0.00000  Uiso   1.00
C384   C     0.41423   0.63641   0.13558   0.00000  Uiso   1.00
C385   C     0.44503   0.60863   0.11716   0.00000  Uiso   1.00
H386   H     0.40000   0.50162   0.13190   0.00000  Uiso   1.00
H387   H     0.34596   0.55105   0.16466   0.00000  Uiso   1.00
H388   H     0.35485   0.63715   0.16722   0.00000  Uiso   1.00
H389   H     0.41801   0.34069   0.13651   0.00000  Uiso   1.00
H390   H     0.47229   0.62508   0.10336   0.00000  Uiso   1.00
C391   C     0.75404   0.49996   0.25011   0.00000  Uiso   1.00
C392   C     0.91263   0.50004   0.24988   0.00000  Uiso   1.00
C393   C     0.77795   0.55856   0.01946   0.00000  Uiso   1.00
C394   C     0.88870   0.44143   0.48054   0.00000  Uiso   1.00
C395   C     0.68788   0.45911   0.23933   0.00000  Uiso   1.00
C396   C     0.97879   0.54089   0.26067   0.00000  Uiso   1.00
C397   C     0.97856   0.45923   0.23898   0.00000  Uiso   1.00
C398   C     0.68811   0.54077   0.26101   0.00000  Uiso   1.00
C399   C     0.95724   0.50010   0.24973   0.00000  Uiso   1.00
C400   C     0.70943   0.49990   0.25027   0.00000  Uiso   1.00
C401   C     0.80021   0.35822   0.23417   0.00000  Uiso   1.00
C402   C     0.86645   0.64178   0.26583   0.00000  Uiso   1.00
C403   C     0.86651   0.35797   0.26559   0.00000  Uiso   1.00
C404   C     0.80015   0.64203   0.23441   0.00000  Uiso   1.00
C405   C     0.83211   0.50030   0.16445   0.00000  Uiso   1.00
C406   C     0.83456   0.49970   0.33555   0.00000  Uiso   1.00
C407   C     0.86272   0.46932   0.40795   0.00000  Uiso   1.00
C408   C     0.80395   0.53068   0.09205   0.00000  Uiso   1.00
C409   C     0.83569   0.49908   0.38387   0.00000  Uiso   1.00
C410   C     0.83097   0.50092   0.11613   0.00000  Uiso   1.00
C411   C     0.80864   0.52869   0.40586   0.00000  Uiso   1.00
C412   C     0.85800   0.47130   0.09414   0.00000  Uiso   1.00
C413   C     0.80733   0.52892   0.45189   0.00000  Uiso   1.00
C414   C     0.85932   0.47106   0.04811   0.00000  Uiso   1.00
C415   C     0.83394   0.49958   0.47665   0.00000  Uiso   1.00
C416   C     0.83270   0.50040   0.02335   0.00000  Uiso   1.00
C417   C     0.86192   0.46968   0.45482   0.00000  Uiso   1.00
C418   C     0.80473   0.53031   0.04518   0.00000  Uiso   1.00
C419   C     0.77948   0.55802   0.47343   0.00000  Uiso   1.00
C420   C     0.88717   0.44196   0.02657   0.00000  Uiso   1.00
Cu421  Cu    0.83333   0.54689   0.25000   0.00000  Uiso   1.00
Cu422  Cu    0.83333   0.45311   0.25000   0.00000  Uiso   1.00
H423   H     0.78796   0.55113   0.38686   0.00000  Uiso   1.00
H424   H     0.87868   0.44885   0.11314   0.00000  Uiso   1.00
H425   H     0.75867   0.58039   0.45460   0.00000  Uiso   1.00
H426   H     0.90797   0.41959   0.04540   0.00000  Uiso   1.00
H427   H     0.75554   0.58132   0.03449   0.00000  Uiso   1.00
H428   H     0.91111   0.41866   0.46551   0.00000  Uiso   1.00
H429   H     0.70390   0.42729   0.23071   0.00000  Uiso   1.00
H430   H     0.96276   0.57271   0.26929   0.00000  Uiso   1.00
H431   H     0.96234   0.42743   0.23032   0.00000  Uiso   1.00
H432   H     0.70433   0.57257   0.26967   0.00000  Uiso   1.00
H433   H     0.77367   0.37675   0.22118   0.00000  Uiso   1.00
H434   H     0.89300   0.62325   0.27882   0.00000  Uiso   1.00
H435   H     0.89323   0.37640   0.27777   0.00000  Uiso   1.00
H436   H     0.77344   0.62360   0.22223   0.00000  Uiso   1.00
N437   N     0.83333   0.61736   0.25000   0.00000  Uiso   1.00
N438   N     0.83333   0.38264   0.25000   0.00000  Uiso   1.00
O439   O     0.77321   0.53958   0.24999   0.00000  Uiso   1.00
O440   O     0.89345   0.46042   0.25000   0.00000  Uiso   1.00
O441   O     0.89345   0.53958   0.25000   0.00000  Uiso   1.00
O442   O     0.77321   0.46042   0.24999   0.00000  Uiso   1.00
O443   O     0.83332   0.53960   0.18513   0.00000  Uiso   1.00
O444   O     0.83334   0.46040   0.31487   0.00000  Uiso   1.00
O445   O     0.83334   0.53960   0.31487   0.00000  Uiso   1.00
O446   O     0.83332   0.46040   0.18513   0.00000  Uiso   1.00
C447   C     0.89332   0.44021   0.38448   0.00000  Uiso   1.00
C448   C     0.88840   0.39143   0.38279   0.00000  Uiso   1.00
C449   C     0.91923   0.36371   0.36436   0.00000  Uiso   1.00
C450   C     0.95482   0.38455   0.34708   0.00000  Uiso   1.00
C451   C     0.95968   0.43313   0.34833   0.00000  Uiso   1.00
C452   C     0.92897   0.46097   0.36680   0.00000  Uiso   1.00
H453   H     0.86115   0.37493   0.39656   0.00000  Uiso   1.00
H454   H     0.91550   0.65942   0.36339   0.00000  Uiso   1.00
H455   H     0.97863   0.36308   0.33274   0.00000  Uiso   1.00
H456   H     0.98743   0.44919   0.33539   0.00000  Uiso   1.00
H457   H     0.93333   0.49851   0.36817   0.00000  Uiso   1.00
C458   C     0.77340   0.55985   0.11552   0.00000  Uiso   1.00
C459   C     0.73772   0.53916   0.13323   0.00000  Uiso   1.00
C460   C     0.70706   0.56706   0.15169   0.00000  Uiso   1.00
C461   C     0.71196   0.61563   0.15289   0.00000  Uiso   1.00
C462   C     0.74757   0.63641   0.13558   0.00000  Uiso   1.00
C463   C     0.77836   0.60863   0.11716   0.00000  Uiso   1.00
H464   H     0.73333   0.50162   0.13190   0.00000  Uiso   1.00
H465   H     0.67930   0.55105   0.16466   0.00000  Uiso   1.00
H466   H     0.68818   0.63715   0.16722   0.00000  Uiso   1.00
H467   H     0.75134   0.34069   0.13651   0.00000  Uiso   1.00
H468   H     0.80562   0.62508   0.10336   0.00000  Uiso   1.00
C469   C     0.08737   0.83330   0.25011   0.00000  Uiso   1.00
C470   C     0.24596   0.83337   0.24988   0.00000  Uiso   1.00
C471   C     0.11129   0.89189   0.01946   0.00000  Uiso   1.00
C472   C     0.22203   0.77476   0.48054   0.00000  Uiso   1.00
C473   C     0.02121   0.79244   0.23933   0.00000  Uiso   1.00
C474   C     0.31212   0.87422   0.26067   0.00000  Uiso   1.00
C475   C     0.31189   0.79256   0.23898   0.00000  Uiso   1.00
C476   C     0.02144   0.87411   0.26101   0.00000  Uiso   1.00
C477   C     0.29057   0.83343   0.24973   0.00000  Uiso   1.00
C478   C     0.04276   0.83324   0.25027   0.00000  Uiso   1.00
C479   C     0.13355   0.69155   0.23417   0.00000  Uiso   1.00
C480   C     0.19979   0.97512   0.26583   0.00000  Uiso   1.00
C481   C     0.19985   0.69130   0.26559   0.00000  Uiso   1.00
C482   C     0.13349   0.97536   0.23441   0.00000  Uiso   1.00
C483   C     0.16544   0.83363   0.16445   0.00000  Uiso   1.00
C484   C     0.16789   0.83303   0.33555   0.00000  Uiso   1.00
C485   C     0.19605   0.80266   0.40795   0.00000  Uiso   1.00
C486   C     0.13728   0.86402   0.09205   0.00000  Uiso   1.00
C487   C     0.16902   0.83241   0.38387   0.00000  Uiso   1.00
C488   C     0.16431   0.83425   0.11613   0.00000  Uiso   1.00
C489   C     0.14198   0.86202   0.40586   0.00000  Uiso   1.00
C490   C     0.19134   0.80463   0.09414   0.00000  Uiso   1.00
C491   C     0.14066   0.86225   0.45189   0.00000  Uiso   1.00
C492   C     0.19265   0.80439   0.04811   0.00000  Uiso   1.00
C493   C     0.16728   0.83291   0.47665   0.00000  Uiso   1.00
C494   C     0.16604   0.83373   0.02335   0.00000  Uiso   1.00
C495   C     0.19525   0.80301   0.45482   0.00000  Uiso   1.00
C496   C     0.13807   0.86364   0.04518   0.00000  Uiso   1.00
C497   C     0.11281   0.89135   0.47343   0.00000  Uiso   1.00
C498   C     0.22050   0.77529   0.02657   0.00000  Uiso   1.00
Cu499  Cu    0.16667   0.88022   0.25000   0.00000  Uiso   1.00
Cu500  Cu    0.16667   0.78645   0.25000   0.00000  Uiso   1.00
H501   H     0.12130   0.88446   0.38686   0.00000  Uiso   1.00
H502   H     0.21201   0.78218   0.11314   0.00000  Uiso   1.00
H503   H     0.09200   0.91372   0.45460   0.00000  Uiso   1.00
H504   H     0.24130   0.75292   0.04540   0.00000  Uiso   1.00
H505   H     0.08888   0.91466   0.03449   0.00000  Uiso   1.00
H506   H     0.24444   0.75200   0.46551   0.00000  Uiso   1.00
H507   H     0.03723   0.76063   0.23071   0.00000  Uiso   1.00
H508   H     0.29610   0.90604   0.26929   0.00000  Uiso   1.00
H509   H     0.29567   0.76076   0.23032   0.00000  Uiso   1.00
H510   H     0.03766   0.90590   0.26967   0.00000  Uiso   1.00
H511   H     0.10700   0.71008   0.22118   0.00000  Uiso   1.00
H512   H     0.22633   0.95658   0.27882   0.00000  Uiso   1.00
H513   H     0.22656   0.70973   0.27777   0.00000  Uiso   1.00
H514   H     0.10677   0.95694   0.22223   0.00000  Uiso   1.00
N515   N     0.16667   0.95069   0.25000   0.00000  Uiso   1.00
N516   N     0.16667   0.71598   0.25000   0.00000  Uiso   1.00
O517   O     0.10655   0.87291   0.24999   0.00000  Uiso   1.00
O518   O     0.22679   0.79375   0.25000   0.00000  Uiso   1.00
O519   O     0.22679   0.87291   0.25000   0.00000  Uiso   1.00
O520   O     0.10655   0.79375   0.24999   0.00000  Uiso   1.00
O521   O     0.16666   0.87293   0.18513   0.00000  Uiso   1.00
O522   O     0.16668   0.79373   0.31487   0.00000  Uiso   1.00
O523   O     0.16668   0.87293   0.31487   0.00000  Uiso   1.00
O524   O     0.16666   0.79373   0.18513   0.00000  Uiso   1.00
C525   C     0.22665   0.77355   0.38448   0.00000  Uiso   1.00
C526   C     0.22173   0.72476   0.38279   0.00000  Uiso   1.00
C527   C     0.25256   0.69704   0.36436   0.00000  Uiso   1.00
C528   C     0.28815   0.71789   0.34708   0.00000  Uiso   1.00
C529   C     0.29301   0.76646   0.34833   0.00000  Uiso   1.00
C530   C     0.26231   0.79430   0.36680   0.00000  Uiso   1.00
H531   H     0.19448   0.70827   0.39656   0.00000  Uiso   1.00
H532   H     0.24883   0.99276   0.36339   0.00000  Uiso   1.00
H533   H     0.31196   0.69641   0.33274   0.00000  Uiso   1.00
H534   H     0.32076   0.78252   0.33539   0.00000  Uiso   1.00
H535   H     0.26666   0.83185   0.36817   0.00000  Uiso   1.00
C536   C     0.10673   0.89318   0.11552   0.00000  Uiso   1.00
C537   C     0.07106   0.87249   0.13323   0.00000  Uiso   1.00
C538   C     0.04039   0.90039   0.15169   0.00000  Uiso   1.00
C539   C     0.04529   0.94896   0.15289   0.00000  Uiso   1.00
C540   C     0.08090   0.96974   0.13558   0.00000  Uiso   1.00
C541   C     0.11169   0.94197   0.11716   0.00000  Uiso   1.00
H542   H     0.06666   0.83495   0.13190   0.00000  Uiso   1.00
H543   H     0.01263   0.88438   0.16466   0.00000  Uiso   1.00
H544   H     0.02152   0.97048   0.16722   0.00000  Uiso   1.00
H545   H     0.08467   0.67402   0.13651   0.00000  Uiso   1.00
H546   H     0.13895   0.95841   0.10336   0.00000  Uiso   1.00
C547   C     0.42070   0.83330   0.25011   0.00000  Uiso   1.00
C548   C     0.57929   0.83337   0.24988   0.00000  Uiso   1.00
C549   C     0.44462   0.89189   0.01946   0.00000  Uiso   1.00
C550   C     0.55536   0.77476   0.48054   0.00000  Uiso   1.00
C551   C     0.35454   0.79244   0.23933   0.00000  Uiso   1.00
C552   C     0.64546   0.87422   0.26067   0.00000  Uiso   1.00
C553   C     0.64523   0.79256   0.23898   0.00000  Uiso   1.00
C554   C     0.35477   0.87411   0.26101   0.00000  Uiso   1.00
C555   C     0.62391   0.83343   0.24973   0.00000  Uiso   1.00
C556   C     0.37609   0.83324   0.25027   0.00000  Uiso   1.00
C557   C     0.46688   0.69155   0.23417   0.00000  Uiso   1.00
C558   C     0.53312   0.97512   0.26583   0.00000  Uiso   1.00
C559   C     0.53318   0.69130   0.26559   0.00000  Uiso   1.00
C560   C     0.46682   0.97536   0.23441   0.00000  Uiso   1.00
C561   C     0.49877   0.83363   0.16445   0.00000  Uiso   1.00
C562   C     0.50122   0.83303   0.33555   0.00000  Uiso   1.00
C563   C     0.52938   0.80266   0.40795   0.00000  Uiso   1.00
C564   C     0.47062   0.86402   0.09205   0.00000  Uiso   1.00
C565   C     0.50235   0.83241   0.38387   0.00000  Uiso   1.00
C566   C     0.49764   0.83425   0.11613   0.00000  Uiso   1.00
C567   C     0.47531   0.86202   0.40586   0.00000  Uiso   1.00
C568   C     0.52467   0.80463   0.09414   0.00000  Uiso   1.00
C569   C     0.47400   0.86225   0.45189   0.00000  Uiso   1.00
C570   C     0.52598   0.80439   0.04811   0.00000  Uiso   1.00
C571   C     0.50061   0.83291   0.47665   0.00000  Uiso   1.00
C572   C     0.49937   0.83373   0.02335   0.00000  Uiso   1.00
C573   C     0.52859   0.80301   0.45482   0.00000  Uiso   1.00
C574   C     0.47140   0.86364   0.04518   0.00000  Uiso   1.00
C575   C     0.44614   0.89135   0.47343   0.00000  Uiso   1.00
C576   C     0.55383   0.77529   0.02657   0.00000  Uiso   1.00
Cu577  Cu    0.50000   0.88022   0.25000   0.00000  Uiso   1.00
Cu578  Cu    0.50000   0.78645   0.25000   0.00000  Uiso   1.00
H579   H     0.45463   0.88446   0.38686   0.00000  Uiso   1.00
H580   H     0.54534   0.78218   0.11314   0.00000  Uiso   1.00
H581   H     0.42534   0.91372   0.45460   0.00000  Uiso   1.00
H582   H     0.57464   0.75292   0.04540   0.00000  Uiso   1.00
H583   H     0.42221   0.91466   0.03449   0.00000  Uiso   1.00
H584   H     0.57778   0.75200   0.46551   0.00000  Uiso   1.00
H585   H     0.37057   0.76063   0.23071   0.00000  Uiso   1.00
H586   H     0.62943   0.90604   0.26929   0.00000  Uiso   1.00
H587   H     0.62900   0.76076   0.23032   0.00000  Uiso   1.00
H588   H     0.37100   0.90590   0.26967   0.00000  Uiso   1.00
H589   H     0.44034   0.71008   0.22118   0.00000  Uiso   1.00
H590   H     0.55966   0.95658   0.27882   0.00000  Uiso   1.00
H591   H     0.55990   0.70973   0.27777   0.00000  Uiso   1.00
H592   H     0.44010   0.95694   0.22223   0.00000  Uiso   1.00
N593   N     0.50000   0.95069   0.25000   0.00000  Uiso   1.00
N594   N     0.50000   0.71598   0.25000   0.00000  Uiso   1.00
O595   O     0.43988   0.87291   0.24999   0.00000  Uiso   1.00
O596   O     0.56012   0.79375   0.25000   0.00000  Uiso   1.00
O597   O     0.56012   0.87291   0.25000   0.00000  Uiso   1.00
O598   O     0.43988   0.79375   0.24999   0.00000  Uiso   1.00
O599   O     0.49999   0.87293   0.18513   0.00000  Uiso   1.00
O600   O     0.50001   0.79373   0.31487   0.00000  Uiso   1.00
O601   O     0.50001   0.87293   0.31487   0.00000  Uiso   1.00
O602   O     0.49999   0.79373   0.18513   0.00000  Uiso   1.00
C603   C     0.55998   0.77355   0.38448   0.00000  Uiso   1.00
C604   C     0.55507   0.72476   0.38279   0.00000  Uiso   1.00
C605   C     0.58590   0.69704   0.36436   0.00000  Uiso   1.00
C606   C     0.62149   0.71789   0.34708   0.00000  Uiso   1.00
C607   C     0.62635   0.76646   0.34833   0.00000  Uiso   1.00
C608   C     0.59564   0.79430   0.36680   0.00000  Uiso   1.00
H609   H     0.52782   0.70827   0.39656   0.00000  Uiso   1.00
H610   H     0.58216   0.99276   0.36339   0.00000  Uiso   1.00
H611   H     0.64529   0.69641   0.33274   0.00000  Uiso   1.00
H612   H     0.65409   0.78252   0.33539   0.00000  Uiso   1.00
H613   H     0.59999   0.83185   0.36817   0.00000  Uiso   1.00
C614   C     0.44006   0.89318   0.11552   0.00000  Uiso   1.00
C615   C     0.40439   0.87249   0.13323   0.00000  Uiso   1.00
C616   C     0.37372   0.90039   0.15169   0.00000  Uiso   1.00
C617   C     0.37863   0.94896   0.15289   0.00000  Uiso   1.00
C618   C     0.41423   0.96974   0.13558   0.00000  Uiso   1.00
C619   C     0.44503   0.94197   0.11716   0.00000  Uiso   1.00
H620   H     0.40000   0.83495   0.13190   0.00000  Uiso   1.00
H621   H     0.34596   0.88438   0.16466   0.00000  Uiso   1.00
H622   H     0.35485   0.97048   0.16722   0.00000  Uiso   1.00
H623   H     0.41801   0.67402   0.13651   0.00000  Uiso   1.00
H624   H     0.47229   0.95841   0.10336   0.00000  Uiso   1.00
C625   C     0.75404   0.83330   0.25011   0.00000  Uiso   1.00
C626   C     0.91263   0.83337   0.24988   0.00000  Uiso   1.00
C627   C     0.77795   0.89189   0.01946   0.00000  Uiso   1.00
C628   C     0.88870   0.77476   0.48054   0.00000  Uiso   1.00
C629   C     0.68788   0.79244   0.23933   0.00000  Uiso   1.00
C630   C     0.97879   0.87422   0.26067   0.00000  Uiso   1.00
C631   C     0.97856   0.79256   0.23898   0.00000  Uiso   1.00
C632   C     0.68811   0.87411   0.26101   0.00000  Uiso   1.00
C633   C     0.95724   0.83343   0.24973   0.00000  Uiso   1.00
C634   C     0.70943   0.83324   0.25027   0.00000  Uiso   1.00
C635   C     0.80021   0.69155   0.23417   0.00000  Uiso   1.00
C636   C     0.86645   0.97512   0.26583   0.00000  Uiso   1.00
C637   C     0.86651   0.69130   0.26559   0.00000  Uiso   1.00
C638   C     0.80015   0.97536   0.23441   0.00000  Uiso   1.00
C639   C     0.83211   0.83363   0.16445   0.00000  Uiso   1.00
C640   C     0.83456   0.83303   0.33555   0.00000  Uiso   1.00
C641   C     0.86272   0.80266   0.40795   0.00000  Uiso   1.00
C642   C     0.80395   0.86402   0.09205   0.00000  Uiso   1.00
C643   C     0.83569   0.83241   0.38387   0.00000  Uiso   1.00
C644   C     0.83097   0.83425   0.11613   0.00000  Uiso   1.00
C645   C     0.80864   0.86202   0.40586   0.00000  Uiso   1.00
C646   C     0.85800   0.80463   0.09414   0.00000  Uiso   1.00
C647   C     0.80733   0.86225   0.45189   0.00000  Uiso   1.00
C648   C     0.85932   0.80439   0.04811   0.00000  Uiso   1.00
C649   C     0.83394   0.83291   0.47665   0.00000  Uiso   1.00
C650   C     0.83270   0.83373   0.02335   0.00000  Uiso   1.00
C651   C     0.86192   0.80301   0.45482   0.00000  Uiso   1.00
C652   C     0.80473   0.86364   0.04518   0.00000  Uiso   1.00
C653   C     0.77948   0.89135   0.47343   0.00000  Uiso   1.00
C654   C     0.88717   0.77529   0.02657   0.00000  Uiso   1.00
Cu655  Cu    0.83333   0.88022   0.25000   0.00000  Uiso   1.00
Cu656  Cu    0.83333   0.78645   0.25000   0.00000  Uiso   1.00
H657   H     0.78796   0.88446   0.38686   0.00000  Uiso   1.00
H658   H     0.87868   0.78218   0.11314   0.00000  Uiso   1.00
H659   H     0.75867   0.91372   0.45460   0.00000  Uiso   1.00
H660   H     0.90797   0.75292   0.04540   0.00000  Uiso   1.00
H661   H     0.75554   0.91466   0.03449   0.00000  Uiso   1.00
H662   H     0.91111   0.75200   0.46551   0.00000  Uiso   1.00
H663   H     0.70390   0.76063   0.23071   0.00000  Uiso   1.00
H664   H     0.96276   0.90604   0.26929   0.00000  Uiso   1.00
H665   H     0.96234   0.76076   0.23032   0.00000  Uiso   1.00
H666   H     0.70433   0.90590   0.26967   0.00000  Uiso   1.00
H667   H     0.77367   0.71008   0.22118   0.00000  Uiso   1.00
H668   H     0.89300   0.95658   0.27882   0.00000  Uiso   1.00
H669   H     0.89323   0.70973   0.27777   0.00000  Uiso   1.00
H670   H     0.77344   0.95694   0.22223   0.00000  Uiso   1.00
N671   N     0.83333   0.95069   0.25000   0.00000  Uiso   1.00
N672   N     0.83333   0.71598   0.25000   0.00000  Uiso   1.00
O673   O     0.77321   0.87291   0.24999   0.00000  Uiso   1.00
O674   O     0.89345   0.79375   0.25000   0.00000  Uiso   1.00
O675   O     0.89345   0.87291   0.25000   0.00000  Uiso   1.00
O676   O     0.77321   0.79375   0.24999   0.00000  Uiso   1.00
O677   O     0.83332   0.87293   0.18513   0.00000  Uiso   1.00
O678   O     0.83334   0.79373   0.31487   0.00000  Uiso   1.00
O679   O     0.83334   0.87293   0.31487   0.00000  Uiso   1.00
O680   O     0.83332   0.79373   0.18513   0.00000  Uiso   1.00
C681   C     0.89332   0.77355   0.38448   0.00000  Uiso   1.00
C682   C     0.88840   0.72476   0.38279   0.00000  Uiso   1.00
C683   C     0.91923   0.69704   0.36436   0.00000  Uiso   1.00
C684   C     0.95482   0.71789   0.34708   0.00000  Uiso   1.00
C685   C     0.95968   0.76646   0.34833   0.00000  Uiso   1.00
C686   C     0.92897   0.79430   0.36680   0.00000  Uiso   1.00
H687   H     0.86115   0.70827   0.39656   0.00000  Uiso   1.00
H688   H     0.91550   0.99276   0.36339   0.00000  Uiso   1.00
H689   H     0.97863   0.69641   0.33274   0.00000  Uiso   1.00
H690   H     0.98743   0.78252   0.33539   0.00000  Uiso   1.00
H691   H     0.93333   0.83185   0.36817   0.00000  Uiso   1.00
C692   C     0.77340   0.89318   0.11552   0.00000  Uiso   1.00
C693   C     0.73772   0.87249   0.13323   0.00000  Uiso   1.00
C694   C     0.70706   0.90039   0.15169   0.00000  Uiso   1.00
C695   C     0.71196   0.94896   0.15289   0.00000  Uiso   1.00
C696   C     0.74757   0.96974   0.13558   0.00000  Uiso   1.00
C697   C     0.77836   0.94197   0.11716   0.00000  Uiso   1.00
H698   H     0.73333   0.83495   0.13190   0.00000  Uiso   1.00
H699   H     0.67930   0.88438   0.16466   0.00000  Uiso   1.00
H700   H     0.68818   0.97048   0.16722   0.00000  Uiso   1.00
H701   H     0.75134   0.67402   0.13651   0.00000  Uiso   1.00
H702   H     0.80562   0.95841   0.10336   0.00000  Uiso   1.00
C703   C     0.08737   0.16663   0.75011   0.00000  Uiso   1.00
C704   C     0.24596   0.16670   0.74988   0.00000  Uiso   1.00
C705   C     0.11129   0.22523   0.51946   0.00000  Uiso   1.00
C706   C     0.22203   0.10809   0.98054   0.00000  Uiso   1.00
C707   C     0.02121   0.12578   0.73933   0.00000  Uiso   1.00
C708   C     0.31212   0.20756   0.76067   0.00000  Uiso   1.00
C709   C     0.31189   0.12589   0.73898   0.00000  Uiso   1.00
C710   C     0.02144   0.20744   0.76101   0.00000  Uiso   1.00
C711   C     0.29057   0.16676   0.74973   0.00000  Uiso   1.00
C712   C     0.04276   0.16657   0.75027   0.00000  Uiso   1.00
C713   C     0.13355   0.02488   0.73417   0.00000  Uiso   1.00
C714   C     0.19979   0.30845   0.76583   0.00000  Uiso   1.00
C715   C     0.19985   0.02464   0.76559   0.00000  Uiso   1.00
C716   C     0.13349   0.30870   0.73441   0.00000  Uiso   1.00
C717   C     0.16544   0.16697   0.66445   0.00000  Uiso   1.00
C718   C     0.16789   0.16637   0.83555   0.00000  Uiso   1.00
C719   C     0.19605   0.13599   0.90795   0.00000  Uiso   1.00
C720   C     0.13728   0.19735   0.59205   0.00000  Uiso   1.00
C721   C     0.16902   0.16574   0.88387   0.00000  Uiso   1.00
C722   C     0.16431   0.16759   0.61613   0.00000  Uiso   1.00
C723   C     0.14198   0.19535   0.90586   0.00000  Uiso   1.00
C724   C     0.19134   0.13796   0.59414   0.00000  Uiso   1.00
C725   C     0.14066   0.19559   0.95189   0.00000  Uiso   1.00
C726   C     0.19265   0.13772   0.54811   0.00000  Uiso   1.00
C727   C     0.16728   0.16625   0.97665   0.00000  Uiso   1.00
C728   C     0.16604   0.16707   0.52335   0.00000  Uiso   1.00
C729   C     0.19525   0.13635   0.95482   0.00000  Uiso   1.00
C730   C     0.13807   0.19698   0.54518   0.00000  Uiso   1.00
C731   C     0.11281   0.22469   0.97343   0.00000  Uiso   1.00
C732   C     0.22050   0.10862   0.52657   0.00000  Uiso   1.00
Cu733  Cu    0.16667   0.21355   0.75000   0.00000  Uiso   1.00
Cu734  Cu    0.16667   0.11978   0.75000   0.00000  Uiso   1.00
H735   H     0.12130   0.21780   0.88686   0.00000  Uiso   1.00
H736   H     0.21201   0.11551   0.61314   0.00000  Uiso   1.00
H737   H     0.09200   0.24705   0.95460   0.00000  Uiso   1.00
H738   H     0.24130   0.08625   0.54540   0.00000  Uiso   1.00
H739   H     0.08888   0.24799   0.53449   0.00000  Uiso   1.00
H740   H     0.24444   0.08533   0.96551   0.00000  Uiso   1.00
H741   H     0.03723   0.09396   0.73071   0.00000  Uiso   1.00
H742   H     0.29610   0.23937   0.76929   0.00000  Uiso   1.00
H743   H     0.29567   0.09410   0.73032   0.00000  Uiso   1.00
H744   H     0.03766   0.23924   0.76967   0.00000  Uiso   1.00
H745   H     0.10700   0.04341   0.72118   0.00000  Uiso   1.00
H746   H     0.22633   0.28992   0.77882   0.00000  Uiso   1.00
H747   H     0.22656   0.04306   0.77777   0.00000  Uiso   1.00
H748   H     0.10677   0.29027   0.72223   0.00000  Uiso   1.00
N749   N     0.16667   0.28402   0.75000   0.00000  Uiso   1.00
N750   N     0.16667   0.04931   0.75000   0.00000  Uiso   1.00
O751   O     0.10655   0.20625   0.74999   0.00000  Uiso   1.00
O752   O     0.22679   0.12709   0.75000   0.00000  Uiso   1.00
O753   O     0.22679   0.20625   0.75000   0.00000  Uiso   1.00
O754   O     0.10655   0.12709   0.74999   0.00000  Uiso   1.00
O755   O     0.16666   0.20627   0.68513   0.00000  Uiso   1.00
O756   O     0.16668   0.12707   0.81487   0.00000  Uiso   1.00
O757   O     0.16668   0.20627   0.81487   0.00000  Uiso   1.00
O758   O     0.16666   0.12707   0.68513   0.00000  Uiso   1.00
C759   C     0.22665   0.10688   0.88448   0.00000  Uiso   1.00
C760   C     0.22173   0.05809   0.88279   0.00000  Uiso   1.00
C761   C     0.25256   0.03038   0.86436   0.00000  Uiso   1.00
C762   C     0.28815   0.05122   0.84708   0.00000  Uiso   1.00
C763   C     0.29301   0.09979   0.84833   0.00000  Uiso   1.00
C764   C     0.26231   0.12764   0.86680   0.00000  Uiso   1.00
H765   H     0.19448   0.04160   0.89656   0.00000  Uiso   1.00
H766   H     0.24883   0.32609   0.86339   0.00000  Uiso   1.00
H767   H     0.31196   0.02975   0.83274   0.00000  Uiso   1.00
H768   H     0.32076   0.11585   0.83539   0.00000  Uiso   1.00
H769   H     0.26666   0.16518   0.86817   0.00000  Uiso   1.00
C770   C     0.10673   0.22652   0.61552   0.00000  Uiso   1.00
C771   C     0.07106   0.20582   0.63323   0.00000  Uiso   1.00
C772   C     0.04039   0.23373   0.65169   0.00000  Uiso   1.00
C773   C     0.04529   0.28230   0.65289   0.00000  Uiso   1.00
C774   C     0.08090   0.30308   0.63558   0.00000  Uiso   1.00
C775   C     0.11169   0.27530   0.61716   0.00000  Uiso   1.00
H776   H     0.06666   0.16829   0.63190   0.00000  Uiso   1.00
H777   H     0.01263   0.21772   0.66466   0.00000  Uiso   1.00
H778   H     0.02152   0.30382   0.66722   0.00000  Uiso   1.00
H779   H     0.08467   0.00736   0.63651   0.00000  Uiso   1.00
H780   H     0.13895   0.29174   0.60336   0.00000  Uiso   1.00
C781   C     0.42070   0.16663   0.75011   0.00000  Uiso   1.00
C782   C     0.57929   0.16670   0.74988   0.00000  Uiso   1.00
C783   C     0.44462   0.22523   0.51946   0.00000  Uiso   1.00
C784   C     0.55536   0.10809   0.98054   0.00000  Uiso   1.00
C785   C     0.35454   0.12578   0.73933   0.00000  Uiso   1.00
C786   C     0.64546   0.20756   0.76067   0.00000  Uiso   1.00
C787   C     0.64523   0.12589   0.73898   0.00000  Uiso   1.00
C788   C     0.35477   0.20744   0.76101   0.00000  Uiso   1.00
C789   C     0.62391   0.16676   0.74973   0.00000  Uiso   1.00
C790   C     0.37609   0.16657   0.75027   0.00000  Uiso   1.00
C791   C     0.46688   0.02488   0.73417   0.00000  Uiso   1.00
C792   C     0.53312   0.30845   0.76583   0.00000  Uiso   1.00
C793   C     0.53318   0.02464   0.76559   0.00000  Uiso   1.00
C794   C     0.46682   0.30870   0.73441   0.00000  Uiso   1.00
C795   C     0.49877   0.16697   0.66445   0.00000  Uiso   1.00
C796   C     0.50122   0.16637   0.83555   0.00000  Uiso   1.00
C797   C     0.52938   0.13599   0.90795   0.00000  Uiso   1.00
C798   C     0.47062   0.19735   0.59205   0.00000  Uiso   1.00
C799   C     0.50235   0.16574   0.88387   0.00000  Uiso   1.00
C800   C     0.49764   0.16759   0.61613   0.00000  Uiso   1.00
C801   C     0.47531   0.19535   0.90586   0.00000  Uiso   1.00
C802   C     0.52467   0.13796   0.59414   0.00000  Uiso   1.00
C803   C     0.47400   0.19559   0.95189   0.00000  Uiso   1.00
C804   C     0.52598   0.13772   0.54811   0.00000  Uiso   1.00
C805   C     0.50061   0.16625   0.97665   0.00000  Uiso   1.00
C806   C     0.49937   0.16707   0.52335   0.00000  Uiso   1.00
C807   C     0.52859   0.13635   0.95482   0.00000  Uiso   1.00
C808   C     0.47140   0.19698   0.54518   0.00000  Uiso   1.00
C809   C     0.44614   0.22469   0.97343   0.00000  Uiso   1.00
C810   C     0.55383   0.10862   0.52657   0.00000  Uiso   1.00
Cu811  Cu    0.50000   0.21355   0.75000   0.00000  Uiso   1.00
Cu812  Cu    0.50000   0.11978   0.75000   0.00000  Uiso   1.00
H813   H     0.45463   0.21780   0.88686   0.00000  Uiso   1.00
H814   H     0.54534   0.11551   0.61314   0.00000  Uiso   1.00
H815   H     0.42534   0.24705   0.95460   0.00000  Uiso   1.00
H816   H     0.57464   0.08625   0.54540   0.00000  Uiso   1.00
H817   H     0.42221   0.24799   0.53449   0.00000  Uiso   1.00
H818   H     0.57778   0.08533   0.96551   0.00000  Uiso   1.00
H819   H     0.37057   0.09396   0.73071   0.00000  Uiso   1.00
H820   H     0.62943   0.23937   0.76929   0.00000  Uiso   1.00
H821   H     0.62900   0.09410   0.73032   0.00000  Uiso   1.00
H822   H     0.37100   0.23924   0.76967   0.00000  Uiso   1.00
H823   H     0.44034   0.04341   0.72118   0.00000  Uiso   1.00
H824   H     0.55966   0.28992   0.77882   0.00000  Uiso   1.00
H825   H     0.55990   0.04306   0.77777   0.00000  Uiso   1.00
H826   H     0.44010   0.29027   0.72223   0.00000  Uiso   1.00
N827   N     0.50000   0.28402   0.75000   0.00000  Uiso   1.00
N828   N     0.50000   0.04931   0.75000   0.00000  Uiso   1.00
O829   O     0.43988   0.20625   0.74999   0.00000  Uiso   1.00
O830   O     0.56012   0.12709   0.75000   0.00000  Uiso   1.00
O831   O     0.56012   0.20625   0.75000   0.00000  Uiso   1.00
O832   O     0.43988   0.12709   0.74999   0.00000  Uiso   1.00
O833   O     0.49999   0.20627   0.68513   0.00000  Uiso   1.00
O834   O     0.50001   0.12707   0.81487   0.00000  Uiso   1.00
O835   O     0.50001   0.20627   0.81487   0.00000  Uiso   1.00
O836   O     0.49999   0.12707   0.68513   0.00000  Uiso   1.00
C837   C     0.55998   0.10688   0.88448   0.00000  Uiso   1.00
C838   C     0.55507   0.05809   0.88279   0.00000  Uiso   1.00
C839   C     0.58590   0.03038   0.86436   0.00000  Uiso   1.00
C840   C     0.62149   0.05122   0.84708   0.00000  Uiso   1.00
C841   C     0.62635   0.09979   0.84833   0.00000  Uiso   1.00
C842   C     0.59564   0.12764   0.86680   0.00000  Uiso   1.00
H843   H     0.52782   0.04160   0.89656   0.00000  Uiso   1.00
H844   H     0.58216   0.32609   0.86339   0.00000  Uiso   1.00
H845   H     0.64529   0.02975   0.83274   0.00000  Uiso   1.00
H846   H     0.65409   0.11585   0.83539   0.00000  Uiso   1.00
H847   H     0.59999   0.16518   0.86817   0.00000  Uiso   1.00
C848   C     0.44006   0.22652   0.61552   0.00000  Uiso   1.00
C849   C     0.40439   0.20582   0.63323   0.00000  Uiso   1.00
C850   C     0.37372   0.23373   0.65169   0.00000  Uiso   1.00
C851   C     0.37863   0.28230   0.65289   0.00000  Uiso   1.00
C852   C     0.41423   0.30308   0.63558   0.00000  Uiso   1.00
C853   C     0.44503   0.27530   0.61716   0.00000  Uiso   1.00
H854   H     0.40000   0.16829   0.63190   0.00000  Uiso   1.00
H855   H     0.34596   0.21772   0.66466   0.00000  Uiso   1.00
H856   H     0.35485   0.30382   0.66722   0.00000  Uiso   1.00
H857   H     0.41801   0.00736   0.63651   0.00000  Uiso   1.00
H858   H     0.47229   0.29174   0.60336   0.00000  Uiso   1.00
C859   C     0.75404   0.16663   0.75011   0.00000  Uiso   1.00
C860   C     0.91263   0.16670   0.74988   0.00000  Uiso   1.00
C861   C     0.77795   0.22523   0.51946   0.00000  Uiso   1.00
C862   C     0.88870   0.10809   0.98054   0.00000  Uiso   1.00
C863   C     0.68788   0.12578   0.73933   0.00000  Uiso   1.00
C864   C     0.97879   0.20756   0.76067   0.00000  Uiso   1.00
C865   C     0.97856   0.12589   0.73898   0.00000  Uiso   1.00
C866   C     0.68811   0.20744   0.76101   0.00000  Uiso   1.00
C867   C     0.95724   0.16676   0.74973   0.00000  Uiso   1.00
C868   C     0.70943   0.16657   0.75027   0.00000  Uiso   1.00
C869   C     0.80021   0.02488   0.73417   0.00000  Uiso   1.00
C870   C     0.86645   0.30845   0.76583   0.00000  Uiso   1.00
C871   C     0.86651   0.02464   0.76559   0.00000  Uiso   1.00
C872   C     0.80015   0.30870   0.73441   0.00000  Uiso   1.00
C873   C     0.83211   0.16697   0.66445   0.00000  Uiso   1.00
C874   C     0.83456   0.16637   0.83555   0.00000  Uiso   1.00
C875   C     0.86272   0.13599   0.90795   0.00000  Uiso   1.00
C876   C     0.80395   0.19735   0.59205   0.00000  Uiso   1.00
C877   C     0.83569   0.16574   0.88387   0.00000  Uiso   1.00
C878   C     0.83097   0.16759   0.61613   0.00000  Uiso   1.00
C879   C     0.80864   0.19535   0.90586   0.00000  Uiso   1.00
C880   C     0.85800   0.13796   0.59414   0.00000  Uiso   1.00
C881   C     0.80733   0.19559   0.95189   0.00000  Uiso   1.00
C882   C     0.85932   0.13772   0.54811   0.00000  Uiso   1.00
C883   C     0.83394   0.16625   0.97665   0.00000  Uiso   1.00
C884   C     0.83270   0.16707   0.52335   0.00000  Uiso   1.00
C885   C     0.86192   0.13635   0.95482   0.00000  Uiso   1.00
C886   C     0.80473   0.19698   0.54518   0.00000  Uiso   1.00
C887   C     0.77948   0.22469   0.97343   0.00000  Uiso   1.00
C888   C     0.88717   0.10862   0.52657   0.00000  Uiso   1.00
Cu889  Cu    0.83333   0.21355   0.75000   0.00000  Uiso   1.00
Cu890  Cu    0.83333   0.11978   0.75000   0.00000  Uiso   1.00
H891   H     0.78796   0.21780   0.88686   0.00000  Uiso   1.00
H892   H     0.87868   0.11551   0.61314   0.00000  Uiso   1.00
H893   H     0.75867   0.24705   0.95460   0.00000  Uiso   1.00
H894   H     0.90797   0.08625   0.54540   0.00000  Uiso   1.00
H895   H     0.75554   0.24799   0.53449   0.00000  Uiso   1.00
H896   H     0.91111   0.08533   0.96551   0.00000  Uiso   1.00
H897   H     0.70390   0.09396   0.73071   0.00000  Uiso   1.00
H898   H     0.96276   0.23937   0.76929   0.00000  Uiso   1.00
H899   H     0.96234   0.09410   0.73032   0.00000  Uiso   1.00
H900   H     0.70433   0.23924   0.76967   0.00000  Uiso   1.00
H901   H     0.77367   0.04341   0.72118   0.00000  Uiso   1.00
H902   H     0.89300   0.28992   0.77882   0.00000  Uiso   1.00
H903   H     0.89323   0.04306   0.77777   0.00000  Uiso   1.00
H904   H     0.77344   0.29027   0.72223   0.00000  Uiso   1.00
N905   N     0.83333   0.28402   0.75000   0.00000  Uiso   1.00
N906   N     0.83333   0.04931   0.75000   0.00000  Uiso   1.00
O907   O     0.77321   0.20625   0.74999   0.00000  Uiso   1.00
O908   O     0.89345   0.12709   0.75000   0.00000  Uiso   1.00
O909   O     0.89345   0.20625   0.75000   0.00000  Uiso   1.00
O910   O     0.77321   0.12709   0.74999   0.00000  Uiso   1.00
O911   O     0.83332   0.20627   0.68513   0.00000  Uiso   1.00
O912   O     0.83334   0.12707   0.81487   0.00000  Uiso   1.00
O913   O     0.83334   0.20627   0.81487   0.00000  Uiso   1.00
O914   O     0.83332   0.12707   0.68513   0.00000  Uiso   1.00
C915   C     0.89332   0.10688   0.88448   0.00000  Uiso   1.00
C916   C     0.88840   0.05809   0.88279   0.00000  Uiso   1.00
C917   C     0.91923   0.03038   0.86436   0.00000  Uiso   1.00
C918   C     0.95482   0.05122   0.84708   0.00000  Uiso   1.00
C919   C     0.95968   0.09979   0.84833   0.00000  Uiso   1.00
C920   C     0.92897   0.12764   0.86680   0.00000  Uiso   1.00
H921   H     0.86115   0.04160   0.89656   0.00000  Uiso   1.00
H922   H     0.91550   0.32609   0.86339   0.00000  Uiso   1.00
H923   H     0.97863   0.02975   0.83274   0.00000  Uiso   1.00
H924   H     0.98743   0.11585   0.83539   0.00000  Uiso   1.00
H925   H     0.93333   0.16518   0.86817   0.00000  Uiso   1.00
C926   C     0.77340   0.22652   0.61552   0.00000  Uiso   1.00
C927   C     0.73772   0.20582   0.63323   0.00000  Uiso   1.00
C928   C     0.70706   0.23373   0.65169   0.00000  Uiso   1.00
C929   C     0.71196   0.28230   0.65289   0.00000  Uiso   1.00
C930   C     0.74757   0.30308   0.63558   0.00000  Uiso   1.00
C931   C     0.77836   0.27530   0.61716   0.00000  Uiso   1.00
H932   H     0.73333   0.16829   0.63190   0.00000  Uiso   1.00
H933   H     0.67930   0.21772   0.66466   0.00000  Uiso   1.00
H934   H     0.68818   0.30382   0.66722   0.00000  Uiso   1.00
H935   H     0.75134   0.00736   0.63651   0.00000  Uiso   1.00
H936   H     0.80562   0.29174   0.60336   0.00000  Uiso   1.00
C937   C     0.08737   0.49996   0.75011   0.00000  Uiso   1.00
C938   C     0.24596   0.50004   0.74988   0.00000  Uiso   1.00
C939   C     0.11129   0.55856   0.51946   0.00000  Uiso   1.00
C940   C     0.22203   0.44143   0.98054   0.00000  Uiso   1.00
C941   C     0.02121   0.45911   0.73933   0.00000  Uiso   1.00
C942   C     0.31212   0.54089   0.76067   0.00000  Uiso   1.00
C943   C     0.31189   0.45923   0.73898   0.00000  Uiso   1.00
C944   C     0.02144   0.54077   0.76101   0.00000  Uiso   1.00
C945   C     0.29057   0.50010   0.74973   0.00000  Uiso   1.00
C946   C     0.04276   0.49990   0.75027   0.00000  Uiso   1.00
C947   C     0.13355   0.35822   0.73417   0.00000  Uiso   1.00
C948   C     0.19979   0.64178   0.76583   0.00000  Uiso   1.00
C949   C     0.19985   0.35797   0.76559   0.00000  Uiso   1.00
C950   C     0.13349   0.64203   0.73441   0.00000  Uiso   1.00
C951   C     0.16544   0.50030   0.66445   0.00000  Uiso   1.00
C952   C     0.16789   0.49970   0.83555   0.00000  Uiso   1.00
C953   C     0.19605   0.46932   0.90795   0.00000  Uiso   1.00
C954   C     0.13728   0.53068   0.59205   0.00000  Uiso   1.00
C955   C     0.16902   0.49908   0.88387   0.00000  Uiso   1.00
C956   C     0.16431   0.50092   0.61613   0.00000  Uiso   1.00
C957   C     0.14198   0.52869   0.90586   0.00000  Uiso   1.00
C958   C     0.19134   0.47130   0.59414   0.00000  Uiso   1.00
C959   C     0.14066   0.52892   0.95189   0.00000  Uiso   1.00
C960   C     0.19265   0.47106   0.54811   0.00000  Uiso   1.00
C961   C     0.16728   0.49958   0.97665   0.00000  Uiso   1.00
C962   C     0.16604   0.50040   0.52335   0.00000  Uiso   1.00
C963   C     0.19525   0.46968   0.95482   0.00000  Uiso   1.00
C964   C     0.13807   0.53031   0.54518   0.00000  Uiso   1.00
C965   C     0.11281   0.55802   0.97343   0.00000  Uiso   1.00
C966   C     0.22050   0.44196   0.52657   0.00000  Uiso   1.00
Cu967  Cu    0.16667   0.54689   0.75000   0.00000  Uiso   1.00
Cu968  Cu    0.16667   0.45311   0.75000   0.00000  Uiso   1.00
H969   H     0.12130   0.55113   0.88686   0.00000  Uiso   1.00
H970   H     0.21201   0.44885   0.61314   0.00000  Uiso   1.00
H971   H     0.09200   0.58039   0.95460   0.00000  Uiso   1.00
H972   H     0.24130   0.41959   0.54540   0.00000  Uiso   1.00
H973   H     0.08888   0.58132   0.53449   0.00000  Uiso   1.00
H974   H     0.24444   0.41866   0.96551   0.00000  Uiso   1.00
H975   H     0.03723   0.42729   0.73071   0.00000  Uiso   1.00
H976   H     0.29610   0.57271   0.76929   0.00000  Uiso   1.00
H977   H     0.29567   0.42743   0.73032   0.00000  Uiso   1.00
H978   H     0.03766   0.57257   0.76967   0.00000  Uiso   1.00
H979   H     0.10700   0.37675   0.72118   0.00000  Uiso   1.00
H980   H     0.22633   0.62325   0.77882   0.00000  Uiso   1.00
H981   H     0.22656   0.37640   0.77777   0.00000  Uiso   1.00
H982   H     0.10677   0.62360   0.72223   0.00000  Uiso   1.00
N983   N     0.16667   0.61736   0.75000   0.00000  Uiso   1.00
N984   N     0.16667   0.38264   0.75000   0.00000  Uiso   1.00
O985   O     0.10655   0.53958   0.74999   0.00000  Uiso   1.00
O986   O     0.22679   0.46042   0.75000   0.00000  Uiso   1.00
O987   O     0.22679   0.53958   0.75000   0.00000  Uiso   1.00
O988   O     0.10655   0.46042   0.74999   0.00000  Uiso   1.00
O989   O     0.16666   0.53960   0.68513   0.00000  Uiso   1.00
O990   O     0.16668   0.46040   0.81487   0.00000  Uiso   1.00
O991   O     0.16668   0.53960   0.81487   0.00000  Uiso   1.00
O992   O     0.16666   0.46040   0.68513   0.00000  Uiso   1.00
C993   C     0.22665   0.44021   0.88448   0.00000  Uiso   1.00
C994   C     0.22173   0.39143   0.88279   0.00000  Uiso   1.00
C995   C     0.25256   0.36371   0.86436   0.00000  Uiso   1.00
C996   C     0.28815   0.38455   0.84708   0.00000  Uiso   1.00
C997   C     0.29301   0.43313   0.84833   0.00000  Uiso   1.00
C998   C     0.26231   0.46097   0.86680   0.00000  Uiso   1.00
H999   H     0.19448   0.37493   0.89656   0.00000  Uiso   1.00
H1000  H     0.24883   0.65942   0.86339   0.00000  Uiso   1.00
H1001  H     0.31196   0.36308   0.83274   0.00000  Uiso   1.00
H1002  H     0.32076   0.44919   0.83539   0.00000  Uiso   1.00
H1003  H     0.26666   0.49851   0.86817   0.00000  Uiso   1.00
C1004  C     0.10673   0.55985   0.61552   0.00000  Uiso   1.00
C1005  C     0.07106   0.53916   0.63323   0.00000  Uiso   1.00
C1006  C     0.04039   0.56706   0.65169   0.00000  Uiso   1.00
C1007  C     0.04529   0.61563   0.65289   0.00000  Uiso   1.00
C1008  C     0.08090   0.63641   0.63558   0.00000  Uiso   1.00
C1009  C     0.11169   0.60863   0.61716   0.00000  Uiso   1.00
H1010  H     0.06666   0.50162   0.63190   0.00000  Uiso   1.00
H1011  H     0.01263   0.55105   0.66466   0.00000  Uiso   1.00
H1012  H     0.02152   0.63715   0.66722   0.00000  Uiso   1.00
H1013  H     0.08467   0.34069   0.63651   0.00000  Uiso   1.00
H1014  H     0.13895   0.62508   0.60336   0.00000  Uiso   1.00
C1015  C     0.42070   0.49996   0.75011   0.00000  Uiso   1.00
C1016  C     0.57929   0.50004   0.74988   0.00000  Uiso   1.00
C1017  C     0.44462   0.55856   0.51946   0.00000  Uiso   1.00
C1018  C     0.55536   0.44143   0.98054   0.00000  Uiso   1.00
C1019  C     0.35454   0.45911   0.73933   0.00000  Uiso   1.00
C1020  C     0.64546   0.54089   0.76067   0.00000  Uiso   1.00
C1021  C     0.64523   0.45923   0.73898   0.00000  Uiso   1.00
C1022  C     0.35477   0.54077   0.76101   0.00000  Uiso   1.00
C1023  C     0.62391   0.50010   0.74973   0.00000  Uiso   1.00
C1024  C     0.37609   0.49990   0.75027   0.00000  Uiso   1.00
C1025  C     0.46688   0.35822   0.73417   0.00000  Uiso   1.00
C1026  C     0.53312   0.64178   0.76583   0.00000  Uiso   1.00
C1027  C     0.53318   0.35797   0.76559   0.00000  Uiso   1.00
C1028  C     0.46682   0.64203   0.73441   0.00000  Uiso   1.00
C1029  C     0.49877   0.50030   0.66445   0.00000  Uiso   1.00
C1030  C     0.50122   0.49970   0.83555   0.00000  Uiso   1.00
C1031  C     0.52938   0.46932   0.90795   0.00000  Uiso   1.00
C1032  C     0.47062   0.53068   0.59205   0.00000  Uiso   1.00
C1033  C     0.50235   0.49908   0.88387   0.00000  Uiso   1.00
C1034  C     0.49764   0.50092   0.61613   0.00000  Uiso   1.00
C1035  C     0.47531   0.52869   0.90586   0.00000  Uiso   1.00
C1036  C     0.52467   0.47130   0.59414   0.00000  Uiso   1.00
C1037  C     0.47400   0.52892   0.95189   0.00000  Uiso   1.00
C1038  C     0.52598   0.47106   0.54811   0.00000  Uiso   1.00
C1039  C     0.50061   0.49958   0.97665   0.00000  Uiso   1.00
C1040  C     0.49937   0.50040   0.52335   0.00000  Uiso   1.00
C1041  C     0.52859   0.46968   0.95482   0.00000  Uiso   1.00
C1042  C     0.47140   0.53031   0.54518   0.00000  Uiso   1.00
C1043  C     0.44614   0.55802   0.97343   0.00000  Uiso   1.00
C1044  C     0.55383   0.44196   0.52657   0.00000  Uiso   1.00
Cu1045 Cu    0.50000   0.54689   0.75000   0.00000  Uiso   1.00
Cu1046 Cu    0.50000   0.45311   0.75000   0.00000  Uiso   1.00
H1047  H     0.45463   0.55113   0.88686   0.00000  Uiso   1.00
H1048  H     0.54534   0.44885   0.61314   0.00000  Uiso   1.00
H1049  H     0.42534   0.58039   0.95460   0.00000  Uiso   1.00
H1050  H     0.57464   0.41959   0.54540   0.00000  Uiso   1.00
H1051  H     0.42221   0.58132   0.53449   0.00000  Uiso   1.00
H1052  H     0.57778   0.41866   0.96551   0.00000  Uiso   1.00
H1053  H     0.37057   0.42729   0.73071   0.00000  Uiso   1.00
H1054  H     0.62943   0.57271   0.76929   0.00000  Uiso   1.00
H1055  H     0.62900   0.42743   0.73032   0.00000  Uiso   1.00
H1056  H     0.37100   0.57257   0.76967   0.00000  Uiso   1.00
H1057  H     0.44034   0.37675   0.72118   0.00000  Uiso   1.00
H1058  H     0.55966   0.62325   0.77882   0.00000  Uiso   1.00
H1059  H     0.55990   0.37640   0.77777   0.00000  Uiso   1.00
H1060  H     0.44010   0.62360   0.72223   0.00000  Uiso   1.00
N1061  N     0.50000   0.61736   0.75000   0.00000  Uiso   1.00
N1062  N     0.50000   0.38264   0.75000   0.00000  Uiso   1.00
O1063  O     0.43988   0.53958   0.74999   0.00000  Uiso   1.00
O1064  O     0.56012   0.46042   0.75000   0.00000  Uiso   1.00
O1065  O     0.56012   0.53958   0.75000   0.00000  Uiso   1.00
O1066  O     0.43988   0.46042   0.74999   0.00000  Uiso   1.00
O1067  O     0.49999   0.53960   0.68513   0.00000  Uiso   1.00
O1068  O     0.50001   0.46040   0.81487   0.00000  Uiso   1.00
O1069  O     0.50001   0.53960   0.81487   0.00000  Uiso   1.00
O1070  O     0.49999   0.46040   0.68513   0.00000  Uiso   1.00
C1071  C     0.55998   0.44021   0.88448   0.00000  Uiso   1.00
C1072  C     0.55507   0.39143   0.88279   0.00000  Uiso   1.00
C1073  C     0.58590   0.36371   0.86436   0.00000  Uiso   1.00
C1074  C     0.62149   0.38455   0.84708   0.00000  Uiso   1.00
C1075  C     0.62635   0.43313   0.84833   0.00000  Uiso   1.00
C1076  C     0.59564   0.46097   0.86680   0.00000  Uiso   1.00
H1077  H     0.52782   0.37493   0.89656   0.00000  Uiso   1.00
H1078  H     0.58216   0.65942   0.86339   0.00000  Uiso   1.00
H1079  H     0.64529   0.36308   0.83274   0.00000  Uiso   1.00
H1080  H     0.65409   0.44919   0.83539   0.00000  Uiso   1.00
H1081  H     0.59999   0.49851   0.86817   0.00000  Uiso   1.00
C1082  C     0.44006   0.55985   0.61552   0.00000  Uiso   1.00
C1083  C     0.40439   0.53916   0.63323   0.00000  Uiso   1.00
C1084  C     0.37372   0.56706   0.65169   0.00000  Uiso   1.00
C1085  C     0.37863   0.61563   0.65289   0.00000  Uiso   1.00
C1086  C     0.41423   0.63641   0.63558   0.00000  Uiso   1.00
C1087  C     0.44503   0.60863   0.61716   0.00000  Uiso   1.00
H1088  H     0.40000   0.50162   0.63190   0.00000  Uiso   1.00
H1089  H     0.34596   0.55105   0.66466   0.00000  Uiso   1.00
H1090  H     0.35485   0.63715   0.66722   0.00000  Uiso   1.00
H1091  H     0.41801   0.34069   0.63651   0.00000  Uiso   1.00
H1092  H     0.47229   0.62508   0.60336   0.00000  Uiso   1.00
C1093  C     0.75404   0.49996   0.75011   0.00000  Uiso   1.00
C1094  C     0.91263   0.50004   0.74988   0.00000  Uiso   1.00
C1095  C     0.77795   0.55856   0.51946   0.00000  Uiso   1.00
C1096  C     0.88870   0.44143   0.98054   0.00000  Uiso   1.00
C1097  C     0.68788   0.45911   0.73933   0.00000  Uiso   1.00
C1098  C     0.97879   0.54089   0.76067   0.00000  Uiso   1.00
C1099  C     0.97856   0.45923   0.73898   0.00000  Uiso   1.00
C1100  C     0.68811   0.54077   0.76101   0.00000  Uiso   1.00
C1101  C     0.95724   0.50010   0.74973   0.00000  Uiso   1.00
C1102  C     0.70943   0.49990   0.75027   0.00000  Uiso   1.00
C1103  C     0.80021   0.35822   0.73417   0.00000  Uiso   1.00
C1104  C     0.86645   0.64178   0.76583   0.00000  Uiso   1.00
C1105  C     0.86651   0.35797   0.76559   0.00000  Uiso   1.00
C1106  C     0.80015   0.64203   0.73441   0.00000  Uiso   1.00
C1107  C     0.83211   0.50030   0.66445   0.00000  Uiso   1.00
C1108  C     0.83456   0.49970   0.83555   0.00000  Uiso   1.00
C1109  C     0.86272   0.46932   0.90795   0.00000  Uiso   1.00
C1110  C     0.80395   0.53068   0.59205   0.00000  Uiso   1.00
C1111  C     0.83569   0.49908   0.88387   0.00000  Uiso   1.00
C1112  C     0.83097   0.50092   0.61613   0.00000  Uiso   1.00
C1113  C     0.80864   0.52869   0.90586   0.00000  Uiso   1.00
C1114  C     0.85800   0.47130   0.59414   0.00000  Uiso   1.00
C1115  C     0.80733   0.52892   0.95189   0.00000  Uiso   1.00
C1116  C     0.85932   0.47106   0.54811   0.00000  Uiso   1.00
C1117  C     0.83394   0.49958   0.97665   0.00000  Uiso   1.00
C1118  C     0.83270   0.50040   0.52335   0.00000  Uiso   1.00
C1119  C     0.86192   0.46968   0.95482   0.00000  Uiso   1.00
C1120  C     0.80473   0.53031   0.54518   0.00000  Uiso   1.00
C1121  C     0.77948   0.55802   0.97343   0.00000  Uiso   1.00
C1122  C     0.88717   0.44196   0.52657   0.00000  Uiso   1.00
Cu1123 Cu    0.83333   0.54689   0.75000   0.00000  Uiso   1.00
Cu1124 Cu    0.83333   0.45311   0.75000   0.00000  Uiso   1.00
H1125  H     0.78796   0.55113   0.88686   0.00000  Uiso   1.00
H1126  H     0.87868   0.44885   0.61314   0.00000  Uiso   1.00
H1127  H     0.75867   0.58039   0.95460   0.00000  Uiso   1.00
H1128  H     0.90797   0.41959   0.54540   0.00000  Uiso   1.00
H1129  H     0.75554   0.58132   0.53449   0.00000  Uiso   1.00
H1130  H     0.91111   0.41866   0.96551   0.00000  Uiso   1.00
H1131  H     0.70390   0.42729   0.73071   0.00000  Uiso   1.00
H1132  H     0.96276   0.57271   0.76929   0.00000  Uiso   1.00
H1133  H     0.96234   0.42743   0.73032   0.00000  Uiso   1.00
H1134  H     0.70433   0.57257   0.76967   0.00000  Uiso   1.00
H1135  H     0.77367   0.37675   0.72118   0.00000  Uiso   1.00
H1136  H     0.89300   0.62325   0.77882   0.00000  Uiso   1.00
H1137  H     0.89323   0.37640   0.77777   0.00000  Uiso   1.00
H1138  H     0.77344   0.62360   0.72223   0.00000  Uiso   1.00
N1139  N     0.83333   0.61736   0.75000   0.00000  Uiso   1.00
N1140  N     0.83333   0.38264   0.75000   0.00000  Uiso   1.00
O1141  O     0.77321   0.53958   0.74999   0.00000  Uiso   1.00
O1142  O     0.89345   0.46042   0.75000   0.00000  Uiso   1.00
O1143  O     0.89345   0.53958   0.75000   0.00000  Uiso   1.00
O1144  O     0.77321   0.46042   0.74999   0.00000  Uiso   1.00
O1145  O     0.83332   0.53960   0.68513   0.00000  Uiso   1.00
O1146  O     0.83334   0.46040   0.81487   0.00000  Uiso   1.00
O1147  O     0.83334   0.53960   0.81487   0.00000  Uiso   1.00
O1148  O     0.83332   0.46040   0.68513   0.00000  Uiso   1.00
C1149  C     0.89332   0.44021   0.88448   0.00000  Uiso   1.00
C1150  C     0.88840   0.39143   0.88279   0.00000  Uiso   1.00
C1151  C     0.91923   0.36371   0.86436   0.00000  Uiso   1.00
C1152  C     0.95482   0.38455   0.84708   0.00000  Uiso   1.00
C1153  C     0.95968   0.43313   0.84833   0.00000  Uiso   1.00
C1154  C     0.92897   0.46097   0.86680   0.00000  Uiso   1.00
H1155  H     0.86115   0.37493   0.89656   0.00000  Uiso   1.00
H1156  H     0.91550   0.65942   0.86339   0.00000  Uiso   1.00
H1157  H     0.97863   0.36308   0.83274   0.00000  Uiso   1.00
H1158  H     0.98743   0.44919   0.83539   0.00000  Uiso   1.00
H1159  H     0.93333   0.49851   0.86817   0.00000  Uiso   1.00
C1160  C     0.77340   0.55985   0.61552   0.00000  Uiso   1.00
C1161  C     0.73772   0.53916   0.63323   0.00000  Uiso   1.00
C1162  C     0.70706   0.56706   0.65169   0.00000  Uiso   1.00
C1163  C     0.71196   0.61563   0.65289   0.00000  Uiso   1.00
C1164  C     0.74757   0.63641   0.63558   0.00000  Uiso   1.00
C1165  C     0.77836   0.60863   0.61716   0.00000  Uiso   1.00
H1166  H     0.73333   0.50162   0.63190   0.00000  Uiso   1.00
H1167  H     0.67930   0.55105   0.66466   0.00000  Uiso   1.00
H1168  H     0.68818   0.63715   0.66722   0.00000  Uiso   1.00
H1169  H     0.75134   0.34069   0.63651   0.00000  Uiso   1.00
H1170  H     0.80562   0.62508   0.60336   0.00000  Uiso   1.00
C1171  C     0.08737   0.83330   0.75011   0.00000  Uiso   1.00
C1172  C     0.24596   0.83337   0.74988   0.00000  Uiso   1.00
C1173  C     0.11129   0.89189   0.51946   0.00000  Uiso   1.00
C1174  C     0.22203   0.77476   0.98054   0.00000  Uiso   1.00
C1175  C     0.02121   0.79244   0.73933   0.00000  Uiso   1.00
C1176  C     0.31212   0.87422   0.76067   0.00000  Uiso   1.00
C1177  C     0.31189   0.79256   0.73898   0.00000  Uiso   1.00
C1178  C     0.02144   0.87411   0.76101   0.00000  Uiso   1.00
C1179  C     0.29057   0.83343   0.74973   0.00000  Uiso   1.00
C1180  C     0.04276   0.83324   0.75027   0.00000  Uiso   1.00
C1181  C     0.13355   0.69155   0.73417   0.00000  Uiso   1.00
C1182  C     0.19979   0.97512   0.76583   0.00000  Uiso   1.00
C1183  C     0.19985   0.69130   0.76559   0.00000  Uiso   1.00
C1184  C     0.13349   0.97536   0.73441   0.00000  Uiso   1.00
C1185  C     0.16544   0.83363   0.66445   0.00000  Uiso   1.00
C1186  C     0.16789   0.83303   0.83555   0.00000  Uiso   1.00
C1187  C     0.19605   0.80266   0.90795   0.00000  Uiso   1.00
C1188  C     0.13728   0.86402   0.59205   0.00000  Uiso   1.00
C1189  C     0.16902   0.83241   0.88387   0.00000  Uiso   1.00
C1190  C     0.16431   0.83425   0.61613   0.00000  Uiso   1.00
C1191  C     0.14198   0.86202   0.90586   0.00000  Uiso   1.00
C1192  C     0.19134   0.80463   0.59414   0.00000  Uiso   1.00
C1193  C     0.14066   0.86225   0.95189   0.00000  Uiso   1.00
C1194  C     0.19265   0.80439   0.54811   0.00000  Uiso   1.00
C1195  C     0.16728   0.83291   0.97665   0.00000  Uiso   1.00
C1196  C     0.16604   0.83373   0.52335   0.00000  Uiso   1.00
C1197  C     0.19525   0.80301   0.95482   0.00000  Uiso   1.00
C1198  C     0.13807   0.86364   0.54518   0.00000  Uiso   1.00
C1199  C     0.11281   0.89135   0.97343   0.00000  Uiso   1.00
C1200  C     0.22050   0.77529   0.52657   0.00000  Uiso   1.00
Cu1201 Cu    0.16667   0.88022   0.75000   0.00000  Uiso   1.00
Cu1202 Cu    0.16667   0.78645   0.75000   0.00000  Uiso   1.00
H1203  H     0.12130   0.88446   0.88686   0.00000  Uiso   1.00
H1204  H     0.21201   0.78218   0.61314   0.00000  Uiso   1.00
H1205  H     0.09200   0.91372   0.95460   0.00000  Uiso   1.00
H1206  H     0.24130   0.75292   0.54540   0.00000  Uiso   1.00
H1207  H     0.08888   0.91466   0.53449   0.00000  Uiso   1.00
H1208  H     0.24444   0.75200   0.96551   0.00000  Uiso   1.00
H1209  H     0.03723   0.76063   0.73071   0.00000  Uiso   1.00
H1210  H     0.29610   0.90604   0.76929   0.00000  Uiso   1.00
H1211  H     0.29567   0.76076   0.73032   0.00000  Uiso   1.00
H1212  H     0.03766   0.90590   0.76967   0.00000  Uiso   1.00
H1213  H     0.10700   0.71008   0.72118   0.00000  Uiso   1.00
H1214  H     0.22633   0.95658   0.77882   0.00000  Uiso   1.00
H1215  H     0.22656   0.70973   0.77777   0.00000  Uiso   1.00
H1216  H     0.10677   0.95694   0.72223   0.00000  Uiso   1.00
N1217  N     0.16667   0.95069   0.75000   0.00000  Uiso   1.00
N1218  N     0.16667   0.71598   0.75000   0.00000  Uiso   1.00
O1219  O     0.10655   0.87291   0.74999   0.00000  Uiso   1.00
O1220  O     0.22679   0.79375   0.75000   0.00000  Uiso   1.00
O1221  O     0.22679   0.87291   0.75000   0.00000  Uiso   1.00
O1222  O     0.10655   0.79375   0.74999   0.00000  Uiso   1.00
O1223  O     0.16666   0.87293   0.68513   0.00000  Uiso   1.00
O1224  O     0.16668   0.79373   0.81487   0.00000  Uiso   1.00
O1225  O     0.16668   0.87293   0.81487   0.00000  Uiso   1.00
O1226  O     0.16666   0.79373   0.68513   0.00000  Uiso   1.00
C1227  C     0.22665   0.77355   0.88448   0.00000  Uiso   1.00
C1228  C     0.22173   0.72476   0.88279   0.00000  Uiso   1.00
C1229  C     0.25256   0.69704   0.86436   0.00000  Uiso   1.00
C1230  C     0.28815   0.71789   0.84708   0.00000  Uiso   1.00
C1231  C     0.29301   0.76646   0.84833   0.00000  Uiso   1.00
C1232  C     0.26231   0.79430   0.86680   0.00000  Uiso   1.00
H1233  H     0.19448   0.70827   0.89656   0.00000  Uiso   1.00
H1234  H     0.24883   0.99276   0.86339   0.00000  Uiso   1.00
H1235  H     0.31196   0.69641   0.83274   0.00000  Uiso   1.00
H1236  H     0.32076   0.78252   0.83539   0.00000  Uiso   1.00
H1237  H     0.26666   0.83185   0.86817   0.00000  Uiso   1.00
C1238  C     0.10673   0.89318   0.61552   0.00000  Uiso   1.00
C1239  C     0.07106   0.87249   0.63323   0.00000  Uiso   1.00
C1240  C     0.04039   0.90039   0.65169   0.00000  Uiso   1.00
C1241  C     0.04529   0.94896   0.65289   0.00000  Uiso   1.00
C1242  C     0.08090   0.96974   0.63558   0.00000  Uiso   1.00
C1243  C     0.11169   0.94197   0.61716   0.00000  Uiso   1.00
H1244  H     0.06666   0.83495   0.63190   0.00000  Uiso   1.00
H1245  H     0.01263   0.88438   0.66466   0.00000  Uiso   1.00
H1246  H     0.02152   0.97048   0.66722   0.00000  Uiso   1.00
H1247  H     0.08467   0.67402   0.63651   0.00000  Uiso   1.00
H1248  H     0.13895   0.95841   0.60336   0.00000  Uiso   1.00
C1249  C     0.42070   0.83330   0.75011   0.00000  Uiso   1.00
C1250  C     0.57929   0.83337   0.74988   0.00000  Uiso   1.00
C1251  C     0.44462   0.89189   0.51946   0.00000  Uiso   1.00
C1252  C     0.55536   0.77476   0.98054   0.00000  Uiso   1.00
C1253  C     0.35454   0.79244   0.73933   0.00000  Uiso   1.00
C1254  C     0.64546   0.87422   0.76067   0.00000  Uiso   1.00
C1255  C     0.64523   0.79256   0.73898   0.00000  Uiso   1.00
C1256  C     0.35477   0.87411   0.76101   0.00000  Uiso   1.00
C1257  C     0.62391   0.83343   0.74973   0.00000  Uiso   1.00
C1258  C     0.37609   0.83324   0.75027   0.00000  Uiso   1.00
C1259  C     0.46688   0.69155   0.73417   0.00000  Uiso   1.00
C1260  C     0.53312   0.97512   0.76583   0.00000  Uiso   1.00
C1261  C     0.53318   0.69130   0.76559   0.00000  Uiso   1.00
C1262  C     0.46682   0.97536   0.73441   0.00000  Uiso   1.00
C1263  C     0.49877   0.83363   0.66445   0.00000  Uiso   1.00
C1264  C     0.50122   0.83303   0.83555   0.00000  Uiso   1.00
C1265  C     0.52938   0.80266   0.90795   0.00000  Uiso   1.00
C1266  C     0.47062   0.86402   0.59205   0.00000  Uiso   1.00
C1267  C     0.50235   0.83241   0.88387   0.00000  Uiso   1.00
C1268  C     0.49764   0.83425   0.61613   0.00000  Uiso   1.00
C1269  C     0.47531   0.86202   0.90586   0.00000  Uiso   1.00
C1270  C     0.52467   0.80463   0.59414   0.00000  Uiso   1.00
C1271  C     0.47400   0.86225   0.95189   0.00000  Uiso   1.00
C1272  C     0.52598   0.80439   0.54811   0.00000  Uiso   1.00
C1273  C     0.50061   0.83291   0.97665   0.00000  Uiso   1.00
C1274  C     0.49937   0.83373   0.52335   0.00000  Uiso   1.00
C1275  C     0.52859   0.80301   0.95482   0.00000  Uiso   1.00
C1276  C     0.47140   0.86364   0.54518   0.00000  Uiso   1.00
C1277  C     0.44614   0.89135   0.97343   0.00000  Uiso   1.00
C1278  C     0.55383   0.77529   0.52657   0.00000  Uiso   1.00
Cu1279 Cu    0.50000   0.88022   0.75000   0.00000  Uiso   1.00
Cu1280 Cu    0.50000   0.78645   0.75000   0.00000  Uiso   1.00
H1281  H     0.45463   0.88446   0.88686   0.00000  Uiso   1.00
H1282  H     0.54534   0.78218   0.61314   0.00000  Uiso   1.00
H1283  H     0.42534   0.91372   0.95460   0.00000  Uiso   1.00
H1284  H     0.57464   0.75292   0.54540   0.00000  Uiso   1.00
H1285  H     0.42221   0.91466   0.53449   0.00000  Uiso   1.00
H1286  H     0.57778   0.75200   0.96551   0.00000  Uiso   1.00
H1287  H     0.37057   0.76063   0.73071   0.00000  Uiso   1.00
H1288  H     0.62943   0.90604   0.76929   0.00000  Uiso   1.00
H1289  H     0.62900   0.76076   0.73032   0.00000  Uiso   1.00
H1290  H     0.37100   0.90590   0.76967   0.00000  Uiso   1.00
H1291  H     0.44034   0.71008   0.72118   0.00000  Uiso   1.00
H1292  H     0.55966   0.95658   0.77882   0.00000  Uiso   1.00
H1293  H     0.55990   0.70973   0.77777   0.00000  Uiso   1.00
H1294  H     0.44010   0.95694   0.72223   0.00000  Uiso   1.00
N1295  N     0.50000   0.95069   0.75000   0.00000  Uiso   1.00
N1296  N     0.50000   0.71598   0.75000   0.00000  Uiso   1.00
O1297  O     0.43988   0.87291   0.74999   0.00000  Uiso   1.00
O1298  O     0.56012   0.79375   0.75000   0.00000  Uiso   1.00
O1299  O     0.56012   0.87291   0.75000   0.00000  Uiso   1.00
O1300  O     0.43988   0.79375   0.74999   0.00000  Uiso   1.00
O1301  O     0.49999   0.87293   0.68513   0.00000  Uiso   1.00
O1302  O     0.50001   0.79373   0.81487   0.00000  Uiso   1.00
O1303  O     0.50001   0.87293   0.81487   0.00000  Uiso   1.00
O1304  O     0.49999   0.79373   0.68513   0.00000  Uiso   1.00
C1305  C     0.55998   0.77355   0.88448   0.00000  Uiso   1.00
C1306  C     0.55507   0.72476   0.88279   0.00000  Uiso   1.00
C1307  C     0.58590   0.69704   0.86436   0.00000  Uiso   1.00
C1308  C     0.62149   0.71789   0.84708   0.00000  Uiso   1.00
C1309  C     0.62635   0.76646   0.84833   0.00000  Uiso   1.00
C1310  C     0.59564   0.79430   0.86680   0.00000  Uiso   1.00
H1311  H     0.52782   0.70827   0.89656   0.00000  Uiso   1.00
H1312  H     0.58216   0.99276   0.86339   0.00000  Uiso   1.00
H1313  H     0.64529   0.69641   0.83274   0.00000  Uiso   1.00
H1314  H     0.65409   0.78252   0.83539   0.00000  Uiso   1.00
H1315  H     0.59999   0.83185   0.86817   0.00000  Uiso   1.00
C1316  C     0.44006   0.89318   0.61552   0.00000  Uiso   1.00
C1317  C     0.40439   0.87249   0.63323   0.00000  Uiso   1.00
C1318  C     0.37372   0.90039   0.65169   0.00000  Uiso   1.00
C1319  C     0.37863   0.94896   0.65289   0.00000  Uiso   1.00
C1320  C     0.41423   0.96974   0.63558   0.00000  Uiso   1.00
C1321  C     0.44503   0.94197   0.61716   0.00000  Uiso   1.00
H1322  H     0.40000   0.83495   0.63190   0.00000  Uiso   1.00
H1323  H     0.34596   0.88438   0.66466   0.00000  Uiso   1.00
H1324  H     0.35485   0.97048   0.66722   0.00000  Uiso   1.00
H1325  H     0.41801   0.67402   0.63651   0.00000  Uiso   1.00
H1326  H     0.47229   0.95841   0.60336   0.00000  Uiso   1.00
C1327  C     0.75404   0.83330   0.75011   0.00000  Uiso   1.00
C1328  C     0.91263   0.83337   0.74988   0.00000  Uiso   1.00
C1329  C     0.77795   0.89189   0.51946   0.00000  Uiso   1.00
C1330  C     0.88870   0.77476   0.98054   0.00000  Uiso   1.00
C1331  C     0.68788   0.79244   0.73933   0.00000  Uiso   1.00
C1332  C     0.97879   0.87422   0.76067   0.00000  Uiso   1.00
C1333  C     0.97856   0.79256   0.73898   0.00000  Uiso   1.00
C1334  C     0.68811   0.87411   0.76101   0.00000  Uiso   1.00
C1335  C     0.95724   0.83343   0.74973   0.00000  Uiso   1.00
C1336  C     0.70943   0.83324   0.75027   0.00000  Uiso   1.00
C1337  C     0.80021   0.69155   0.73417   0.00000  Uiso   1.00
C1338  C     0.86645   0.97512   0.76583   0.00000  Uiso   1.00
C1339  C     0.86651   0.69130   0.76559   0.00000  Uiso   1.00
C1340  C     0.80015   0.97536   0.73441   0.00000  Uiso   1.00
C1341  C     0.83211   0.83363   0.66445   0.00000  Uiso   1.00
C1342  C     0.83456   0.83303   0.83555   0.00000  Uiso   1.00
C1343  C     0.86272   0.80266   0.90795   0.00000  Uiso   1.00
C1344  C     0.80395   0.86402   0.59205   0.00000  Uiso   1.00
C1345  C     0.83569   0.83241   0.88387   0.00000  Uiso   1.00
C1346  C     0.83097   0.83425   0.61613   0.00000  Uiso   1.00
C1347  C     0.80864   0.86202   0.90586   0.00000  Uiso   1.00
C1348  C     0.85800   0.80463   0.59414   0.00000  Uiso   1.00
C1349  C     0.80733   0.86225   0.95189   0.00000  Uiso   1.00
C1350  C     0.85932   0.80439   0.54811   0.00000  Uiso   1.00
C1351  C     0.83394   0.83291   0.97665   0.00000  Uiso   1.00
C1352  C     0.83270   0.83373   0.52335   0.00000  Uiso   1.00
C1353  C     0.86192   0.80301   0.95482   0.00000  Uiso   1.00
C1354  C     0.80473   0.86364   0.54518   0.00000  Uiso   1.00
C1355  C     0.77948   0.89135   0.97343   0.00000  Uiso   1.00
C1356  C     0.88717   0.77529   0.52657   0.00000  Uiso   1.00
Cu1357 Cu    0.83333   0.88022   0.75000   0.00000  Uiso   1.00
Cu1358 Cu    0.83333   0.78645   0.75000   0.00000  Uiso   1.00
H1359  H     0.78796   0.88446   0.88686   0.00000  Uiso   1.00
H1360  H     0.87868   0.78218   0.61314   0.00000  Uiso   1.00
H1361  H     0.75867   0.91372   0.95460   0.00000  Uiso   1.00
H1362  H     0.90797   0.75292   0.54540   0.00000  Uiso   1.00
H1363  H     0.75554   0.91466   0.53449   0.00000  Uiso   1.00
H1364  H     0.91111   0.75200   0.96551   0.00000  Uiso   1.00
H1365  H     0.70390   0.76063   0.73071   0.00000  Uiso   1.00
H1366  H     0.96276   0.90604   0.76929   0.00000  Uiso   1.00
H1367  H     0.96234   0.76076   0.73032   0.00000  Uiso   1.00
H1368  H     0.70433   0.90590   0.76967   0.00000  Uiso   1.00
H1369  H     0.77367   0.71008   0.72118   0.00000  Uiso   1.00
H1370  H     0.89300   0.95658   0.77882   0.00000  Uiso   1.00
H1371  H     0.89323   0.70973   0.77777   0.00000  Uiso   1.00
H1372  H     0.77344   0.95694   0.72223   0.00000  Uiso   1.00
N1373  N     0.83333   0.95069   0.75000   0.00000  Uiso   1.00
N1374  N     0.83333   0.71598   0.75000   0.00000  Uiso   1.00
O1375  O     0.77321   0.87291   0.74999   0.00000  Uiso   1.00
O1376  O     0.89345   0.79375   0.75000   0.00000  Uiso   1.00
O1377  O     0.89345   0.87291   0.75000   0.00000  Uiso   1.00
O1378  O     0.77321   0.79375   0.74999   0.00000  Uiso   1.00
O1379  O     0.83332   0.87293   0.68513   0.00000  Uiso   1.00
O1380  O     0.83334   0.79373   0.81487   0.00000  Uiso   1.00
O1381  O     0.83334   0.87293   0.81487   0.00000  Uiso   1.00
O1382  O     0.83332   0.79373   0.68513   0.00000  Uiso   1.00
C1383  C     0.89332   0.77355   0.88448   0.00000  Uiso   1.00
C1384  C     0.88840   0.72476   0.88279   0.00000  Uiso   1.00
C1385  C     0.91923   0.69704   0.86436   0.00000  Uiso   1.00
C1386  C     0.95482   0.71789   0.84708   0.00000  Uiso   1.00
C1387  C     0.95968   0.76646   0.84833   0.00000  Uiso   1.00
C1388  C     0.92897   0.79430   0.86680   0.00000  Uiso   1.00
H1389  H     0.86115   0.70827   0.89656   0.00000  Uiso   1.00
H1390  H     0.91550   0.99276   0.86339   0.00000  Uiso   1.00
H1391  H     0.97863   0.69641   0.83274   0.00000  Uiso   1.00
H1392  H     0.98743   0.78252   0.83539   0.00000  Uiso   1.00
H1393  H     0.93333   0.83185   0.86817   0.00000  Uiso   1.00
C1394  C     0.77340   0.89318   0.61552   0.00000  Uiso   1.00
C1395  C     0.73772   0.87249   0.63323   0.00000  Uiso   1.00
C1396  C     0.70706   0.90039   0.65169   0.00000  Uiso   1.00
C1397  C     0.71196   0.94896   0.65289   0.00000  Uiso   1.00
C1398  C     0.74757   0.96974   0.63558   0.00000  Uiso   1.00
C1399  C     0.77836   0.94197   0.61716   0.00000  Uiso   1.00
H1400  H     0.73333   0.83495   0.63190   0.00000  Uiso   1.00
H1401  H     0.67930   0.88438   0.66466   0.00000  Uiso   1.00
H1402  H     0.68818   0.97048   0.66722   0.00000  Uiso   1.00
H1403  H     0.75134   0.67402   0.63651   0.00000  Uiso   1.00
H1404  H     0.80562   0.95841   0.60336   0.00000  Uiso   1.00
loop_
_geom_bond_atom_site_label_1
_geom_bond_atom_site_label_2
_geom_bond_distance
_geom_bond_site_symmetry_2
_ccdc_geom_bond_type
C1     C10     1.447   .     S
C1     O52     1.291   .     A
C1     O49     1.291   .     A
C2     O50     1.291   .     A
C2     O51     1.291   .     A
C2     C9      1.447   .     S
C3     C28     1.410   .     A
C3     H37     1.081   .     S
C3     C731    1.389   1_554 S
C4     C27     1.410   .     A
C4     H38     1.081   .     S
C4     C732    1.389   .     S
C5     H39     1.083   .     S
C5     C10     1.400   .     A
C5     C163    1.383   1_455 S
C6     C9      1.400   .     A
C6     H40     1.083   .     S
C6     C86     1.383   .     S
C7     H41     1.083   .     S
C7     C9      1.401   .     A
C7     C83     1.383   .     S
C8     H42     1.083   .     S
C8     C10     1.401   .     A
C8     C162    1.383   1_455 S
C11    H43     1.081   .     S
C11    N48     1.367   .     A
C11    C482    1.415   1_545 S
C12    N47     1.367   .     A
C12    H44     1.081   .     S
C12    C247    1.415   .     S
C13    N48     1.366   .     A
C13    H45     1.078   .     S
C13    C480    1.415   1_545 S
C14    H46     1.078   .     S
C14    N47     1.366   .     A
C14    C245    1.415   .     S
C15    C20     1.457   .     S
C15    O53     1.292   .     A
C15    O56     1.293   .     A
C16    O55     1.293   .     A
C16    C19     1.457   .     S
C16    O54     1.292   .     A
C17    C27     1.414   .     A
C17    C19     1.414   .     A
C17    C57     1.484   .     S
C18    C68     1.484   .     S
C18    C28     1.414   .     A
C18    C20     1.414   .     A
C19    C21     1.396   .     A
C20    C22     1.396   .     A
C21    H33     1.086   .     S
C21    C23     1.389   .     A
C22    H34     1.086   .     S
C22    C24     1.389   .     A
C23    C29     1.397   .     A
C23    C25     1.409   .     A
C24    C30     1.397   .     A
C24    C26     1.409   .     A
C25    C27     1.418   .     A
C25    C728    1.410   .     S
C26    C28     1.418   .     A
C26    C727    1.410   1_554 S
C29    H35     1.084   .     S
C29    C705    1.389   .     S
C30    H36     1.084   .     S
C30    C706    1.389   1_554 S
Cu31   N47     2.014   .     S
Cu31   O49     1.961   .     S
Cu31   Cu32    2.680   .     S
Cu31   O53     1.970   .     S
Cu31   O51     1.961   .     S
Cu31   O55     1.965   .     S
Cu32   O52     1.961   .     S
Cu32   N48     2.014   .     S
Cu32   O54     1.970   .     S
Cu32   O50     1.961   .     S
Cu32   O56     1.965   .     S
C57    C62     1.403   .     A
C57    C58     1.405   .     A
C58    H63     1.083   .     S
C58    C59     1.398   .     A
C59    C60     1.398   .     A
C59    H532    1.082   1_545 S
C60    C61     1.398   .     A
C60    H65     1.082   .     S
C61    H66     1.082   .     S
C61    C62     1.398   .     A
C62    H67     1.083   .     S
H64    C293    1.082   .     S
C68    C69     1.403   .     A
C68    C73     1.405   .     A
C69    C70     1.398   .     A
C69    H74     1.083   .     S
C70    C71     1.398   .     A
C70    H75     1.082   .     S
C71    H76     1.082   .     S
C71    C72     1.398   .     A
C72    C73     1.398   .     A
C72    H311    1.082   .     S
C73    H78     1.083   .     S
H77    C540    1.082   1_545 S
C79    C88     1.447   .     S
C79    O130    1.291   .     A
C79    O127    1.291   .     A
C80    O128    1.291   .     A
C80    O129    1.291   .     A
C80    C87     1.447   .     S
C81    C106    1.410   .     A
C81    H115    1.081   .     S
C81    C809    1.389   1_554 S
C82    C105    1.410   .     A
C82    H116    1.081   .     S
C82    C810    1.389   .     S
C83    H117    1.083   .     S
C83    C88     1.400   .     A
C84    C87     1.400   .     A
C84    H118    1.083   .     S
C84    C164    1.383   .     S
C85    H119    1.083   .     S
C85    C87     1.401   .     A
C85    C161    1.383   .     S
C86    H120    1.083   .     S
C86    C88     1.401   .     A
C89    H121    1.081   .     S
C89    N126    1.367   .     A
C89    C560    1.415   1_545 S
C90    N125    1.367   .     A
C90    H122    1.081   .     S
C90    C325    1.415   .     S
C91    N126    1.366   .     A
C91    H123    1.078   .     S
C91    C558    1.415   1_545 S
C92    H124    1.078   .     S
C92    N125    1.366   .     A
C92    C323    1.415   .     S
C93    C98     1.457   .     S
C93    O131    1.292   .     A
C93    O134    1.293   .     A
C94    O133    1.293   .     A
C94    C97     1.457   .     S
C94    O132    1.292   .     A
C95    C105    1.414   .     A
C95    C97     1.414   .     A
C95    C135    1.484   .     S
C96    C146    1.484   .     S
C96    C106    1.414   .     A
C96    C98     1.414   .     A
C97    C99     1.396   .     A
C98    C100    1.396   .     A
C99    H111    1.086   .     S
C99    C101    1.389   .     A
C100   H112    1.086   .     S
C100   C102    1.389   .     A
C101   C107    1.397   .     A
C101   C103    1.409   .     A
C102   C108    1.397   .     A
C102   C104    1.409   .     A
C103   C105    1.418   .     A
C103   C806    1.410   .     S
C104   C106    1.418   .     A
C104   C805    1.410   1_554 S
C107   H113    1.084   .     S
C107   C783    1.389   .     S
C108   H114    1.084   .     S
C108   C784    1.389   1_554 S
Cu109  N125    2.014   .     S
Cu109  O127    1.961   .     S
Cu109  Cu110   2.680   .     S
Cu109  O131    1.970   .     S
Cu109  O129    1.961   .     S
Cu109  O133    1.965   .     S
Cu110  O130    1.961   .     S
Cu110  N126    2.014   .     S
Cu110  O132    1.970   .     S
Cu110  O128    1.961   .     S
Cu110  O134    1.965   .     S
C135   C140    1.403   .     A
C135   C136    1.405   .     A
C136   H141    1.083   .     S
C136   C137    1.398   .     A
C137   C138    1.398   .     A
C137   H610    1.082   1_545 S
C138   C139    1.398   .     A
C138   H143    1.082   .     S
C139   H144    1.082   .     S
C139   C140    1.398   .     A
C140   H145    1.083   .     S
H142   C371    1.082   .     S
C146   C147    1.403   .     A
C146   C151    1.405   .     A
C147   C148    1.398   .     A
C147   H152    1.083   .     S
C148   C149    1.398   .     A
C148   H153    1.082   .     S
C149   H154    1.082   .     S
C149   C150    1.398   .     A
C150   C151    1.398   .     A
C150   H389    1.082   .     S
C151   H156    1.083   .     S
H155   C618    1.082   1_545 S
C157   C166    1.447   .     S
C157   O208    1.291   .     A
C157   O205    1.291   .     A
C158   O206    1.291   .     A
C158   O207    1.291   .     A
C158   C165    1.447   .     S
C159   C184    1.410   .     A
C159   H193    1.081   .     S
C159   C887    1.389   1_554 S
C160   C183    1.410   .     A
C160   H194    1.081   .     S
C160   C888    1.389   .     S
C161   H195    1.083   .     S
C161   C166    1.400   .     A
C162   C165    1.400   .     A
C162   H196    1.083   .     S
C162   C8      1.383   1_655 S
C163   H197    1.083   .     S
C163   C165    1.401   .     A
C163   C5      1.383   1_655 S
C164   H198    1.083   .     S
C164   C166    1.401   .     A
C167   H199    1.081   .     S
C167   N204    1.367   .     A
C167   C638    1.415   1_545 S
C168   N203    1.367   .     A
C168   H200    1.081   .     S
C168   C403    1.415   .     S
C169   N204    1.366   .     A
C169   H201    1.078   .     S
C169   C636    1.415   1_545 S
C170   H202    1.078   .     S
C170   N203    1.366   .     A
C170   C401    1.415   .     S
C171   C176    1.457   .     S
C171   O209    1.292   .     A
C171   O212    1.293   .     A
C172   O211    1.293   .     A
C172   C175    1.457   .     S
C172   O210    1.292   .     A
C173   C183    1.414   .     A
C173   C175    1.414   .     A
C173   C213    1.484   .     S
C174   C224    1.484   .     S
C174   C184    1.414   .     A
C174   C176    1.414   .     A
C175   C177    1.396   .     A
C176   C178    1.396   .     A
C177   H189    1.086   .     S
C177   C179    1.389   .     A
C178   H190    1.086   .     S
C178   C180    1.389   .     A
C179   C185    1.397   .     A
C179   C181    1.409   .     A
C180   C186    1.397   .     A
C180   C182    1.409   .     A
C181   C183    1.418   .     A
C181   C884    1.410   .     S
C182   C184    1.418   .     A
C182   C883    1.410   1_554 S
C185   H191    1.084   .     S
C185   C861    1.389   .     S
C186   H192    1.084   .     S
C186   C862    1.389   1_554 S
Cu187  N203    2.014   .     S
Cu187  O205    1.961   .     S
Cu187  Cu188   2.680   .     S
Cu187  O209    1.970   .     S
Cu187  O207    1.961   .     S
Cu187  O211    1.965   .     S
Cu188  O208    1.961   .     S
Cu188  N204    2.014   .     S
Cu188  O210    1.970   .     S
Cu188  O206    1.961   .     S
Cu188  O212    1.965   .     S
C213   C218    1.403   .     A
C213   C214    1.405   .     A
C214   H219    1.083   .     S
C214   C215    1.398   .     A
C215   C216    1.398   .     A
C215   H688    1.082   1_545 S
C216   C217    1.398   .     A
C216   H221    1.082   .     S
C217   H222    1.082   .     S
C217   C218    1.398   .     A
C218   H223    1.083   .     S
H220   C449    1.082   .     S
C224   C225    1.403   .     A
C224   C229    1.405   .     A
C225   C226    1.398   .     A
C225   H230    1.083   .     S
C226   C227    1.398   .     A
C226   H231    1.082   .     S
C227   H232    1.082   .     S
C227   C228    1.398   .     A
C228   C229    1.398   .     A
C228   H467    1.082   .     S
C229   H234    1.083   .     S
H233   C696    1.082   1_545 S
C235   C244    1.447   .     S
C235   O286    1.291   .     A
C235   O283    1.291   .     A
C236   O284    1.291   .     A
C236   O285    1.291   .     A
C236   C243    1.447   .     S
C237   C262    1.410   .     A
C237   H271    1.081   .     S
C237   C965    1.389   1_554 S
C238   C261    1.410   .     A
C238   H272    1.081   .     S
C238   C966    1.389   .     S
C239   H273    1.083   .     S
C239   C244    1.400   .     A
C239   C397    1.383   1_455 S
C240   C243    1.400   .     A
C240   H274    1.083   .     S
C240   C320    1.383   .     S
C241   H275    1.083   .     S
C241   C243    1.401   .     A
C241   C317    1.383   .     S
C242   H276    1.083   .     S
C242   C244    1.401   .     A
C242   C396    1.383   1_455 S
C245   H277    1.081   .     S
C245   N282    1.367   .     A
C246   N281    1.367   .     A
C246   H278    1.081   .     S
C246   C481    1.415   .     S
C247   N282    1.366   .     A
C247   H279    1.078   .     S
C248   H280    1.078   .     S
C248   N281    1.366   .     A
C248   C479    1.415   .     S
C249   C254    1.457   .     S
C249   O287    1.292   .     A
C249   O290    1.293   .     A
C250   O289    1.293   .     A
C250   C253    1.457   .     S
C250   O288    1.292   .     A
C251   C261    1.414   .     A
C251   C253    1.414   .     A
C251   C291    1.484   .     S
C252   C302    1.484   .     S
C252   C262    1.414   .     A
C252   C254    1.414   .     A
C253   C255    1.396   .     A
C254   C256    1.396   .     A
C255   H267    1.086   .     S
C255   C257    1.389   .     A
C256   H268    1.086   .     S
C256   C258    1.389   .     A
C257   C263    1.397   .     A
C257   C259    1.409   .     A
C258   C264    1.397   .     A
C258   C260    1.409   .     A
C259   C261    1.418   .     A
C259   C962    1.410   .     S
C260   C262    1.418   .     A
C260   C961    1.410   1_554 S
C263   H269    1.084   .     S
C263   C939    1.389   .     S
C264   H270    1.084   .     S
C264   C940    1.389   1_554 S
Cu265  N281    2.014   .     S
Cu265  O283    1.961   .     S
Cu265  Cu266   2.680   .     S
Cu265  O287    1.970   .     S
Cu265  O285    1.961   .     S
Cu265  O289    1.965   .     S
Cu266  O286    1.961   .     S
Cu266  N282    2.014   .     S
Cu266  O288    1.970   .     S
Cu266  O284    1.961   .     S
Cu266  O290    1.965   .     S
C291   C296    1.403   .     A
C291   C292    1.405   .     A
C292   H297    1.083   .     S
C292   C293    1.398   .     A
C293   C294    1.398   .     A
C294   C295    1.398   .     A
C294   H299    1.082   .     S
C295   H300    1.082   .     S
C295   C296    1.398   .     A
C296   H301    1.083   .     S
H298   C527    1.082   .     S
C302   C303    1.403   .     A
C302   C307    1.405   .     A
C303   C304    1.398   .     A
C303   H308    1.083   .     S
C304   C305    1.398   .     A
C304   H309    1.082   .     S
C305   H310    1.082   .     S
C305   C306    1.398   .     A
C306   C307    1.398   .     A
C306   H545    1.082   .     S
C307   H312    1.083   .     S
C313   C322    1.447   .     S
C313   O364    1.291   .     A
C313   O361    1.291   .     A
C314   O362    1.291   .     A
C314   O363    1.291   .     A
C314   C321    1.447   .     S
C315   C340    1.410   .     A
C315   H349    1.081   .     S
C315   C1043   1.389   1_554 S
C316   C339    1.410   .     A
C316   H350    1.081   .     S
C316   C1044   1.389   .     S
C317   H351    1.083   .     S
C317   C322    1.400   .     A
C318   C321    1.400   .     A
C318   H352    1.083   .     S
C318   C398    1.383   .     S
C319   H353    1.083   .     S
C319   C321    1.401   .     A
C319   C395    1.383   .     S
C320   H354    1.083   .     S
C320   C322    1.401   .     A
C323   H355    1.081   .     S
C323   N360    1.367   .     A
C324   N359    1.367   .     A
C324   H356    1.081   .     S
C324   C559    1.415   .     S
C325   N360    1.366   .     A
C325   H357    1.078   .     S
C326   H358    1.078   .     S
C326   N359    1.366   .     A
C326   C557    1.415   .     S
C327   C332    1.457   .     S
C327   O365    1.292   .     A
C327   O368    1.293   .     A
C328   O367    1.293   .     A
C328   C331    1.457   .     S
C328   O366    1.292   .     A
C329   C339    1.414   .     A
C329   C331    1.414   .     A
C329   C369    1.484   .     S
C330   C380    1.484   .     S
C330   C340    1.414   .     A
C330   C332    1.414   .     A
C331   C333    1.396   .     A
C332   C334    1.396   .     A
C333   H345    1.086   .     S
C333   C335    1.389   .     A
C334   H346    1.086   .     S
C334   C336    1.389   .     A
C335   C341    1.397   .     A
C335   C337    1.409   .     A
C336   C342    1.397   .     A
C336   C338    1.409   .     A
C337   C339    1.418   .     A
C337   C1040   1.410   .     S
C338   C340    1.418   .     A
C338   C1039   1.410   1_554 S
C341   H347    1.084   .     S
C341   C1017   1.389   .     S
C342   H348    1.084   .     S
C342   C1018   1.389   1_554 S
Cu343  N359    2.014   .     S
Cu343  O361    1.961   .     S
Cu343  Cu344   2.680   .     S
Cu343  O365    1.970   .     S
Cu343  O363    1.961   .     S
Cu343  O367    1.965   .     S
Cu344  O364    1.961   .     S
Cu344  N360    2.014   .     S
Cu344  O366    1.970   .     S
Cu344  O362    1.961   .     S
Cu344  O368    1.965   .     S
C369   C374    1.403   .     A
C369   C370    1.405   .     A
C370   H375    1.083   .     S
C370   C371    1.398   .     A
C371   C372    1.398   .     A
C372   C373    1.398   .     A
C372   H377    1.082   .     S
C373   H378    1.082   .     S
C373   C374    1.398   .     A
C374   H379    1.083   .     S
H376   C605    1.082   .     S
C380   C381    1.403   .     A
C380   C385    1.405   .     A
C381   C382    1.398   .     A
C381   H386    1.083   .     S
C382   C383    1.398   .     A
C382   H387    1.082   .     S
C383   H388    1.082   .     S
C383   C384    1.398   .     A
C384   C385    1.398   .     A
C384   H623    1.082   .     S
C385   H390    1.083   .     S
C391   C400    1.447   .     S
C391   O442    1.291   .     A
C391   O439    1.291   .     A
C392   O440    1.291   .     A
C392   O441    1.291   .     A
C392   C399    1.447   .     S
C393   C418    1.410   .     A
C393   H427    1.081   .     S
C393   C1121   1.389   1_554 S
C394   C417    1.410   .     A
C394   H428    1.081   .     S
C394   C1122   1.389   .     S
C395   H429    1.083   .     S
C395   C400    1.400   .     A
C396   C399    1.400   .     A
C396   H430    1.083   .     S
C396   C242    1.383   1_655 S
C397   H431    1.083   .     S
C397   C399    1.401   .     A
C397   C239    1.383   1_655 S
C398   H432    1.083   .     S
C398   C400    1.401   .     A
C401   H433    1.081   .     S
C401   N438    1.367   .     A
C402   N437    1.367   .     A
C402   H434    1.081   .     S
C402   C637    1.415   .     S
C403   N438    1.366   .     A
C403   H435    1.078   .     S
C404   H436    1.078   .     S
C404   N437    1.366   .     A
C404   C635    1.415   .     S
C405   C410    1.457   .     S
C405   O443    1.292   .     A
C405   O446    1.293   .     A
C406   O445    1.293   .     A
C406   C409    1.457   .     S
C406   O444    1.292   .     A
C407   C417    1.414   .     A
C407   C409    1.414   .     A
C407   C447    1.484   .     S
C408   C458    1.484   .     S
C408   C418    1.414   .     A
C408   C410    1.414   .     A
C409   C411    1.396   .     A
C410   C412    1.396   .     A
C411   H423    1.086   .     S
C411   C413    1.389   .     A
C412   H424    1.086   .     S
C412   C414    1.389   .     A
C413   C419    1.397   .     A
C413   C415    1.409   .     A
C414   C420    1.397   .     A
C414   C416    1.409   .     A
C415   C417    1.418   .     A
C415   C1118   1.410   .     S
C416   C418    1.418   .     A
C416   C1117   1.410   1_554 S
C419   H425    1.084   .     S
C419   C1095   1.389   .     S
C420   H426    1.084   .     S
C420   C1096   1.389   1_554 S
Cu421  N437    2.014   .     S
Cu421  O439    1.961   .     S
Cu421  Cu422   2.680   .     S
Cu421  O443    1.970   .     S
Cu421  O441    1.961   .     S
Cu421  O445    1.965   .     S
Cu422  O442    1.961   .     S
Cu422  N438    2.014   .     S
Cu422  O444    1.970   .     S
Cu422  O440    1.961   .     S
Cu422  O446    1.965   .     S
C447   C452    1.403   .     A
C447   C448    1.405   .     A
C448   H453    1.083   .     S
C448   C449    1.398   .     A
C449   C450    1.398   .     A
C450   C451    1.398   .     A
C450   H455    1.082   .     S
C451   H456    1.082   .     S
C451   C452    1.398   .     A
C452   H457    1.083   .     S
H454   C683    1.082   .     S
C458   C459    1.403   .     A
C458   C463    1.405   .     A
C459   C460    1.398   .     A
C459   H464    1.083   .     S
C460   C461    1.398   .     A
C460   H465    1.082   .     S
C461   H466    1.082   .     S
C461   C462    1.398   .     A
C462   C463    1.398   .     A
C462   H701    1.082   .     S
C463   H468    1.083   .     S
C469   C478    1.447   .     S
C469   O520    1.291   .     A
C469   O517    1.291   .     A
C470   O518    1.291   .     A
C470   O519    1.291   .     A
C470   C477    1.447   .     S
C471   C496    1.410   .     A
C471   H505    1.081   .     S
C471   C1199   1.389   1_554 S
C472   C495    1.410   .     A
C472   H506    1.081   .     S
C472   C1200   1.389   .     S
C473   H507    1.083   .     S
C473   C478    1.400   .     A
C473   C631    1.383   1_455 S
C474   C477    1.400   .     A
C474   H508    1.083   .     S
C474   C554    1.383   .     S
C475   H509    1.083   .     S
C475   C477    1.401   .     A
C475   C551    1.383   .     S
C476   H510    1.083   .     S
C476   C478    1.401   .     A
C476   C630    1.383   1_455 S
C479   H511    1.081   .     S
C479   N516    1.367   .     A
C480   N515    1.367   .     A
C480   H512    1.081   .     S
C480   C13     1.415   1_565 S
C481   N516    1.366   .     A
C481   H513    1.078   .     S
C482   H514    1.078   .     S
C482   N515    1.366   .     A
C482   C11     1.415   1_565 S
C483   C488    1.457   .     S
C483   O521    1.292   .     A
C483   O524    1.293   .     A
C484   O523    1.293   .     A
C484   C487    1.457   .     S
C484   O522    1.292   .     A
C485   C495    1.414   .     A
C485   C487    1.414   .     A
C485   C525    1.484   .     S
C486   C536    1.484   .     S
C486   C496    1.414   .     A
C486   C488    1.414   .     A
C487   C489    1.396   .     A
C488   C490    1.396   .     A
C489   H501    1.086   .     S
C489   C491    1.389   .     A
C490   H502    1.086   .     S
C490   C492    1.389   .     A
C491   C497    1.397   .     A
C491   C493    1.409   .     A
C492   C498    1.397   .     A
C492   C494    1.409   .     A
C493   C495    1.418   .     A
C493   C1196   1.410   .     S
C494   C496    1.418   .     A
C494   C1195   1.410   1_554 S
C497   H503    1.084   .     S
C497   C1173   1.389   .     S
C498   H504    1.084   .     S
C498   C1174   1.389   1_554 S
Cu499  N515    2.014   .     S
Cu499  O517    1.961   .     S
Cu499  Cu500   2.680   .     S
Cu499  O521    1.970   .     S
Cu499  O519    1.961   .     S
Cu499  O523    1.965   .     S
Cu500  O520    1.961   .     S
Cu500  N516    2.014   .     S
Cu500  O522    1.970   .     S
Cu500  O518    1.961   .     S
Cu500  O524    1.965   .     S
C525   C530    1.403   .     A
C525   C526    1.405   .     A
C526   H531    1.083   .     S
C526   C527    1.398   .     A
C527   C528    1.398   .     A
C528   C529    1.398   .     A
C528   H533    1.082   .     S
C529   H534    1.082   .     S
C529   C530    1.398   .     A
C530   H535    1.083   .     S
H532   C59     1.082   1_565 S
C536   C537    1.403   .     A
C536   C541    1.405   .     A
C537   C538    1.398   .     A
C537   H542    1.083   .     S
C538   C539    1.398   .     A
C538   H543    1.082   .     S
C539   H544    1.082   .     S
C539   C540    1.398   .     A
C540   C541    1.398   .     A
C540   H77     1.082   1_565 S
C541   H546    1.083   .     S
C547   C556    1.447   .     S
C547   O598    1.291   .     A
C547   O595    1.291   .     A
C548   O596    1.291   .     A
C548   O597    1.291   .     A
C548   C555    1.447   .     S
C549   C574    1.410   .     A
C549   H583    1.081   .     S
C549   C1277   1.389   1_554 S
C550   C573    1.410   .     A
C550   H584    1.081   .     S
C550   C1278   1.389   .     S
C551   H585    1.083   .     S
C551   C556    1.400   .     A
C552   C555    1.400   .     A
C552   H586    1.083   .     S
C552   C632    1.383   .     S
C553   H587    1.083   .     S
C553   C555    1.401   .     A
C553   C629    1.383   .     S
C554   H588    1.083   .     S
C554   C556    1.401   .     A
C557   H589    1.081   .     S
C557   N594    1.367   .     A
C558   N593    1.367   .     A
C558   H590    1.081   .     S
C558   C91     1.415   1_565 S
C559   N594    1.366   .     A
C559   H591    1.078   .     S
C560   H592    1.078   .     S
C560   N593    1.366   .     A
C560   C89     1.415   1_565 S
C561   C566    1.457   .     S
C561   O599    1.292   .     A
C561   O602    1.293   .     A
C562   O601    1.293   .     A
C562   C565    1.457   .     S
C562   O600    1.292   .     A
C563   C573    1.414   .     A
C563   C565    1.414   .     A
C563   C603    1.484   .     S
C564   C614    1.484   .     S
C564   C574    1.414   .     A
C564   C566    1.414   .     A
C565   C567    1.396   .     A
C566   C568    1.396   .     A
C567   H579    1.086   .     S
C567   C569    1.389   .     A
C568   H580    1.086   .     S
C568   C570    1.389   .     A
C569   C575    1.397   .     A
C569   C571    1.409   .     A
C570   C576    1.397   .     A
C570   C572    1.409   .     A
C571   C573    1.418   .     A
C571   C1274   1.410   .     S
C572   C574    1.418   .     A
C572   C1273   1.410   1_554 S
C575   H581    1.084   .     S
C575   C1251   1.389   .     S
C576   H582    1.084   .     S
C576   C1252   1.389   1_554 S
Cu577  N593    2.014   .     S
Cu577  O595    1.961   .     S
Cu577  Cu578   2.680   .     S
Cu577  O599    1.970   .     S
Cu577  O597    1.961   .     S
Cu577  O601    1.965   .     S
Cu578  O598    1.961   .     S
Cu578  N594    2.014   .     S
Cu578  O600    1.970   .     S
Cu578  O596    1.961   .     S
Cu578  O602    1.965   .     S
C603   C608    1.403   .     A
C603   C604    1.405   .     A
C604   H609    1.083   .     S
C604   C605    1.398   .     A
C605   C606    1.398   .     A
C606   C607    1.398   .     A
C606   H611    1.082   .     S
C607   H612    1.082   .     S
C607   C608    1.398   .     A
C608   H613    1.083   .     S
H610   C137    1.082   1_565 S
C614   C615    1.403   .     A
C614   C619    1.405   .     A
C615   C616    1.398   .     A
C615   H620    1.083   .     S
C616   C617    1.398   .     A
C616   H621    1.082   .     S
C617   H622    1.082   .     S
C617   C618    1.398   .     A
C618   C619    1.398   .     A
C618   H155    1.082   1_565 S
C619   H624    1.083   .     S
C625   C634    1.447   .     S
C625   O676    1.291   .     A
C625   O673    1.291   .     A
C626   O674    1.291   .     A
C626   O675    1.291   .     A
C626   C633    1.447   .     S
C627   C652    1.410   .     A
C627   H661    1.081   .     S
C627   C1355   1.389   1_554 S
C628   C651    1.410   .     A
C628   H662    1.081   .     S
C628   C1356   1.389   .     S
C629   H663    1.083   .     S
C629   C634    1.400   .     A
C630   C633    1.400   .     A
C630   H664    1.083   .     S
C630   C476    1.383   1_655 S
C631   H665    1.083   .     S
C631   C633    1.401   .     A
C631   C473    1.383   1_655 S
C632   H666    1.083   .     S
C632   C634    1.401   .     A
C635   H667    1.081   .     S
C635   N672    1.367   .     A
C636   N671    1.367   .     A
C636   H668    1.081   .     S
C636   C169    1.415   1_565 S
C637   N672    1.366   .     A
C637   H669    1.078   .     S
C638   H670    1.078   .     S
C638   N671    1.366   .     A
C638   C167    1.415   1_565 S
C639   C644    1.457   .     S
C639   O677    1.292   .     A
C639   O680    1.293   .     A
C640   O679    1.293   .     A
C640   C643    1.457   .     S
C640   O678    1.292   .     A
C641   C651    1.414   .     A
C641   C643    1.414   .     A
C641   C681    1.484   .     S
C642   C692    1.484   .     S
C642   C652    1.414   .     A
C642   C644    1.414   .     A
C643   C645    1.396   .     A
C644   C646    1.396   .     A
C645   H657    1.086   .     S
C645   C647    1.389   .     A
C646   H658    1.086   .     S
C646   C648    1.389   .     A
C647   C653    1.397   .     A
C647   C649    1.409   .     A
C648   C654    1.397   .     A
C648   C650    1.409   .     A
C649   C651    1.418   .     A
C649   C1352   1.410   .     S
C650   C652    1.418   .     A
C650   C1351   1.410   1_554 S
C653   H659    1.084   .     S
C653   C1329   1.389   .     S
C654   H660    1.084   .     S
C654   C1330   1.389   1_554 S
Cu655  N671    2.014   .     S
Cu655  O673    1.961   .     S
Cu655  Cu656   2.680   .     S
Cu655  O677    1.970   .     S
Cu655  O675    1.961   .     S
Cu655  O679    1.965   .     S
Cu656  O676    1.961   .     S
Cu656  N672    2.014   .     S
Cu656  O678    1.970   .     S
Cu656  O674    1.961   .     S
Cu656  O680    1.965   .     S
C681   C686    1.403   .     A
C681   C682    1.405   .     A
C682   H687    1.083   .     S
C682   C683    1.398   .     A
C683   C684    1.398   .     A
C684   C685    1.398   .     A
C684   H689    1.082   .     S
C685   H690    1.082   .     S
C685   C686    1.398   .     A
C686   H691    1.083   .     S
H688   C215    1.082   1_565 S
C692   C693    1.403   .     A
C692   C697    1.405   .     A
C693   C694    1.398   .     A
C693   H698    1.083   .     S
C694   C695    1.398   .     A
C694   H699    1.082   .     S
C695   H700    1.082   .     S
C695   C696    1.398   .     A
C696   C697    1.398   .     A
C696   H233    1.082   1_565 S
C697   H702    1.083   .     S
C703   C712    1.447   .     S
C703   O754    1.291   .     A
C703   O751    1.291   .     A
C704   O752    1.291   .     A
C704   O753    1.291   .     A
C704   C711    1.447   .     S
C705   C730    1.410   .     A
C705   H739    1.081   .     S
C706   C729    1.410   .     A
C706   H740    1.081   .     S
C706   C30     1.389   1_556 S
C707   H741    1.083   .     S
C707   C712    1.400   .     A
C707   C865    1.383   1_455 S
C708   C711    1.400   .     A
C708   H742    1.083   .     S
C708   C788    1.383   .     S
C709   H743    1.083   .     S
C709   C711    1.401   .     A
C709   C785    1.383   .     S
C710   H744    1.083   .     S
C710   C712    1.401   .     A
C710   C864    1.383   1_455 S
C713   H745    1.081   .     S
C713   N750    1.367   .     A
C713   C1184   1.415   1_545 S
C714   N749    1.367   .     A
C714   H746    1.081   .     S
C714   C949    1.415   .     S
C715   N750    1.366   .     A
C715   H747    1.078   .     S
C715   C1182   1.415   1_545 S
C716   H748    1.078   .     S
C716   N749    1.366   .     A
C716   C947    1.415   .     S
C717   C722    1.457   .     S
C717   O755    1.292   .     A
C717   O758    1.293   .     A
C718   O757    1.293   .     A
C718   C721    1.457   .     S
C718   O756    1.292   .     A
C719   C729    1.414   .     A
C719   C721    1.414   .     A
C719   C759    1.484   .     S
C720   C770    1.484   .     S
C720   C730    1.414   .     A
C720   C722    1.414   .     A
C721   C723    1.396   .     A
C722   C724    1.396   .     A
C723   H735    1.086   .     S
C723   C725    1.389   .     A
C724   H736    1.086   .     S
C724   C726    1.389   .     A
C725   C731    1.397   .     A
C725   C727    1.409   .     A
C726   C732    1.397   .     A
C726   C728    1.409   .     A
C727   C729    1.418   .     A
C727   C26     1.410   1_556 S
C728   C730    1.418   .     A
C731   H737    1.084   .     S
C731   C3      1.389   1_556 S
C732   H738    1.084   .     S
Cu733  N749    2.014   .     S
Cu733  O751    1.961   .     S
Cu733  Cu734   2.680   .     S
Cu733  O755    1.970   .     S
Cu733  O753    1.961   .     S
Cu733  O757    1.965   .     S
Cu734  O754    1.961   .     S
Cu734  N750    2.014   .     S
Cu734  O756    1.970   .     S
Cu734  O752    1.961   .     S
Cu734  O758    1.965   .     S
C759   C764    1.403   .     A
C759   C760    1.405   .     A
C760   H765    1.083   .     S
C760   C761    1.398   .     A
C761   C762    1.398   .     A
C761   H1234   1.082   1_545 S
C762   C763    1.398   .     A
C762   H767    1.082   .     S
C763   H768    1.082   .     S
C763   C764    1.398   .     A
C764   H769    1.083   .     S
H766   C995    1.082   .     S
C770   C771    1.403   .     A
C770   C775    1.405   .     A
C771   C772    1.398   .     A
C771   H776    1.083   .     S
C772   C773    1.398   .     A
C772   H777    1.082   .     S
C773   H778    1.082   .     S
C773   C774    1.398   .     A
C774   C775    1.398   .     A
C774   H1013   1.082   .     S
C775   H780    1.083   .     S
H779   C1242   1.082   1_545 S
C781   C790    1.447   .     S
C781   O832    1.291   .     A
C781   O829    1.291   .     A
C782   O830    1.291   .     A
C782   O831    1.291   .     A
C782   C789    1.447   .     S
C783   C808    1.410   .     A
C783   H817    1.081   .     S
C784   C807    1.410   .     A
C784   H818    1.081   .     S
C784   C108    1.389   1_556 S
C785   H819    1.083   .     S
C785   C790    1.400   .     A
C786   C789    1.400   .     A
C786   H820    1.083   .     S
C786   C866    1.383   .     S
C787   H821    1.083   .     S
C787   C789    1.401   .     A
C787   C863    1.383   .     S
C788   H822    1.083   .     S
C788   C790    1.401   .     A
C791   H823    1.081   .     S
C791   N828    1.367   .     A
C791   C1262   1.415   1_545 S
C792   N827    1.367   .     A
C792   H824    1.081   .     S
C792   C1027   1.415   .     S
C793   N828    1.366   .     A
C793   H825    1.078   .     S
C793   C1260   1.415   1_545 S
C794   H826    1.078   .     S
C794   N827    1.366   .     A
C794   C1025   1.415   .     S
C795   C800    1.457   .     S
C795   O833    1.292   .     A
C795   O836    1.293   .     A
C796   O835    1.293   .     A
C796   C799    1.457   .     S
C796   O834    1.292   .     A
C797   C807    1.414   .     A
C797   C799    1.414   .     A
C797   C837    1.484   .     S
C798   C848    1.484   .     S
C798   C808    1.414   .     A
C798   C800    1.414   .     A
C799   C801    1.396   .     A
C800   C802    1.396   .     A
C801   H813    1.086   .     S
C801   C803    1.389   .     A
C802   H814    1.086   .     S
C802   C804    1.389   .     A
C803   C809    1.397   .     A
C803   C805    1.409   .     A
C804   C810    1.397   .     A
C804   C806    1.409   .     A
C805   C807    1.418   .     A
C805   C104    1.410   1_556 S
C806   C808    1.418   .     A
C809   H815    1.084   .     S
C809   C81     1.389   1_556 S
C810   H816    1.084   .     S
Cu811  N827    2.014   .     S
Cu811  O829    1.961   .     S
Cu811  Cu812   2.680   .     S
Cu811  O833    1.970   .     S
Cu811  O831    1.961   .     S
Cu811  O835    1.965   .     S
Cu812  O832    1.961   .     S
Cu812  N828    2.014   .     S
Cu812  O834    1.970   .     S
Cu812  O830    1.961   .     S
Cu812  O836    1.965   .     S
C837   C842    1.403   .     A
C837   C838    1.405   .     A
C838   H843    1.083   .     S
C838   C839    1.398   .     A
C839   C840    1.398   .     A
C839   H1312   1.082   1_545 S
C840   C841    1.398   .     A
C840   H845    1.082   .     S
C841   H846    1.082   .     S
C841   C842    1.398   .     A
C842   H847    1.083   .     S
H844   C1073   1.082   .     S
C848   C849    1.403   .     A
C848   C853    1.405   .     A
C849   C850    1.398   .     A
C849   H854    1.083   .     S
C850   C851    1.398   .     A
C850   H855    1.082   .     S
C851   H856    1.082   .     S
C851   C852    1.398   .     A
C852   C853    1.398   .     A
C852   H1091   1.082   .     S
C853   H858    1.083   .     S
H857   C1320   1.082   1_545 S
C859   C868    1.447   .     S
C859   O910    1.291   .     A
C859   O907    1.291   .     A
C860   O908    1.291   .     A
C860   O909    1.291   .     A
C860   C867    1.447   .     S
C861   C886    1.410   .     A
C861   H895    1.081   .     S
C862   C885    1.410   .     A
C862   H896    1.081   .     S
C862   C186    1.389   1_556 S
C863   H897    1.083   .     S
C863   C868    1.400   .     A
C864   C867    1.400   .     A
C864   H898    1.083   .     S
C864   C710    1.383   1_655 S
C865   H899    1.083   .     S
C865   C867    1.401   .     A
C865   C707    1.383   1_655 S
C866   H900    1.083   .     S
C866   C868    1.401   .     A
C869   H901    1.081   .     S
C869   N906    1.367   .     A
C869   C1340   1.415   1_545 S
C870   N905    1.367   .     A
C870   H902    1.081   .     S
C870   C1105   1.415   .     S
C871   N906    1.366   .     A
C871   H903    1.078   .     S
C871   C1338   1.415   1_545 S
C872   H904    1.078   .     S
C872   N905    1.366   .     A
C872   C1103   1.415   .     S
C873   C878    1.457   .     S
C873   O911    1.292   .     A
C873   O914    1.293   .     A
C874   O913    1.293   .     A
C874   C877    1.457   .     S
C874   O912    1.292   .     A
C875   C885    1.414   .     A
C875   C877    1.414   .     A
C875   C915    1.484   .     S
C876   C926    1.484   .     S
C876   C886    1.414   .     A
C876   C878    1.414   .     A
C877   C879    1.396   .     A
C878   C880    1.396   .     A
C879   H891    1.086   .     S
C879   C881    1.389   .     A
C880   H892    1.086   .     S
C880   C882    1.389   .     A
C881   C887    1.397   .     A
C881   C883    1.409   .     A
C882   C888    1.397   .     A
C882   C884    1.409   .     A
C883   C885    1.418   .     A
C883   C182    1.410   1_556 S
C884   C886    1.418   .     A
C887   H893    1.084   .     S
C887   C159    1.389   1_556 S
C888   H894    1.084   .     S
Cu889  N905    2.014   .     S
Cu889  O907    1.961   .     S
Cu889  Cu890   2.680   .     S
Cu889  O911    1.970   .     S
Cu889  O909    1.961   .     S
Cu889  O913    1.965   .     S
Cu890  O910    1.961   .     S
Cu890  N906    2.014   .     S
Cu890  O912    1.970   .     S
Cu890  O908    1.961   .     S
Cu890  O914    1.965   .     S
C915   C920    1.403   .     A
C915   C916    1.405   .     A
C916   H921    1.083   .     S
C916   C917    1.398   .     A
C917   C918    1.398   .     A
C917   H1390   1.082   1_545 S
C918   C919    1.398   .     A
C918   H923    1.082   .     S
C919   H924    1.082   .     S
C919   C920    1.398   .     A
C920   H925    1.083   .     S
H922   C1151   1.082   .     S
C926   C927    1.403   .     A
C926   C931    1.405   .     A
C927   C928    1.398   .     A
C927   H932    1.083   .     S
C928   C929    1.398   .     A
C928   H933    1.082   .     S
C929   H934    1.082   .     S
C929   C930    1.398   .     A
C930   C931    1.398   .     A
C930   H1169   1.082   .     S
C931   H936    1.083   .     S
H935   C1398   1.082   1_545 S
C937   C946    1.447   .     S
C937   O988    1.291   .     A
C937   O985    1.291   .     A
C938   O986    1.291   .     A
C938   O987    1.291   .     A
C938   C945    1.447   .     S
C939   C964    1.410   .     A
C939   H973    1.081   .     S
C940   C963    1.410   .     A
C940   H974    1.081   .     S
C940   C264    1.389   1_556 S
C941   H975    1.083   .     S
C941   C946    1.400   .     A
C941   C1099   1.383   1_455 S
C942   C945    1.400   .     A
C942   H976    1.083   .     S
C942   C1022   1.383   .     S
C943   H977    1.083   .     S
C943   C945    1.401   .     A
C943   C1019   1.383   .     S
C944   H978    1.083   .     S
C944   C946    1.401   .     A
C944   C1098   1.383   1_455 S
C947   H979    1.081   .     S
C947   N984    1.367   .     A
C948   N983    1.367   .     A
C948   H980    1.081   .     S
C948   C1183   1.415   .     S
C949   N984    1.366   .     A
C949   H981    1.078   .     S
C950   H982    1.078   .     S
C950   N983    1.366   .     A
C950   C1181   1.415   .     S
C951   C956    1.457   .     S
C951   O989    1.292   .     A
C951   O992    1.293   .     A
C952   O991    1.293   .     A
C952   C955    1.457   .     S
C952   O990    1.292   .     A
C953   C963    1.414   .     A
C953   C955    1.414   .     A
C953   C993    1.484   .     S
C954   C1004   1.484   .     S
C954   C964    1.414   .     A
C954   C956    1.414   .     A
C955   C957    1.396   .     A
C956   C958    1.396   .     A
C957   H969    1.086   .     S
C957   C959    1.389   .     A
C958   H970    1.086   .     S
C958   C960    1.389   .     A
C959   C965    1.397   .     A
C959   C961    1.409   .     A
C960   C966    1.397   .     A
C960   C962    1.409   .     A
C961   C963    1.418   .     A
C961   C260    1.410   1_556 S
C962   C964    1.418   .     A
C965   H971    1.084   .     S
C965   C237    1.389   1_556 S
C966   H972    1.084   .     S
Cu967  N983    2.014   .     S
Cu967  O985    1.961   .     S
Cu967  Cu968   2.680   .     S
Cu967  O989    1.970   .     S
Cu967  O987    1.961   .     S
Cu967  O991    1.965   .     S
Cu968  O988    1.961   .     S
Cu968  N984    2.014   .     S
Cu968  O990    1.970   .     S
Cu968  O986    1.961   .     S
Cu968  O992    1.965   .     S
C993   C998    1.403   .     A
C993   C994    1.405   .     A
C994   H999    1.083   .     S
C994   C995    1.398   .     A
C995   C996    1.398   .     A
C996   C997    1.398   .     A
C996   H1001   1.082   .     S
C997   H1002   1.082   .     S
C997   C998    1.398   .     A
C998   H1003   1.083   .     S
H1000  C1229   1.082   .     S
C1004  C1005   1.403   .     A
C1004  C1009   1.405   .     A
C1005  C1006   1.398   .     A
C1005  H1010   1.083   .     S
C1006  C1007   1.398   .     A
C1006  H1011   1.082   .     S
C1007  H1012   1.082   .     S
C1007  C1008   1.398   .     A
C1008  C1009   1.398   .     A
C1008  H1247   1.082   .     S
C1009  H1014   1.083   .     S
C1015  C1024   1.447   .     S
C1015  O1066   1.291   .     A
C1015  O1063   1.291   .     A
C1016  O1064   1.291   .     A
C1016  O1065   1.291   .     A
C1016  C1023   1.447   .     S
C1017  C1042   1.410   .     A
C1017  H1051   1.081   .     S
C1018  C1041   1.410   .     A
C1018  H1052   1.081   .     S
C1018  C342    1.389   1_556 S
C1019  H1053   1.083   .     S
C1019  C1024   1.400   .     A
C1020  C1023   1.400   .     A
C1020  H1054   1.083   .     S
C1020  C1100   1.383   .     S
C1021  H1055   1.083   .     S
C1021  C1023   1.401   .     A
C1021  C1097   1.383   .     S
C1022  H1056   1.083   .     S
C1022  C1024   1.401   .     A
C1025  H1057   1.081   .     S
C1025  N1062   1.367   .     A
C1026  N1061   1.367   .     A
C1026  H1058   1.081   .     S
C1026  C1261   1.415   .     S
C1027  N1062   1.366   .     A
C1027  H1059   1.078   .     S
C1028  H1060   1.078   .     S
C1028  N1061   1.366   .     A
C1028  C1259   1.415   .     S
C1029  C1034   1.457   .     S
C1029  O1067   1.292   .     A
C1029  O1070   1.293   .     A
C1030  O1069   1.293   .     A
C1030  C1033   1.457   .     S
C1030  O1068   1.292   .     A
C1031  C1041   1.414   .     A
C1031  C1033   1.414   .     A
C1031  C1071   1.484   .     S
C1032  C1082   1.484   .     S
C1032  C1042   1.414   .     A
C1032  C1034   1.414   .     A
C1033  C1035   1.396   .     A
C1034  C1036   1.396   .     A
C1035  H1047   1.086   .     S
C1035  C1037   1.389   .     A
C1036  H1048   1.086   .     S
C1036  C1038   1.389   .     A
C1037  C1043   1.397   .     A
C1037  C1039   1.409   .     A
C1038  C1044   1.397   .     A
C1038  C1040   1.409   .     A
C1039  C1041   1.418   .     A
C1039  C338    1.410   1_556 S
C1040  C1042   1.418   .     A
C1043  H1049   1.084   .     S
C1043  C315    1.389   1_556 S
C1044  H1050   1.084   .     S
Cu1045 N1061   2.014   .     S
Cu1045 O1063   1.961   .     S
Cu1045 Cu1046  2.680   .     S
Cu1045 O1067   1.970   .     S
Cu1045 O1065   1.961   .     S
Cu1045 O1069   1.965   .     S
Cu1046 O1066   1.961   .     S
Cu1046 N1062   2.014   .     S
Cu1046 O1068   1.970   .     S
Cu1046 O1064   1.961   .     S
Cu1046 O1070   1.965   .     S
C1071  C1076   1.403   .     A
C1071  C1072   1.405   .     A
C1072  H1077   1.083   .     S
C1072  C1073   1.398   .     A
C1073  C1074   1.398   .     A
C1074  C1075   1.398   .     A
C1074  H1079   1.082   .     S
C1075  H1080   1.082   .     S
C1075  C1076   1.398   .     A
C1076  H1081   1.083   .     S
H1078  C1307   1.082   .     S
C1082  C1083   1.403   .     A
C1082  C1087   1.405   .     A
C1083  C1084   1.398   .     A
C1083  H1088   1.083   .     S
C1084  C1085   1.398   .     A
C1084  H1089   1.082   .     S
C1085  H1090   1.082   .     S
C1085  C1086   1.398   .     A
C1086  C1087   1.398   .     A
C1086  H1325   1.082   .     S
C1087  H1092   1.083   .     S
C1093  C1102   1.447   .     S
C1093  O1144   1.291   .     A
C1093  O1141   1.291   .     A
C1094  O1142   1.291   .     A
C1094  O1143   1.291   .     A
C1094  C1101   1.447   .     S
C1095  C1120   1.410   .     A
C1095  H1129   1.081   .     S
C1096  C1119   1.410   .     A
C1096  H1130   1.081   .     S
C1096  C420    1.389   1_556 S
C1097  H1131   1.083   .     S
C1097  C1102   1.400   .     A
C1098  C1101   1.400   .     A
C1098  H1132   1.083   .     S
C1098  C944    1.383   1_655 S
C1099  H1133   1.083   .     S
C1099  C1101   1.401   .     A
C1099  C941    1.383   1_655 S
C1100  H1134   1.083   .     S
C1100  C1102   1.401   .     A
C1103  H1135   1.081   .     S
C1103  N1140   1.367   .     A
C1104  N1139   1.367   .     A
C1104  H1136   1.081   .     S
C1104  C1339   1.415   .     S
C1105  N1140   1.366   .     A
C1105  H1137   1.078   .     S
C1106  H1138   1.078   .     S
C1106  N1139   1.366   .     A
C1106  C1337   1.415   .     S
C1107  C1112   1.457   .     S
C1107  O1145   1.292   .     A
C1107  O1148   1.293   .     A
C1108  O1147   1.293   .     A
C1108  C1111   1.457   .     S
C1108  O1146   1.292   .     A
C1109  C1119   1.414   .     A
C1109  C1111   1.414   .     A
C1109  C1149   1.484   .     S
C1110  C1160   1.484   .     S
C1110  C1120   1.414   .     A
C1110  C1112   1.414   .     A
C1111  C1113   1.396   .     A
C1112  C1114   1.396   .     A
C1113  H1125   1.086   .     S
C1113  C1115   1.389   .     A
C1114  H1126   1.086   .     S
C1114  C1116   1.389   .     A
C1115  C1121   1.397   .     A
C1115  C1117   1.409   .     A
C1116  C1122   1.397   .     A
C1116  C1118   1.409   .     A
C1117  C1119   1.418   .     A
C1117  C416    1.410   1_556 S
C1118  C1120   1.418   .     A
C1121  H1127   1.084   .     S
C1121  C393    1.389   1_556 S
C1122  H1128   1.084   .     S
Cu1123 N1139   2.014   .     S
Cu1123 O1141   1.961   .     S
Cu1123 Cu1124  2.680   .     S
Cu1123 O1145   1.970   .     S
Cu1123 O1143   1.961   .     S
Cu1123 O1147   1.965   .     S
Cu1124 O1144   1.961   .     S
Cu1124 N1140   2.014   .     S
Cu1124 O1146   1.970   .     S
Cu1124 O1142   1.961   .     S
Cu1124 O1148   1.965   .     S
C1149  C1154   1.403   .     A
C1149  C1150   1.405   .     A
C1150  H1155   1.083   .     S
C1150  C1151   1.398   .     A
C1151  C1152   1.398   .     A
C1152  C1153   1.398   .     A
C1152  H1157   1.082   .     S
C1153  H1158   1.082   .     S
C1153  C1154   1.398   .     A
C1154  H1159   1.083   .     S
H1156  C1385   1.082   .     S
C1160  C1161   1.403   .     A
C1160  C1165   1.405   .     A
C1161  C1162   1.398   .     A
C1161  H1166   1.083   .     S
C1162  C1163   1.398   .     A
C1162  H1167   1.082   .     S
C1163  H1168   1.082   .     S
C1163  C1164   1.398   .     A
C1164  C1165   1.398   .     A
C1164  H1403   1.082   .     S
C1165  H1170   1.083   .     S
C1171  C1180   1.447   .     S
C1171  O1222   1.291   .     A
C1171  O1219   1.291   .     A
C1172  O1220   1.291   .     A
C1172  O1221   1.291   .     A
C1172  C1179   1.447   .     S
C1173  C1198   1.410   .     A
C1173  H1207   1.081   .     S
C1174  C1197   1.410   .     A
C1174  H1208   1.081   .     S
C1174  C498    1.389   1_556 S
C1175  H1209   1.083   .     S
C1175  C1180   1.400   .     A
C1175  C1333   1.383   1_455 S
C1176  C1179   1.400   .     A
C1176  H1210   1.083   .     S
C1176  C1256   1.383   .     S
C1177  H1211   1.083   .     S
C1177  C1179   1.401   .     A
C1177  C1253   1.383   .     S
C1178  H1212   1.083   .     S
C1178  C1180   1.401   .     A
C1178  C1332   1.383   1_455 S
C1181  H1213   1.081   .     S
C1181  N1218   1.367   .     A
C1182  N1217   1.367   .     A
C1182  H1214   1.081   .     S
C1182  C715    1.415   1_565 S
C1183  N1218   1.366   .     A
C1183  H1215   1.078   .     S
C1184  H1216   1.078   .     S
C1184  N1217   1.366   .     A
C1184  C713    1.415   1_565 S
C1185  C1190   1.457   .     S
C1185  O1223   1.292   .     A
C1185  O1226   1.293   .     A
C1186  O1225   1.293   .     A
C1186  C1189   1.457   .     S
C1186  O1224   1.292   .     A
C1187  C1197   1.414   .     A
C1187  C1189   1.414   .     A
C1187  C1227   1.484   .     S
C1188  C1238   1.484   .     S
C1188  C1198   1.414   .     A
C1188  C1190   1.414   .     A
C1189  C1191   1.396   .     A
C1190  C1192   1.396   .     A
C1191  H1203   1.086   .     S
C1191  C1193   1.389   .     A
C1192  H1204   1.086   .     S
C1192  C1194   1.389   .     A
C1193  C1199   1.397   .     A
C1193  C1195   1.409   .     A
C1194  C1200   1.397   .     A
C1194  C1196   1.409   .     A
C1195  C1197   1.418   .     A
C1195  C494    1.410   1_556 S
C1196  C1198   1.418   .     A
C1199  H1205   1.084   .     S
C1199  C471    1.389   1_556 S
C1200  H1206   1.084   .     S
Cu1201 N1217   2.014   .     S
Cu1201 O1219   1.961   .     S
Cu1201 Cu1202  2.680   .     S
Cu1201 O1223   1.970   .     S
Cu1201 O1221   1.961   .     S
Cu1201 O1225   1.965   .     S
Cu1202 O1222   1.961   .     S
Cu1202 N1218   2.014   .     S
Cu1202 O1224   1.970   .     S
Cu1202 O1220   1.961   .     S
Cu1202 O1226   1.965   .     S
C1227  C1232   1.403   .     A
C1227  C1228   1.405   .     A
C1228  H1233   1.083   .     S
C1228  C1229   1.398   .     A
C1229  C1230   1.398   .     A
C1230  C1231   1.398   .     A
C1230  H1235   1.082   .     S
C1231  H1236   1.082   .     S
C1231  C1232   1.398   .     A
C1232  H1237   1.083   .     S
H1234  C761    1.082   1_565 S
C1238  C1239   1.403   .     A
C1238  C1243   1.405   .     A
C1239  C1240   1.398   .     A
C1239  H1244   1.083   .     S
C1240  C1241   1.398   .     A
C1240  H1245   1.082   .     S
C1241  H1246   1.082   .     S
C1241  C1242   1.398   .     A
C1242  C1243   1.398   .     A
C1242  H779    1.082   1_565 S
C1243  H1248   1.083   .     S
C1249  C1258   1.447   .     S
C1249  O1300   1.291   .     A
C1249  O1297   1.291   .     A
C1250  O1298   1.291   .     A
C1250  O1299   1.291   .     A
C1250  C1257   1.447   .     S
C1251  C1276   1.410   .     A
C1251  H1285   1.081   .     S
C1252  C1275   1.410   .     A
C1252  H1286   1.081   .     S
C1252  C576    1.389   1_556 S
C1253  H1287   1.083   .     S
C1253  C1258   1.400   .     A
C1254  C1257   1.400   .     A
C1254  H1288   1.083   .     S
C1254  C1334   1.383   .     S
C1255  H1289   1.083   .     S
C1255  C1257   1.401   .     A
C1255  C1331   1.383   .     S
C1256  H1290   1.083   .     S
C1256  C1258   1.401   .     A
C1259  H1291   1.081   .     S
C1259  N1296   1.367   .     A
C1260  N1295   1.367   .     A
C1260  H1292   1.081   .     S
C1260  C793    1.415   1_565 S
C1261  N1296   1.366   .     A
C1261  H1293   1.078   .     S
C1262  H1294   1.078   .     S
C1262  N1295   1.366   .     A
C1262  C791    1.415   1_565 S
C1263  C1268   1.457   .     S
C1263  O1301   1.292   .     A
C1263  O1304   1.293   .     A
C1264  O1303   1.293   .     A
C1264  C1267   1.457   .     S
C1264  O1302   1.292   .     A
C1265  C1275   1.414   .     A
C1265  C1267   1.414   .     A
C1265  C1305   1.484   .     S
C1266  C1316   1.484   .     S
C1266  C1276   1.414   .     A
C1266  C1268   1.414   .     A
C1267  C1269   1.396   .     A
C1268  C1270   1.396   .     A
C1269  H1281   1.086   .     S
C1269  C1271   1.389   .     A
C1270  H1282   1.086   .     S
C1270  C1272   1.389   .     A
C1271  C1277   1.397   .     A
C1271  C1273   1.409   .     A
C1272  C1278   1.397   .     A
C1272  C1274   1.409   .     A
C1273  C1275   1.418   .     A
C1273  C572    1.410   1_556 S
C1274  C1276   1.418   .     A
C1277  H1283   1.084   .     S
C1277  C549    1.389   1_556 S
C1278  H1284   1.084   .     S
Cu1279 N1295   2.014   .     S
Cu1279 O1297   1.961   .     S
Cu1279 Cu1280  2.680   .     S
Cu1279 O1301   1.970   .     S
Cu1279 O1299   1.961   .     S
Cu1279 O1303   1.965   .     S
Cu1280 O1300   1.961   .     S
Cu1280 N1296   2.014   .     S
Cu1280 O1302   1.970   .     S
Cu1280 O1298   1.961   .     S
Cu1280 O1304   1.965   .     S
C1305  C1310   1.403   .     A
C1305  C1306   1.405   .     A
C1306  H1311   1.083   .     S
C1306  C1307   1.398   .     A
C1307  C1308   1.398   .     A
C1308  C1309   1.398   .     A
C1308  H1313   1.082   .     S
C1309  H1314   1.082   .     S
C1309  C1310   1.398   .     A
C1310  H1315   1.083   .     S
H1312  C839    1.082   1_565 S
C1316  C1317   1.403   .     A
C1316  C1321   1.405   .     A
C1317  C1318   1.398   .     A
C1317  H1322   1.083   .     S
C1318  C1319   1.398   .     A
C1318  H1323   1.082   .     S
C1319  H1324   1.082   .     S
C1319  C1320   1.398   .     A
C1320  C1321   1.398   .     A
C1320  H857    1.082   1_565 S
C1321  H1326   1.083   .     S
C1327  C1336   1.447   .     S
C1327  O1378   1.291   .     A
C1327  O1375   1.291   .     A
C1328  O1376   1.291   .     A
C1328  O1377   1.291   .     A
C1328  C1335   1.447   .     S
C1329  C1354   1.410   .     A
C1329  H1363   1.081   .     S
C1330  C1353   1.410   .     A
C1330  H1364   1.081   .     S
C1330  C654    1.389   1_556 S
C1331  H1365   1.083   .     S
C1331  C1336   1.400   .     A
C1332  C1335   1.400   .     A
C1332  H1366   1.083   .     S
C1332  C1178   1.383   1_655 S
C1333  H1367   1.083   .     S
C1333  C1335   1.401   .     A
C1333  C1175   1.383   1_655 S
C1334  H1368   1.083   .     S
C1334  C1336   1.401   .     A
C1337  H1369   1.081   .     S
C1337  N1374   1.367   .     A
C1338  N1373   1.367   .     A
C1338  H1370   1.081   .     S
C1338  C871    1.415   1_565 S
C1339  N1374   1.366   .     A
C1339  H1371   1.078   .     S
C1340  H1372   1.078   .     S
C1340  N1373   1.366   .     A
C1340  C869    1.415   1_565 S
C1341  C1346   1.457   .     S
C1341  O1379   1.292   .     A
C1341  O1382   1.293   .     A
C1342  O1381   1.293   .     A
C1342  C1345   1.457   .     S
C1342  O1380   1.292   .     A
C1343  C1353   1.414   .     A
C1343  C1345   1.414   .     A
C1343  C1383   1.484   .     S
C1344  C1394   1.484   .     S
C1344  C1354   1.414   .     A
C1344  C1346   1.414   .     A
C1345  C1347   1.396   .     A
C1346  C1348   1.396   .     A
C1347  H1359   1.086   .     S
C1347  C1349   1.389   .     A
C1348  H1360   1.086   .     S
C1348  C1350   1.389   .     A
C1349  C1355   1.397   .     A
C1349  C1351   1.409   .     A
C1350  C1356   1.397   .     A
C1350  C1352   1.409   .     A
C1351  C1353   1.418   .     A
C1351  C650    1.410   1_556 S
C1352  C1354   1.418   .     A
C1355  H1361   1.084   .     S
C1355  C627    1.389   1_556 S
C1356  H1362   1.084   .     S
Cu1357 N1373   2.014   .     S
Cu1357 O1375   1.961   .     S
Cu1357 Cu1358  2.680   .     S
Cu1357 O1379   1.970   .     S
Cu1357 O1377   1.961   .     S
Cu1357 O1381   1.965   .     S
Cu1358 O1378   1.961   .     S
Cu1358 N1374   2.014   .     S
Cu1358 O1380   1.970   .     S
Cu1358 O1376   1.961   .     S
Cu1358 O1382   1.965   .     S
C1383  C1388   1.403   .     A
C1383  C1384   1.405   .     A
C1384  H1389   1.083   .     S
C1384  C1385   1.398   .     A
C1385  C1386   1.398   .     A
C1386  C1387   1.398   .     A
C1386  H1391   1.082   .     S
C1387  H1392   1.082   .     S
C1387  C1388   1.398   .     A
C1388  H1393   1.083   .     S
H1390  C917    1.082   1_565 S
C1394  C1395   1.403   .     A
C1394  C1399   1.405   .     A
C1395  C1396   1.398   .     A
C1395  H1400   1.083   .     S
C1396  C1397   1.398   .     A
C1396  H1401   1.082   .     S
C1397  H1402   1.082   .     S
C1397  C1398   1.398   .     A
C1398  C1399   1.398   .     A
C1398  H935    1.082   1_565 S
C1399  H1404   1.083   .     S
