data_str_m2_o1_o16_pcu_sym.135
_audit_creation_date              2020-01-03
_audit_creation_method            'Materials Studio'
_symmetry_space_group_name_H-M    'P1'
_symmetry_Int_Tables_number       1
_symmetry_cell_setting            triclinic
loop_
_symmetry_equiv_pos_as_xyz
  x,y,z
_cell_length_a                    28.5775
_cell_length_b                    32.5260
_cell_length_c                    26.8594
_cell_angle_alpha                 90.2425
_cell_angle_beta                  72.5519
_cell_angle_gamma                 90.0679
loop_
_atom_site_label
_atom_site_type_symbol
_atom_site_fract_x
_atom_site_fract_y
_atom_site_fract_z
_atom_site_U_iso_or_equiv
_atom_site_adp_type
_atom_site_occupancy
C1     C     0.16665   0.24590   0.25015   0.00000  Uiso   1.00
C2     C     0.14985   0.15670   0.48610   0.00000  Uiso   1.00
C3     C     0.15408   0.17599   0.43753   0.00000  Uiso   1.00
C4     C     0.18333   0.16865   0.01359   0.00000  Uiso   1.00
C5     C     0.22500   0.19291   0.48847   0.00000  Uiso   1.00
C6     C     0.22555   0.21408   0.44308   0.00000  Uiso   1.00
C7     C     0.18792   0.20847   0.42031   0.00000  Uiso   1.00
C8     C     0.17424   0.16059   0.06679   0.00000  Uiso   1.00
C9     C     0.25325   0.18838   0.06511   0.00000  Uiso   1.00
C10    C     0.12434   0.16235   0.40714   0.00000  Uiso   1.00
C11    C     0.20410   0.31183   0.26267   0.00000  Uiso   1.00
C12    C     0.14030   0.16706   0.35012   0.00000  Uiso   1.00
C13    C     0.20415   0.02103   0.26286   0.00000  Uiso   1.00
C14    C     0.16655   0.04258   0.25027   0.00000  Uiso   1.00
C15    C     0.12891   0.02083   0.23784   0.00000  Uiso   1.00
C16    C     0.12899   0.31164   0.23811   0.00000  Uiso   1.00
C17    C     0.16659   0.29039   0.25032   0.00000  Uiso   1.00
C18    C     0.30052   0.19439   0.27942   0.00000  Uiso   1.00
C19    C     0.01660   0.19417   0.27969   0.00000  Uiso   1.00
C20    C     0.03317   0.13925   0.22001   0.00000  Uiso   1.00
C21    C     0.31687   0.13918   0.22014   0.00000  Uiso   1.00
C22    C     0.16662   0.08732   0.25007   0.00000  Uiso   1.00
C23    C     0.19293   0.16729   0.14990   0.00000  Uiso   1.00
C24    C     0.26217   0.19939   0.01288   0.00000  Uiso   1.00
C25    C     0.20807   0.17104   0.09289   0.00000  Uiso   1.00
C26    C     0.08480   0.13612   0.42891   0.00000  Uiso   1.00
C27    C     0.07930   0.11802   0.47688   0.00000  Uiso   1.00
C28    C     0.11356   0.12538   0.00400   0.00000  Uiso   1.00
Cu29   Cu    0.11978   0.16666   0.25000   0.00000  Uiso   1.00
Cu30   Cu    0.21355   0.16667   0.25000   0.00000  Uiso   1.00
H31    H     0.09988   0.29539   0.22815   0.00000  Uiso   1.00
H32    H     0.02869   0.21623   0.30348   0.00000  Uiso   1.00
H33    H     0.05858   0.11735   0.19588   0.00000  Uiso   1.00
H34    H     0.30490   0.11720   0.19618   0.00000  Uiso   1.00
H35    H     0.25290   0.23749   0.42738   0.00000  Uiso   1.00
H36    H     0.13883   0.14962   0.08986   0.00000  Uiso   1.00
H37    H     0.06090   0.12624   0.40655   0.00000  Uiso   1.00
H38    H     0.05059   0.09535   0.49074   0.00000  Uiso   1.00
H39    H     0.23318   0.29573   0.27269   0.00000  Uiso   1.00
N40    N     0.04931   0.16666   0.24999   0.00000  Uiso   1.00
N41    N     0.28402   0.16669   0.25000   0.00000  Uiso   1.00
O42    O     0.12708   0.22678   0.25001   0.00000  Uiso   1.00
O43    O     0.20627   0.22679   0.25001   0.00000  Uiso   1.00
O44    O     0.10775   0.16665   0.32549   0.00000  Uiso   1.00
O45    O     0.18694   0.16666   0.32549   0.00000  Uiso   1.00
O46    O     0.12706   0.10654   0.25000   0.00000  Uiso   1.00
O47    O     0.20625   0.10655   0.25000   0.00000  Uiso   1.00
O48    O     0.14640   0.16667   0.17451   0.00000  Uiso   1.00
O49    O     0.22559   0.16668   0.17451   0.00000  Uiso   1.00
F50    F     0.28749   0.19735   0.08933   0.00000  Uiso   1.00
F51    F     0.24061   0.04080   0.27612   0.00000  Uiso   1.00
F52    F     0.09243   0.04037   0.22458   0.00000  Uiso   1.00
F53    F     0.26966   0.22285   0.30830   0.00000  Uiso   1.00
O54    O     0.30665   0.21758   0.48790   0.00000  Uiso   1.00
H55    H     0.31459   0.21227   0.44994   0.00000  Uiso   1.00
O56    O     0.11443   0.09981   0.04469   0.00000  Uiso   1.00
H57    H     0.08702   0.07982   0.05139   0.00000  Uiso   1.00
O58    O     0.18200   0.23555   0.38309   0.00000  Uiso   1.00
H59    H     0.20485   0.25902   0.38005   0.00000  Uiso   1.00
C60    C     0.49999   0.24590   0.25015   0.00000  Uiso   1.00
C61    C     0.48318   0.15670   0.48610   0.00000  Uiso   1.00
C62    C     0.48741   0.17599   0.43753   0.00000  Uiso   1.00
C63    C     0.51666   0.16865   0.01359   0.00000  Uiso   1.00
C64    C     0.55834   0.19291   0.48847   0.00000  Uiso   1.00
C65    C     0.55889   0.21408   0.44308   0.00000  Uiso   1.00
C66    C     0.52125   0.20847   0.42031   0.00000  Uiso   1.00
C67    C     0.50757   0.16059   0.06679   0.00000  Uiso   1.00
C68    C     0.58658   0.18838   0.06511   0.00000  Uiso   1.00
C69    C     0.45767   0.16235   0.40714   0.00000  Uiso   1.00
C70    C     0.53743   0.31183   0.26267   0.00000  Uiso   1.00
C71    C     0.47363   0.16706   0.35012   0.00000  Uiso   1.00
C72    C     0.53748   0.02103   0.26286   0.00000  Uiso   1.00
C73    C     0.49989   0.04258   0.25027   0.00000  Uiso   1.00
C74    C     0.46224   0.02083   0.23784   0.00000  Uiso   1.00
C75    C     0.46232   0.31164   0.23811   0.00000  Uiso   1.00
C76    C     0.49992   0.29039   0.25032   0.00000  Uiso   1.00
C77    C     0.63385   0.19439   0.27942   0.00000  Uiso   1.00
C78    C     0.34994   0.19417   0.27969   0.00000  Uiso   1.00
C79    C     0.36650   0.13925   0.22001   0.00000  Uiso   1.00
C80    C     0.65020   0.13918   0.22014   0.00000  Uiso   1.00
C81    C     0.49995   0.08732   0.25007   0.00000  Uiso   1.00
C82    C     0.52626   0.16729   0.14990   0.00000  Uiso   1.00
C83    C     0.59550   0.19939   0.01288   0.00000  Uiso   1.00
C84    C     0.54141   0.17104   0.09289   0.00000  Uiso   1.00
C85    C     0.41813   0.13612   0.42891   0.00000  Uiso   1.00
C86    C     0.41264   0.11802   0.47688   0.00000  Uiso   1.00
C87    C     0.44689   0.12538   0.00400   0.00000  Uiso   1.00
Cu88   Cu    0.45311   0.16666   0.25000   0.00000  Uiso   1.00
Cu89   Cu    0.54689   0.16667   0.25000   0.00000  Uiso   1.00
H90    H     0.43322   0.29539   0.22815   0.00000  Uiso   1.00
H91    H     0.36202   0.21623   0.30348   0.00000  Uiso   1.00
H92    H     0.39191   0.11735   0.19588   0.00000  Uiso   1.00
H93    H     0.63824   0.11720   0.19618   0.00000  Uiso   1.00
H94    H     0.58623   0.23749   0.42738   0.00000  Uiso   1.00
H95    H     0.47216   0.14962   0.08986   0.00000  Uiso   1.00
H96    H     0.39424   0.12624   0.40655   0.00000  Uiso   1.00
H97    H     0.38392   0.09535   0.49074   0.00000  Uiso   1.00
H98    H     0.56651   0.29573   0.27269   0.00000  Uiso   1.00
N99    N     0.38265   0.16666   0.24999   0.00000  Uiso   1.00
N100   N     0.61735   0.16669   0.25000   0.00000  Uiso   1.00
O101   O     0.46042   0.22678   0.25001   0.00000  Uiso   1.00
O102   O     0.53961   0.22679   0.25001   0.00000  Uiso   1.00
O103   O     0.44108   0.16665   0.32549   0.00000  Uiso   1.00
O104   O     0.52027   0.16666   0.32549   0.00000  Uiso   1.00
O105   O     0.46039   0.10654   0.25000   0.00000  Uiso   1.00
O106   O     0.53958   0.10655   0.25000   0.00000  Uiso   1.00
O107   O     0.47973   0.16667   0.17451   0.00000  Uiso   1.00
O108   O     0.55892   0.16668   0.17451   0.00000  Uiso   1.00
F109   F     0.62082   0.19735   0.08933   0.00000  Uiso   1.00
F110   F     0.57394   0.04080   0.27612   0.00000  Uiso   1.00
F111   F     0.42576   0.04037   0.22458   0.00000  Uiso   1.00
F112   F     0.60300   0.22285   0.30830   0.00000  Uiso   1.00
O113   O     0.63998   0.21758   0.48790   0.00000  Uiso   1.00
H114   H     0.64793   0.21227   0.44994   0.00000  Uiso   1.00
O115   O     0.44776   0.09981   0.04469   0.00000  Uiso   1.00
H116   H     0.42035   0.07982   0.05139   0.00000  Uiso   1.00
O117   O     0.51534   0.23555   0.38309   0.00000  Uiso   1.00
H118   H     0.53819   0.25902   0.38005   0.00000  Uiso   1.00
C119   C     0.83332   0.24590   0.25015   0.00000  Uiso   1.00
C120   C     0.81651   0.15670   0.48610   0.00000  Uiso   1.00
C121   C     0.82075   0.17599   0.43753   0.00000  Uiso   1.00
C122   C     0.85000   0.16865   0.01359   0.00000  Uiso   1.00
C123   C     0.89167   0.19291   0.48847   0.00000  Uiso   1.00
C124   C     0.89222   0.21408   0.44308   0.00000  Uiso   1.00
C125   C     0.85459   0.20847   0.42031   0.00000  Uiso   1.00
C126   C     0.84090   0.16059   0.06679   0.00000  Uiso   1.00
C127   C     0.91991   0.18838   0.06511   0.00000  Uiso   1.00
C128   C     0.79101   0.16235   0.40714   0.00000  Uiso   1.00
C129   C     0.87076   0.31183   0.26267   0.00000  Uiso   1.00
C130   C     0.80697   0.16706   0.35012   0.00000  Uiso   1.00
C131   C     0.87082   0.02103   0.26286   0.00000  Uiso   1.00
C132   C     0.83322   0.04258   0.25027   0.00000  Uiso   1.00
C133   C     0.79558   0.02083   0.23784   0.00000  Uiso   1.00
C134   C     0.79566   0.31164   0.23811   0.00000  Uiso   1.00
C135   C     0.83326   0.29039   0.25032   0.00000  Uiso   1.00
C136   C     0.96719   0.19439   0.27942   0.00000  Uiso   1.00
C137   C     0.68327   0.19417   0.27969   0.00000  Uiso   1.00
C138   C     0.69984   0.13925   0.22001   0.00000  Uiso   1.00
C139   C     0.98353   0.13918   0.22014   0.00000  Uiso   1.00
C140   C     0.83328   0.08732   0.25007   0.00000  Uiso   1.00
C141   C     0.85960   0.16729   0.14990   0.00000  Uiso   1.00
C142   C     0.92884   0.19939   0.01288   0.00000  Uiso   1.00
C143   C     0.87474   0.17104   0.09289   0.00000  Uiso   1.00
C144   C     0.75147   0.13612   0.42891   0.00000  Uiso   1.00
C145   C     0.74597   0.11802   0.47688   0.00000  Uiso   1.00
C146   C     0.78023   0.12538   0.00400   0.00000  Uiso   1.00
Cu147  Cu    0.78645   0.16666   0.25000   0.00000  Uiso   1.00
Cu148  Cu    0.88022   0.16667   0.25000   0.00000  Uiso   1.00
H149   H     0.76655   0.29539   0.22815   0.00000  Uiso   1.00
H150   H     0.69535   0.21623   0.30348   0.00000  Uiso   1.00
H151   H     0.72524   0.11735   0.19588   0.00000  Uiso   1.00
H152   H     0.97157   0.11720   0.19618   0.00000  Uiso   1.00
H153   H     0.91956   0.23749   0.42738   0.00000  Uiso   1.00
H154   H     0.80549   0.14962   0.08986   0.00000  Uiso   1.00
H155   H     0.72757   0.12624   0.40655   0.00000  Uiso   1.00
H156   H     0.71726   0.09535   0.49074   0.00000  Uiso   1.00
H157   H     0.89985   0.29573   0.27269   0.00000  Uiso   1.00
N158   N     0.71598   0.16666   0.24999   0.00000  Uiso   1.00
N159   N     0.95069   0.16669   0.25000   0.00000  Uiso   1.00
O160   O     0.79375   0.22678   0.25001   0.00000  Uiso   1.00
O161   O     0.87294   0.22679   0.25001   0.00000  Uiso   1.00
O162   O     0.77441   0.16665   0.32549   0.00000  Uiso   1.00
O163   O     0.85360   0.16666   0.32549   0.00000  Uiso   1.00
O164   O     0.79373   0.10654   0.25000   0.00000  Uiso   1.00
O165   O     0.87292   0.10655   0.25000   0.00000  Uiso   1.00
O166   O     0.81306   0.16667   0.17451   0.00000  Uiso   1.00
O167   O     0.89225   0.16668   0.17451   0.00000  Uiso   1.00
F168   F     0.95416   0.19735   0.08933   0.00000  Uiso   1.00
F169   F     0.90728   0.04080   0.27612   0.00000  Uiso   1.00
F170   F     0.75909   0.04037   0.22458   0.00000  Uiso   1.00
F171   F     0.93633   0.22285   0.30830   0.00000  Uiso   1.00
O172   O     0.97332   0.21758   0.48790   0.00000  Uiso   1.00
H173   H     0.98126   0.21227   0.44994   0.00000  Uiso   1.00
O174   O     0.78110   0.09981   0.04469   0.00000  Uiso   1.00
H175   H     0.75369   0.07982   0.05139   0.00000  Uiso   1.00
O176   O     0.84867   0.23555   0.38309   0.00000  Uiso   1.00
H177   H     0.87152   0.25902   0.38005   0.00000  Uiso   1.00
C178   C     0.16665   0.57924   0.25015   0.00000  Uiso   1.00
C179   C     0.14985   0.49003   0.48610   0.00000  Uiso   1.00
C180   C     0.15408   0.50932   0.43753   0.00000  Uiso   1.00
C181   C     0.18333   0.50198   0.01359   0.00000  Uiso   1.00
C182   C     0.22500   0.52625   0.48847   0.00000  Uiso   1.00
C183   C     0.22555   0.54741   0.44308   0.00000  Uiso   1.00
C184   C     0.18792   0.54180   0.42031   0.00000  Uiso   1.00
C185   C     0.17424   0.49393   0.06679   0.00000  Uiso   1.00
C186   C     0.25325   0.52171   0.06511   0.00000  Uiso   1.00
C187   C     0.12434   0.49569   0.40714   0.00000  Uiso   1.00
C188   C     0.20410   0.64517   0.26267   0.00000  Uiso   1.00
C189   C     0.14030   0.50040   0.35012   0.00000  Uiso   1.00
C190   C     0.20415   0.35437   0.26286   0.00000  Uiso   1.00
C191   C     0.16655   0.37592   0.25027   0.00000  Uiso   1.00
C192   C     0.12891   0.35416   0.23784   0.00000  Uiso   1.00
C193   C     0.12899   0.64498   0.23811   0.00000  Uiso   1.00
C194   C     0.16659   0.62373   0.25032   0.00000  Uiso   1.00
C195   C     0.30052   0.52772   0.27942   0.00000  Uiso   1.00
C196   C     0.01660   0.52750   0.27969   0.00000  Uiso   1.00
C197   C     0.03317   0.47258   0.22001   0.00000  Uiso   1.00
C198   C     0.31687   0.47252   0.22014   0.00000  Uiso   1.00
C199   C     0.16662   0.42065   0.25007   0.00000  Uiso   1.00
C200   C     0.19293   0.50063   0.14990   0.00000  Uiso   1.00
C201   C     0.26217   0.53273   0.01288   0.00000  Uiso   1.00
C202   C     0.20807   0.50437   0.09289   0.00000  Uiso   1.00
C203   C     0.08480   0.46946   0.42891   0.00000  Uiso   1.00
C204   C     0.07930   0.45135   0.47688   0.00000  Uiso   1.00
C205   C     0.11356   0.45871   0.00400   0.00000  Uiso   1.00
Cu206  Cu    0.11978   0.49999   0.25000   0.00000  Uiso   1.00
Cu207  Cu    0.21355   0.50001   0.25000   0.00000  Uiso   1.00
H208   H     0.09988   0.62873   0.22815   0.00000  Uiso   1.00
H209   H     0.02869   0.54957   0.30348   0.00000  Uiso   1.00
H210   H     0.05858   0.45068   0.19588   0.00000  Uiso   1.00
H211   H     0.30490   0.45053   0.19618   0.00000  Uiso   1.00
H212   H     0.25290   0.57082   0.42738   0.00000  Uiso   1.00
H213   H     0.13883   0.48295   0.08986   0.00000  Uiso   1.00
H214   H     0.06090   0.45957   0.40655   0.00000  Uiso   1.00
H215   H     0.05059   0.42869   0.49074   0.00000  Uiso   1.00
H216   H     0.23318   0.62907   0.27269   0.00000  Uiso   1.00
N217   N     0.04931   0.49999   0.24999   0.00000  Uiso   1.00
N218   N     0.28402   0.50002   0.25000   0.00000  Uiso   1.00
O219   O     0.12708   0.56011   0.25001   0.00000  Uiso   1.00
O220   O     0.20627   0.56012   0.25001   0.00000  Uiso   1.00
O221   O     0.10775   0.49998   0.32549   0.00000  Uiso   1.00
O222   O     0.18694   0.49999   0.32549   0.00000  Uiso   1.00
O223   O     0.12706   0.43988   0.25000   0.00000  Uiso   1.00
O224   O     0.20625   0.43989   0.25000   0.00000  Uiso   1.00
O225   O     0.14640   0.50001   0.17451   0.00000  Uiso   1.00
O226   O     0.22559   0.50002   0.17451   0.00000  Uiso   1.00
F227   F     0.28749   0.53068   0.08933   0.00000  Uiso   1.00
F228   F     0.24061   0.37413   0.27612   0.00000  Uiso   1.00
F229   F     0.09243   0.37370   0.22458   0.00000  Uiso   1.00
F230   F     0.26966   0.55618   0.30830   0.00000  Uiso   1.00
O231   O     0.30665   0.55091   0.48790   0.00000  Uiso   1.00
H232   H     0.31459   0.54561   0.44994   0.00000  Uiso   1.00
O233   O     0.11443   0.43314   0.04469   0.00000  Uiso   1.00
H234   H     0.08702   0.41315   0.05139   0.00000  Uiso   1.00
O235   O     0.18200   0.56888   0.38309   0.00000  Uiso   1.00
H236   H     0.20485   0.59236   0.38005   0.00000  Uiso   1.00
C237   C     0.49999   0.57924   0.25015   0.00000  Uiso   1.00
C238   C     0.48318   0.49003   0.48610   0.00000  Uiso   1.00
C239   C     0.48741   0.50932   0.43753   0.00000  Uiso   1.00
C240   C     0.51666   0.50198   0.01359   0.00000  Uiso   1.00
C241   C     0.55834   0.52625   0.48847   0.00000  Uiso   1.00
C242   C     0.55889   0.54741   0.44308   0.00000  Uiso   1.00
C243   C     0.52125   0.54180   0.42031   0.00000  Uiso   1.00
C244   C     0.50757   0.49393   0.06679   0.00000  Uiso   1.00
C245   C     0.58658   0.52171   0.06511   0.00000  Uiso   1.00
C246   C     0.45767   0.49569   0.40714   0.00000  Uiso   1.00
C247   C     0.53743   0.64517   0.26267   0.00000  Uiso   1.00
C248   C     0.47363   0.50040   0.35012   0.00000  Uiso   1.00
C249   C     0.53748   0.35437   0.26286   0.00000  Uiso   1.00
C250   C     0.49989   0.37592   0.25027   0.00000  Uiso   1.00
C251   C     0.46224   0.35416   0.23784   0.00000  Uiso   1.00
C252   C     0.46232   0.64498   0.23811   0.00000  Uiso   1.00
C253   C     0.49992   0.62373   0.25032   0.00000  Uiso   1.00
C254   C     0.63385   0.52772   0.27942   0.00000  Uiso   1.00
C255   C     0.34994   0.52750   0.27969   0.00000  Uiso   1.00
C256   C     0.36650   0.47258   0.22001   0.00000  Uiso   1.00
C257   C     0.65020   0.47252   0.22014   0.00000  Uiso   1.00
C258   C     0.49995   0.42065   0.25007   0.00000  Uiso   1.00
C259   C     0.52626   0.50063   0.14990   0.00000  Uiso   1.00
C260   C     0.59550   0.53273   0.01288   0.00000  Uiso   1.00
C261   C     0.54141   0.50437   0.09289   0.00000  Uiso   1.00
C262   C     0.41813   0.46946   0.42891   0.00000  Uiso   1.00
C263   C     0.41264   0.45135   0.47688   0.00000  Uiso   1.00
C264   C     0.44689   0.45871   0.00400   0.00000  Uiso   1.00
Cu265  Cu    0.45311   0.49999   0.25000   0.00000  Uiso   1.00
Cu266  Cu    0.54689   0.50001   0.25000   0.00000  Uiso   1.00
H267   H     0.43322   0.62873   0.22815   0.00000  Uiso   1.00
H268   H     0.36202   0.54957   0.30348   0.00000  Uiso   1.00
H269   H     0.39191   0.45068   0.19588   0.00000  Uiso   1.00
H270   H     0.63824   0.45053   0.19618   0.00000  Uiso   1.00
H271   H     0.58623   0.57082   0.42738   0.00000  Uiso   1.00
H272   H     0.47216   0.48295   0.08986   0.00000  Uiso   1.00
H273   H     0.39424   0.45957   0.40655   0.00000  Uiso   1.00
H274   H     0.38392   0.42869   0.49074   0.00000  Uiso   1.00
H275   H     0.56651   0.62907   0.27269   0.00000  Uiso   1.00
N276   N     0.38265   0.49999   0.24999   0.00000  Uiso   1.00
N277   N     0.61735   0.50002   0.25000   0.00000  Uiso   1.00
O278   O     0.46042   0.56011   0.25001   0.00000  Uiso   1.00
O279   O     0.53961   0.56012   0.25001   0.00000  Uiso   1.00
O280   O     0.44108   0.49998   0.32549   0.00000  Uiso   1.00
O281   O     0.52027   0.49999   0.32549   0.00000  Uiso   1.00
O282   O     0.46039   0.43988   0.25000   0.00000  Uiso   1.00
O283   O     0.53958   0.43989   0.25000   0.00000  Uiso   1.00
O284   O     0.47973   0.50001   0.17451   0.00000  Uiso   1.00
O285   O     0.55892   0.50002   0.17451   0.00000  Uiso   1.00
F286   F     0.62082   0.53068   0.08933   0.00000  Uiso   1.00
F287   F     0.57394   0.37413   0.27612   0.00000  Uiso   1.00
F288   F     0.42576   0.37370   0.22458   0.00000  Uiso   1.00
F289   F     0.60300   0.55618   0.30830   0.00000  Uiso   1.00
O290   O     0.63998   0.55091   0.48790   0.00000  Uiso   1.00
H291   H     0.64793   0.54561   0.44994   0.00000  Uiso   1.00
O292   O     0.44776   0.43314   0.04469   0.00000  Uiso   1.00
H293   H     0.42035   0.41315   0.05139   0.00000  Uiso   1.00
O294   O     0.51534   0.56888   0.38309   0.00000  Uiso   1.00
H295   H     0.53819   0.59236   0.38005   0.00000  Uiso   1.00
C296   C     0.83332   0.57924   0.25015   0.00000  Uiso   1.00
C297   C     0.81651   0.49003   0.48610   0.00000  Uiso   1.00
C298   C     0.82075   0.50932   0.43753   0.00000  Uiso   1.00
C299   C     0.85000   0.50198   0.01359   0.00000  Uiso   1.00
C300   C     0.89167   0.52625   0.48847   0.00000  Uiso   1.00
C301   C     0.89222   0.54741   0.44308   0.00000  Uiso   1.00
C302   C     0.85459   0.54180   0.42031   0.00000  Uiso   1.00
C303   C     0.84090   0.49393   0.06679   0.00000  Uiso   1.00
C304   C     0.91991   0.52171   0.06511   0.00000  Uiso   1.00
C305   C     0.79101   0.49569   0.40714   0.00000  Uiso   1.00
C306   C     0.87076   0.64517   0.26267   0.00000  Uiso   1.00
C307   C     0.80697   0.50040   0.35012   0.00000  Uiso   1.00
C308   C     0.87082   0.35437   0.26286   0.00000  Uiso   1.00
C309   C     0.83322   0.37592   0.25027   0.00000  Uiso   1.00
C310   C     0.79558   0.35416   0.23784   0.00000  Uiso   1.00
C311   C     0.79566   0.64498   0.23811   0.00000  Uiso   1.00
C312   C     0.83326   0.62373   0.25032   0.00000  Uiso   1.00
C313   C     0.96719   0.52772   0.27942   0.00000  Uiso   1.00
C314   C     0.68327   0.52750   0.27969   0.00000  Uiso   1.00
C315   C     0.69984   0.47258   0.22001   0.00000  Uiso   1.00
C316   C     0.98353   0.47252   0.22014   0.00000  Uiso   1.00
C317   C     0.83328   0.42065   0.25007   0.00000  Uiso   1.00
C318   C     0.85960   0.50063   0.14990   0.00000  Uiso   1.00
C319   C     0.92884   0.53273   0.01288   0.00000  Uiso   1.00
C320   C     0.87474   0.50437   0.09289   0.00000  Uiso   1.00
C321   C     0.75147   0.46946   0.42891   0.00000  Uiso   1.00
C322   C     0.74597   0.45135   0.47688   0.00000  Uiso   1.00
C323   C     0.78023   0.45871   0.00400   0.00000  Uiso   1.00
Cu324  Cu    0.78645   0.49999   0.25000   0.00000  Uiso   1.00
Cu325  Cu    0.88022   0.50001   0.25000   0.00000  Uiso   1.00
H326   H     0.76655   0.62873   0.22815   0.00000  Uiso   1.00
H327   H     0.69535   0.54957   0.30348   0.00000  Uiso   1.00
H328   H     0.72524   0.45068   0.19588   0.00000  Uiso   1.00
H329   H     0.97157   0.45053   0.19618   0.00000  Uiso   1.00
H330   H     0.91956   0.57082   0.42738   0.00000  Uiso   1.00
H331   H     0.80549   0.48295   0.08986   0.00000  Uiso   1.00
H332   H     0.72757   0.45957   0.40655   0.00000  Uiso   1.00
H333   H     0.71726   0.42869   0.49074   0.00000  Uiso   1.00
H334   H     0.89985   0.62907   0.27269   0.00000  Uiso   1.00
N335   N     0.71598   0.49999   0.24999   0.00000  Uiso   1.00
N336   N     0.95069   0.50002   0.25000   0.00000  Uiso   1.00
O337   O     0.79375   0.56011   0.25001   0.00000  Uiso   1.00
O338   O     0.87294   0.56012   0.25001   0.00000  Uiso   1.00
O339   O     0.77441   0.49998   0.32549   0.00000  Uiso   1.00
O340   O     0.85360   0.49999   0.32549   0.00000  Uiso   1.00
O341   O     0.79373   0.43988   0.25000   0.00000  Uiso   1.00
O342   O     0.87292   0.43989   0.25000   0.00000  Uiso   1.00
O343   O     0.81306   0.50001   0.17451   0.00000  Uiso   1.00
O344   O     0.89225   0.50002   0.17451   0.00000  Uiso   1.00
F345   F     0.95416   0.53068   0.08933   0.00000  Uiso   1.00
F346   F     0.90728   0.37413   0.27612   0.00000  Uiso   1.00
F347   F     0.75909   0.37370   0.22458   0.00000  Uiso   1.00
F348   F     0.93633   0.55618   0.30830   0.00000  Uiso   1.00
O349   O     0.97332   0.55091   0.48790   0.00000  Uiso   1.00
H350   H     0.98126   0.54561   0.44994   0.00000  Uiso   1.00
O351   O     0.78110   0.43314   0.04469   0.00000  Uiso   1.00
H352   H     0.75369   0.41315   0.05139   0.00000  Uiso   1.00
O353   O     0.84867   0.56888   0.38309   0.00000  Uiso   1.00
H354   H     0.87152   0.59236   0.38005   0.00000  Uiso   1.00
C355   C     0.16665   0.91257   0.25015   0.00000  Uiso   1.00
C356   C     0.14985   0.82337   0.48610   0.00000  Uiso   1.00
C357   C     0.15408   0.84265   0.43753   0.00000  Uiso   1.00
C358   C     0.18333   0.83531   0.01359   0.00000  Uiso   1.00
C359   C     0.22500   0.85958   0.48847   0.00000  Uiso   1.00
C360   C     0.22555   0.88075   0.44308   0.00000  Uiso   1.00
C361   C     0.18792   0.87513   0.42031   0.00000  Uiso   1.00
C362   C     0.17424   0.82726   0.06679   0.00000  Uiso   1.00
C363   C     0.25325   0.85504   0.06511   0.00000  Uiso   1.00
C364   C     0.12434   0.82902   0.40714   0.00000  Uiso   1.00
C365   C     0.20410   0.97850   0.26267   0.00000  Uiso   1.00
C366   C     0.14030   0.83373   0.35012   0.00000  Uiso   1.00
C367   C     0.20415   0.68770   0.26286   0.00000  Uiso   1.00
C368   C     0.16655   0.70925   0.25027   0.00000  Uiso   1.00
C369   C     0.12891   0.68750   0.23784   0.00000  Uiso   1.00
C370   C     0.12899   0.97831   0.23811   0.00000  Uiso   1.00
C371   C     0.16659   0.95706   0.25032   0.00000  Uiso   1.00
C372   C     0.30052   0.86106   0.27942   0.00000  Uiso   1.00
C373   C     0.01660   0.86084   0.27969   0.00000  Uiso   1.00
C374   C     0.03317   0.80592   0.22001   0.00000  Uiso   1.00
C375   C     0.31687   0.80585   0.22014   0.00000  Uiso   1.00
C376   C     0.16662   0.75399   0.25007   0.00000  Uiso   1.00
C377   C     0.19293   0.83396   0.14990   0.00000  Uiso   1.00
C378   C     0.26217   0.86606   0.01288   0.00000  Uiso   1.00
C379   C     0.20807   0.83771   0.09289   0.00000  Uiso   1.00
C380   C     0.08480   0.80279   0.42891   0.00000  Uiso   1.00
C381   C     0.07930   0.78469   0.47688   0.00000  Uiso   1.00
C382   C     0.11356   0.79205   0.00400   0.00000  Uiso   1.00
Cu383  Cu    0.11978   0.83333   0.25000   0.00000  Uiso   1.00
Cu384  Cu    0.21355   0.83334   0.25000   0.00000  Uiso   1.00
H385   H     0.09988   0.96206   0.22815   0.00000  Uiso   1.00
H386   H     0.02869   0.88290   0.30348   0.00000  Uiso   1.00
H387   H     0.05858   0.78401   0.19588   0.00000  Uiso   1.00
H388   H     0.30490   0.78387   0.19618   0.00000  Uiso   1.00
H389   H     0.25290   0.90415   0.42738   0.00000  Uiso   1.00
H390   H     0.13883   0.81628   0.08986   0.00000  Uiso   1.00
H391   H     0.06090   0.79290   0.40655   0.00000  Uiso   1.00
H392   H     0.05059   0.76202   0.49074   0.00000  Uiso   1.00
H393   H     0.23318   0.96240   0.27269   0.00000  Uiso   1.00
N394   N     0.04931   0.83332   0.24999   0.00000  Uiso   1.00
N395   N     0.28402   0.83335   0.25000   0.00000  Uiso   1.00
O396   O     0.12708   0.89345   0.25001   0.00000  Uiso   1.00
O397   O     0.20627   0.89346   0.25001   0.00000  Uiso   1.00
O398   O     0.10775   0.83332   0.32549   0.00000  Uiso   1.00
O399   O     0.18694   0.83333   0.32549   0.00000  Uiso   1.00
O400   O     0.12706   0.77321   0.25000   0.00000  Uiso   1.00
O401   O     0.20625   0.77322   0.25000   0.00000  Uiso   1.00
O402   O     0.14640   0.83334   0.17451   0.00000  Uiso   1.00
O403   O     0.22559   0.83335   0.17451   0.00000  Uiso   1.00
F404   F     0.28749   0.86402   0.08933   0.00000  Uiso   1.00
F405   F     0.24061   0.70747   0.27612   0.00000  Uiso   1.00
F406   F     0.09243   0.70703   0.22458   0.00000  Uiso   1.00
F407   F     0.26966   0.88952   0.30830   0.00000  Uiso   1.00
O408   O     0.30665   0.88425   0.48790   0.00000  Uiso   1.00
H409   H     0.31459   0.87894   0.44994   0.00000  Uiso   1.00
O410   O     0.11443   0.76648   0.04469   0.00000  Uiso   1.00
H411   H     0.08702   0.74649   0.05139   0.00000  Uiso   1.00
O412   O     0.18200   0.90221   0.38309   0.00000  Uiso   1.00
H413   H     0.20485   0.92569   0.38005   0.00000  Uiso   1.00
C414   C     0.49999   0.91257   0.25015   0.00000  Uiso   1.00
C415   C     0.48318   0.82337   0.48610   0.00000  Uiso   1.00
C416   C     0.48741   0.84265   0.43753   0.00000  Uiso   1.00
C417   C     0.51666   0.83531   0.01359   0.00000  Uiso   1.00
C418   C     0.55834   0.85958   0.48847   0.00000  Uiso   1.00
C419   C     0.55889   0.88075   0.44308   0.00000  Uiso   1.00
C420   C     0.52125   0.87513   0.42031   0.00000  Uiso   1.00
C421   C     0.50757   0.82726   0.06679   0.00000  Uiso   1.00
C422   C     0.58658   0.85504   0.06511   0.00000  Uiso   1.00
C423   C     0.45767   0.82902   0.40714   0.00000  Uiso   1.00
C424   C     0.53743   0.97850   0.26267   0.00000  Uiso   1.00
C425   C     0.47363   0.83373   0.35012   0.00000  Uiso   1.00
C426   C     0.53748   0.68770   0.26286   0.00000  Uiso   1.00
C427   C     0.49989   0.70925   0.25027   0.00000  Uiso   1.00
C428   C     0.46224   0.68750   0.23784   0.00000  Uiso   1.00
C429   C     0.46232   0.97831   0.23811   0.00000  Uiso   1.00
C430   C     0.49992   0.95706   0.25032   0.00000  Uiso   1.00
C431   C     0.63385   0.86106   0.27942   0.00000  Uiso   1.00
C432   C     0.34994   0.86084   0.27969   0.00000  Uiso   1.00
C433   C     0.36650   0.80592   0.22001   0.00000  Uiso   1.00
C434   C     0.65020   0.80585   0.22014   0.00000  Uiso   1.00
C435   C     0.49995   0.75399   0.25007   0.00000  Uiso   1.00
C436   C     0.52626   0.83396   0.14990   0.00000  Uiso   1.00
C437   C     0.59550   0.86606   0.01288   0.00000  Uiso   1.00
C438   C     0.54141   0.83771   0.09289   0.00000  Uiso   1.00
C439   C     0.41813   0.80279   0.42891   0.00000  Uiso   1.00
C440   C     0.41264   0.78469   0.47688   0.00000  Uiso   1.00
C441   C     0.44689   0.79205   0.00400   0.00000  Uiso   1.00
Cu442  Cu    0.45311   0.83333   0.25000   0.00000  Uiso   1.00
Cu443  Cu    0.54689   0.83334   0.25000   0.00000  Uiso   1.00
H444   H     0.43322   0.96206   0.22815   0.00000  Uiso   1.00
H445   H     0.36202   0.88290   0.30348   0.00000  Uiso   1.00
H446   H     0.39191   0.78401   0.19588   0.00000  Uiso   1.00
H447   H     0.63824   0.78387   0.19618   0.00000  Uiso   1.00
H448   H     0.58623   0.90415   0.42738   0.00000  Uiso   1.00
H449   H     0.47216   0.81628   0.08986   0.00000  Uiso   1.00
H450   H     0.39424   0.79290   0.40655   0.00000  Uiso   1.00
H451   H     0.38392   0.76202   0.49074   0.00000  Uiso   1.00
H452   H     0.56651   0.96240   0.27269   0.00000  Uiso   1.00
N453   N     0.38265   0.83332   0.24999   0.00000  Uiso   1.00
N454   N     0.61735   0.83335   0.25000   0.00000  Uiso   1.00
O455   O     0.46042   0.89345   0.25001   0.00000  Uiso   1.00
O456   O     0.53961   0.89346   0.25001   0.00000  Uiso   1.00
O457   O     0.44108   0.83332   0.32549   0.00000  Uiso   1.00
O458   O     0.52027   0.83333   0.32549   0.00000  Uiso   1.00
O459   O     0.46039   0.77321   0.25000   0.00000  Uiso   1.00
O460   O     0.53958   0.77322   0.25000   0.00000  Uiso   1.00
O461   O     0.47973   0.83334   0.17451   0.00000  Uiso   1.00
O462   O     0.55892   0.83335   0.17451   0.00000  Uiso   1.00
F463   F     0.62082   0.86402   0.08933   0.00000  Uiso   1.00
F464   F     0.57394   0.70747   0.27612   0.00000  Uiso   1.00
F465   F     0.42576   0.70703   0.22458   0.00000  Uiso   1.00
F466   F     0.60300   0.88952   0.30830   0.00000  Uiso   1.00
O467   O     0.63998   0.88425   0.48790   0.00000  Uiso   1.00
H468   H     0.64793   0.87894   0.44994   0.00000  Uiso   1.00
O469   O     0.44776   0.76648   0.04469   0.00000  Uiso   1.00
H470   H     0.42035   0.74649   0.05139   0.00000  Uiso   1.00
O471   O     0.51534   0.90221   0.38309   0.00000  Uiso   1.00
H472   H     0.53819   0.92569   0.38005   0.00000  Uiso   1.00
C473   C     0.83332   0.91257   0.25015   0.00000  Uiso   1.00
C474   C     0.81651   0.82337   0.48610   0.00000  Uiso   1.00
C475   C     0.82075   0.84265   0.43753   0.00000  Uiso   1.00
C476   C     0.85000   0.83531   0.01359   0.00000  Uiso   1.00
C477   C     0.89167   0.85958   0.48847   0.00000  Uiso   1.00
C478   C     0.89222   0.88075   0.44308   0.00000  Uiso   1.00
C479   C     0.85459   0.87513   0.42031   0.00000  Uiso   1.00
C480   C     0.84090   0.82726   0.06679   0.00000  Uiso   1.00
C481   C     0.91991   0.85504   0.06511   0.00000  Uiso   1.00
C482   C     0.79101   0.82902   0.40714   0.00000  Uiso   1.00
C483   C     0.87076   0.97850   0.26267   0.00000  Uiso   1.00
C484   C     0.80697   0.83373   0.35012   0.00000  Uiso   1.00
C485   C     0.87082   0.68770   0.26286   0.00000  Uiso   1.00
C486   C     0.83322   0.70925   0.25027   0.00000  Uiso   1.00
C487   C     0.79558   0.68750   0.23784   0.00000  Uiso   1.00
C488   C     0.79566   0.97831   0.23811   0.00000  Uiso   1.00
C489   C     0.83326   0.95706   0.25032   0.00000  Uiso   1.00
C490   C     0.96719   0.86106   0.27942   0.00000  Uiso   1.00
C491   C     0.68327   0.86084   0.27969   0.00000  Uiso   1.00
C492   C     0.69984   0.80592   0.22001   0.00000  Uiso   1.00
C493   C     0.98353   0.80585   0.22014   0.00000  Uiso   1.00
C494   C     0.83328   0.75399   0.25007   0.00000  Uiso   1.00
C495   C     0.85960   0.83396   0.14990   0.00000  Uiso   1.00
C496   C     0.92884   0.86606   0.01288   0.00000  Uiso   1.00
C497   C     0.87474   0.83771   0.09289   0.00000  Uiso   1.00
C498   C     0.75147   0.80279   0.42891   0.00000  Uiso   1.00
C499   C     0.74597   0.78469   0.47688   0.00000  Uiso   1.00
C500   C     0.78023   0.79205   0.00400   0.00000  Uiso   1.00
Cu501  Cu    0.78645   0.83333   0.25000   0.00000  Uiso   1.00
Cu502  Cu    0.88022   0.83334   0.25000   0.00000  Uiso   1.00
H503   H     0.76655   0.96206   0.22815   0.00000  Uiso   1.00
H504   H     0.69535   0.88290   0.30348   0.00000  Uiso   1.00
H505   H     0.72524   0.78401   0.19588   0.00000  Uiso   1.00
H506   H     0.97157   0.78387   0.19618   0.00000  Uiso   1.00
H507   H     0.91956   0.90415   0.42738   0.00000  Uiso   1.00
H508   H     0.80549   0.81628   0.08986   0.00000  Uiso   1.00
H509   H     0.72757   0.79290   0.40655   0.00000  Uiso   1.00
H510   H     0.71726   0.76202   0.49074   0.00000  Uiso   1.00
H511   H     0.89985   0.96240   0.27269   0.00000  Uiso   1.00
N512   N     0.71598   0.83332   0.24999   0.00000  Uiso   1.00
N513   N     0.95069   0.83335   0.25000   0.00000  Uiso   1.00
O514   O     0.79375   0.89345   0.25001   0.00000  Uiso   1.00
O515   O     0.87294   0.89346   0.25001   0.00000  Uiso   1.00
O516   O     0.77441   0.83332   0.32549   0.00000  Uiso   1.00
O517   O     0.85360   0.83333   0.32549   0.00000  Uiso   1.00
O518   O     0.79373   0.77321   0.25000   0.00000  Uiso   1.00
O519   O     0.87292   0.77322   0.25000   0.00000  Uiso   1.00
O520   O     0.81306   0.83334   0.17451   0.00000  Uiso   1.00
O521   O     0.89225   0.83335   0.17451   0.00000  Uiso   1.00
F522   F     0.95416   0.86402   0.08933   0.00000  Uiso   1.00
F523   F     0.90728   0.70747   0.27612   0.00000  Uiso   1.00
F524   F     0.75909   0.70703   0.22458   0.00000  Uiso   1.00
F525   F     0.93633   0.88952   0.30830   0.00000  Uiso   1.00
O526   O     0.97332   0.88425   0.48790   0.00000  Uiso   1.00
H527   H     0.98126   0.87894   0.44994   0.00000  Uiso   1.00
O528   O     0.78110   0.76648   0.04469   0.00000  Uiso   1.00
H529   H     0.75369   0.74649   0.05139   0.00000  Uiso   1.00
O530   O     0.84867   0.90221   0.38309   0.00000  Uiso   1.00
H531   H     0.87152   0.92569   0.38005   0.00000  Uiso   1.00
C532   C     0.16665   0.24590   0.75015   0.00000  Uiso   1.00
C533   C     0.14985   0.15670   0.98610   0.00000  Uiso   1.00
C534   C     0.15408   0.17599   0.93753   0.00000  Uiso   1.00
C535   C     0.18333   0.16865   0.51359   0.00000  Uiso   1.00
C536   C     0.22500   0.19291   0.98847   0.00000  Uiso   1.00
C537   C     0.22555   0.21408   0.94308   0.00000  Uiso   1.00
C538   C     0.18792   0.20847   0.92031   0.00000  Uiso   1.00
C539   C     0.17424   0.16059   0.56679   0.00000  Uiso   1.00
C540   C     0.25325   0.18838   0.56511   0.00000  Uiso   1.00
C541   C     0.12434   0.16235   0.90714   0.00000  Uiso   1.00
C542   C     0.20410   0.31183   0.76267   0.00000  Uiso   1.00
C543   C     0.14030   0.16706   0.85012   0.00000  Uiso   1.00
C544   C     0.20415   0.02103   0.76286   0.00000  Uiso   1.00
C545   C     0.16655   0.04258   0.75027   0.00000  Uiso   1.00
C546   C     0.12891   0.02083   0.73784   0.00000  Uiso   1.00
C547   C     0.12899   0.31164   0.73811   0.00000  Uiso   1.00
C548   C     0.16659   0.29039   0.75032   0.00000  Uiso   1.00
C549   C     0.30052   0.19439   0.77942   0.00000  Uiso   1.00
C550   C     0.01660   0.19417   0.77969   0.00000  Uiso   1.00
C551   C     0.03317   0.13925   0.72001   0.00000  Uiso   1.00
C552   C     0.31687   0.13918   0.72014   0.00000  Uiso   1.00
C553   C     0.16662   0.08732   0.75007   0.00000  Uiso   1.00
C554   C     0.19293   0.16729   0.64990   0.00000  Uiso   1.00
C555   C     0.26217   0.19939   0.51288   0.00000  Uiso   1.00
C556   C     0.20807   0.17104   0.59289   0.00000  Uiso   1.00
C557   C     0.08480   0.13612   0.92891   0.00000  Uiso   1.00
C558   C     0.07930   0.11802   0.97688   0.00000  Uiso   1.00
C559   C     0.11356   0.12538   0.50400   0.00000  Uiso   1.00
Cu560  Cu    0.11978   0.16666   0.75000   0.00000  Uiso   1.00
Cu561  Cu    0.21355   0.16667   0.75000   0.00000  Uiso   1.00
H562   H     0.09988   0.29539   0.72815   0.00000  Uiso   1.00
H563   H     0.02869   0.21623   0.80348   0.00000  Uiso   1.00
H564   H     0.05858   0.11735   0.69588   0.00000  Uiso   1.00
H565   H     0.30490   0.11720   0.69618   0.00000  Uiso   1.00
H566   H     0.25290   0.23749   0.92738   0.00000  Uiso   1.00
H567   H     0.13883   0.14962   0.58986   0.00000  Uiso   1.00
H568   H     0.06090   0.12624   0.90655   0.00000  Uiso   1.00
H569   H     0.05059   0.09535   0.99074   0.00000  Uiso   1.00
H570   H     0.23318   0.29573   0.77269   0.00000  Uiso   1.00
N571   N     0.04931   0.16666   0.74999   0.00000  Uiso   1.00
N572   N     0.28402   0.16669   0.75000   0.00000  Uiso   1.00
O573   O     0.12708   0.22678   0.75001   0.00000  Uiso   1.00
O574   O     0.20627   0.22679   0.75001   0.00000  Uiso   1.00
O575   O     0.10775   0.16665   0.82549   0.00000  Uiso   1.00
O576   O     0.18694   0.16666   0.82549   0.00000  Uiso   1.00
O577   O     0.12706   0.10654   0.75000   0.00000  Uiso   1.00
O578   O     0.20625   0.10655   0.75000   0.00000  Uiso   1.00
O579   O     0.14640   0.16667   0.67451   0.00000  Uiso   1.00
O580   O     0.22559   0.16668   0.67451   0.00000  Uiso   1.00
F581   F     0.28749   0.19735   0.58933   0.00000  Uiso   1.00
F582   F     0.24061   0.04080   0.77612   0.00000  Uiso   1.00
F583   F     0.09243   0.04037   0.72458   0.00000  Uiso   1.00
F584   F     0.26966   0.22285   0.80830   0.00000  Uiso   1.00
O585   O     0.30665   0.21758   0.98790   0.00000  Uiso   1.00
H586   H     0.31459   0.21227   0.94994   0.00000  Uiso   1.00
O587   O     0.11443   0.09981   0.54469   0.00000  Uiso   1.00
H588   H     0.08702   0.07982   0.55139   0.00000  Uiso   1.00
O589   O     0.18200   0.23555   0.88309   0.00000  Uiso   1.00
H590   H     0.20485   0.25902   0.88005   0.00000  Uiso   1.00
C591   C     0.49999   0.24590   0.75015   0.00000  Uiso   1.00
C592   C     0.48318   0.15670   0.98610   0.00000  Uiso   1.00
C593   C     0.48741   0.17599   0.93753   0.00000  Uiso   1.00
C594   C     0.51666   0.16865   0.51359   0.00000  Uiso   1.00
C595   C     0.55834   0.19291   0.98847   0.00000  Uiso   1.00
C596   C     0.55889   0.21408   0.94308   0.00000  Uiso   1.00
C597   C     0.52125   0.20847   0.92031   0.00000  Uiso   1.00
C598   C     0.50757   0.16059   0.56679   0.00000  Uiso   1.00
C599   C     0.58658   0.18838   0.56511   0.00000  Uiso   1.00
C600   C     0.45767   0.16235   0.90714   0.00000  Uiso   1.00
C601   C     0.53743   0.31183   0.76267   0.00000  Uiso   1.00
C602   C     0.47363   0.16706   0.85012   0.00000  Uiso   1.00
C603   C     0.53748   0.02103   0.76286   0.00000  Uiso   1.00
C604   C     0.49989   0.04258   0.75027   0.00000  Uiso   1.00
C605   C     0.46224   0.02083   0.73784   0.00000  Uiso   1.00
C606   C     0.46232   0.31164   0.73811   0.00000  Uiso   1.00
C607   C     0.49992   0.29039   0.75032   0.00000  Uiso   1.00
C608   C     0.63385   0.19439   0.77942   0.00000  Uiso   1.00
C609   C     0.34994   0.19417   0.77969   0.00000  Uiso   1.00
C610   C     0.36650   0.13925   0.72001   0.00000  Uiso   1.00
C611   C     0.65020   0.13918   0.72014   0.00000  Uiso   1.00
C612   C     0.49995   0.08732   0.75007   0.00000  Uiso   1.00
C613   C     0.52626   0.16729   0.64990   0.00000  Uiso   1.00
C614   C     0.59550   0.19939   0.51288   0.00000  Uiso   1.00
C615   C     0.54141   0.17104   0.59289   0.00000  Uiso   1.00
C616   C     0.41813   0.13612   0.92891   0.00000  Uiso   1.00
C617   C     0.41264   0.11802   0.97688   0.00000  Uiso   1.00
C618   C     0.44689   0.12538   0.50400   0.00000  Uiso   1.00
Cu619  Cu    0.45311   0.16666   0.75000   0.00000  Uiso   1.00
Cu620  Cu    0.54689   0.16667   0.75000   0.00000  Uiso   1.00
H621   H     0.43322   0.29539   0.72815   0.00000  Uiso   1.00
H622   H     0.36202   0.21623   0.80348   0.00000  Uiso   1.00
H623   H     0.39191   0.11735   0.69588   0.00000  Uiso   1.00
H624   H     0.63824   0.11720   0.69618   0.00000  Uiso   1.00
H625   H     0.58623   0.23749   0.92738   0.00000  Uiso   1.00
H626   H     0.47216   0.14962   0.58986   0.00000  Uiso   1.00
H627   H     0.39424   0.12624   0.90655   0.00000  Uiso   1.00
H628   H     0.38392   0.09535   0.99074   0.00000  Uiso   1.00
H629   H     0.56651   0.29573   0.77269   0.00000  Uiso   1.00
N630   N     0.38265   0.16666   0.74999   0.00000  Uiso   1.00
N631   N     0.61735   0.16669   0.75000   0.00000  Uiso   1.00
O632   O     0.46042   0.22678   0.75001   0.00000  Uiso   1.00
O633   O     0.53961   0.22679   0.75001   0.00000  Uiso   1.00
O634   O     0.44108   0.16665   0.82549   0.00000  Uiso   1.00
O635   O     0.52027   0.16666   0.82549   0.00000  Uiso   1.00
O636   O     0.46039   0.10654   0.75000   0.00000  Uiso   1.00
O637   O     0.53958   0.10655   0.75000   0.00000  Uiso   1.00
O638   O     0.47973   0.16667   0.67451   0.00000  Uiso   1.00
O639   O     0.55892   0.16668   0.67451   0.00000  Uiso   1.00
F640   F     0.62082   0.19735   0.58933   0.00000  Uiso   1.00
F641   F     0.57394   0.04080   0.77612   0.00000  Uiso   1.00
F642   F     0.42576   0.04037   0.72458   0.00000  Uiso   1.00
F643   F     0.60300   0.22285   0.80830   0.00000  Uiso   1.00
O644   O     0.63998   0.21758   0.98790   0.00000  Uiso   1.00
H645   H     0.64793   0.21227   0.94994   0.00000  Uiso   1.00
O646   O     0.44776   0.09981   0.54469   0.00000  Uiso   1.00
H647   H     0.42035   0.07982   0.55139   0.00000  Uiso   1.00
O648   O     0.51534   0.23555   0.88309   0.00000  Uiso   1.00
H649   H     0.53819   0.25902   0.88005   0.00000  Uiso   1.00
C650   C     0.83332   0.24590   0.75015   0.00000  Uiso   1.00
C651   C     0.81651   0.15670   0.98610   0.00000  Uiso   1.00
C652   C     0.82075   0.17599   0.93753   0.00000  Uiso   1.00
C653   C     0.85000   0.16865   0.51359   0.00000  Uiso   1.00
C654   C     0.89167   0.19291   0.98847   0.00000  Uiso   1.00
C655   C     0.89222   0.21408   0.94308   0.00000  Uiso   1.00
C656   C     0.85459   0.20847   0.92031   0.00000  Uiso   1.00
C657   C     0.84090   0.16059   0.56679   0.00000  Uiso   1.00
C658   C     0.91991   0.18838   0.56511   0.00000  Uiso   1.00
C659   C     0.79101   0.16235   0.90714   0.00000  Uiso   1.00
C660   C     0.87076   0.31183   0.76267   0.00000  Uiso   1.00
C661   C     0.80697   0.16706   0.85012   0.00000  Uiso   1.00
C662   C     0.87082   0.02103   0.76286   0.00000  Uiso   1.00
C663   C     0.83322   0.04258   0.75027   0.00000  Uiso   1.00
C664   C     0.79558   0.02083   0.73784   0.00000  Uiso   1.00
C665   C     0.79566   0.31164   0.73811   0.00000  Uiso   1.00
C666   C     0.83326   0.29039   0.75032   0.00000  Uiso   1.00
C667   C     0.96719   0.19439   0.77942   0.00000  Uiso   1.00
C668   C     0.68327   0.19417   0.77969   0.00000  Uiso   1.00
C669   C     0.69984   0.13925   0.72001   0.00000  Uiso   1.00
C670   C     0.98353   0.13918   0.72014   0.00000  Uiso   1.00
C671   C     0.83328   0.08732   0.75007   0.00000  Uiso   1.00
C672   C     0.85960   0.16729   0.64990   0.00000  Uiso   1.00
C673   C     0.92884   0.19939   0.51288   0.00000  Uiso   1.00
C674   C     0.87474   0.17104   0.59289   0.00000  Uiso   1.00
C675   C     0.75147   0.13612   0.92891   0.00000  Uiso   1.00
C676   C     0.74597   0.11802   0.97688   0.00000  Uiso   1.00
C677   C     0.78023   0.12538   0.50400   0.00000  Uiso   1.00
Cu678  Cu    0.78645   0.16666   0.75000   0.00000  Uiso   1.00
Cu679  Cu    0.88022   0.16667   0.75000   0.00000  Uiso   1.00
H680   H     0.76655   0.29539   0.72815   0.00000  Uiso   1.00
H681   H     0.69535   0.21623   0.80348   0.00000  Uiso   1.00
H682   H     0.72524   0.11735   0.69588   0.00000  Uiso   1.00
H683   H     0.97157   0.11720   0.69618   0.00000  Uiso   1.00
H684   H     0.91956   0.23749   0.92738   0.00000  Uiso   1.00
H685   H     0.80549   0.14962   0.58986   0.00000  Uiso   1.00
H686   H     0.72757   0.12624   0.90655   0.00000  Uiso   1.00
H687   H     0.71726   0.09535   0.99074   0.00000  Uiso   1.00
H688   H     0.89985   0.29573   0.77269   0.00000  Uiso   1.00
N689   N     0.71598   0.16666   0.74999   0.00000  Uiso   1.00
N690   N     0.95069   0.16669   0.75000   0.00000  Uiso   1.00
O691   O     0.79375   0.22678   0.75001   0.00000  Uiso   1.00
O692   O     0.87294   0.22679   0.75001   0.00000  Uiso   1.00
O693   O     0.77441   0.16665   0.82549   0.00000  Uiso   1.00
O694   O     0.85360   0.16666   0.82549   0.00000  Uiso   1.00
O695   O     0.79373   0.10654   0.75000   0.00000  Uiso   1.00
O696   O     0.87292   0.10655   0.75000   0.00000  Uiso   1.00
O697   O     0.81306   0.16667   0.67451   0.00000  Uiso   1.00
O698   O     0.89225   0.16668   0.67451   0.00000  Uiso   1.00
F699   F     0.95416   0.19735   0.58933   0.00000  Uiso   1.00
F700   F     0.90728   0.04080   0.77612   0.00000  Uiso   1.00
F701   F     0.75909   0.04037   0.72458   0.00000  Uiso   1.00
F702   F     0.93633   0.22285   0.80830   0.00000  Uiso   1.00
O703   O     0.97332   0.21758   0.98790   0.00000  Uiso   1.00
H704   H     0.98126   0.21227   0.94994   0.00000  Uiso   1.00
O705   O     0.78110   0.09981   0.54469   0.00000  Uiso   1.00
H706   H     0.75369   0.07982   0.55139   0.00000  Uiso   1.00
O707   O     0.84867   0.23555   0.88309   0.00000  Uiso   1.00
H708   H     0.87152   0.25902   0.88005   0.00000  Uiso   1.00
C709   C     0.16665   0.57924   0.75015   0.00000  Uiso   1.00
C710   C     0.14985   0.49003   0.98610   0.00000  Uiso   1.00
C711   C     0.15408   0.50932   0.93753   0.00000  Uiso   1.00
C712   C     0.18333   0.50198   0.51359   0.00000  Uiso   1.00
C713   C     0.22500   0.52625   0.98847   0.00000  Uiso   1.00
C714   C     0.22555   0.54741   0.94308   0.00000  Uiso   1.00
C715   C     0.18792   0.54180   0.92031   0.00000  Uiso   1.00
C716   C     0.17424   0.49393   0.56679   0.00000  Uiso   1.00
C717   C     0.25325   0.52171   0.56511   0.00000  Uiso   1.00
C718   C     0.12434   0.49569   0.90714   0.00000  Uiso   1.00
C719   C     0.20410   0.64517   0.76267   0.00000  Uiso   1.00
C720   C     0.14030   0.50040   0.85012   0.00000  Uiso   1.00
C721   C     0.20415   0.35437   0.76286   0.00000  Uiso   1.00
C722   C     0.16655   0.37592   0.75027   0.00000  Uiso   1.00
C723   C     0.12891   0.35416   0.73784   0.00000  Uiso   1.00
C724   C     0.12899   0.64498   0.73811   0.00000  Uiso   1.00
C725   C     0.16659   0.62373   0.75032   0.00000  Uiso   1.00
C726   C     0.30052   0.52772   0.77942   0.00000  Uiso   1.00
C727   C     0.01660   0.52750   0.77969   0.00000  Uiso   1.00
C728   C     0.03317   0.47258   0.72001   0.00000  Uiso   1.00
C729   C     0.31687   0.47252   0.72014   0.00000  Uiso   1.00
C730   C     0.16662   0.42065   0.75007   0.00000  Uiso   1.00
C731   C     0.19293   0.50063   0.64990   0.00000  Uiso   1.00
C732   C     0.26217   0.53273   0.51288   0.00000  Uiso   1.00
C733   C     0.20807   0.50437   0.59289   0.00000  Uiso   1.00
C734   C     0.08480   0.46946   0.92891   0.00000  Uiso   1.00
C735   C     0.07930   0.45135   0.97688   0.00000  Uiso   1.00
C736   C     0.11356   0.45871   0.50400   0.00000  Uiso   1.00
Cu737  Cu    0.11978   0.49999   0.75000   0.00000  Uiso   1.00
Cu738  Cu    0.21355   0.50001   0.75000   0.00000  Uiso   1.00
H739   H     0.09988   0.62873   0.72815   0.00000  Uiso   1.00
H740   H     0.02869   0.54957   0.80348   0.00000  Uiso   1.00
H741   H     0.05858   0.45068   0.69588   0.00000  Uiso   1.00
H742   H     0.30490   0.45053   0.69618   0.00000  Uiso   1.00
H743   H     0.25290   0.57082   0.92738   0.00000  Uiso   1.00
H744   H     0.13883   0.48295   0.58986   0.00000  Uiso   1.00
H745   H     0.06090   0.45957   0.90655   0.00000  Uiso   1.00
H746   H     0.05059   0.42869   0.99074   0.00000  Uiso   1.00
H747   H     0.23318   0.62907   0.77269   0.00000  Uiso   1.00
N748   N     0.04931   0.49999   0.74999   0.00000  Uiso   1.00
N749   N     0.28402   0.50002   0.75000   0.00000  Uiso   1.00
O750   O     0.12708   0.56011   0.75001   0.00000  Uiso   1.00
O751   O     0.20627   0.56012   0.75001   0.00000  Uiso   1.00
O752   O     0.10775   0.49998   0.82549   0.00000  Uiso   1.00
O753   O     0.18694   0.49999   0.82549   0.00000  Uiso   1.00
O754   O     0.12706   0.43988   0.75000   0.00000  Uiso   1.00
O755   O     0.20625   0.43989   0.75000   0.00000  Uiso   1.00
O756   O     0.14640   0.50001   0.67451   0.00000  Uiso   1.00
O757   O     0.22559   0.50002   0.67451   0.00000  Uiso   1.00
F758   F     0.28749   0.53068   0.58933   0.00000  Uiso   1.00
F759   F     0.24061   0.37413   0.77612   0.00000  Uiso   1.00
F760   F     0.09243   0.37370   0.72458   0.00000  Uiso   1.00
F761   F     0.26966   0.55618   0.80830   0.00000  Uiso   1.00
O762   O     0.30665   0.55091   0.98790   0.00000  Uiso   1.00
H763   H     0.31459   0.54561   0.94994   0.00000  Uiso   1.00
O764   O     0.11443   0.43314   0.54469   0.00000  Uiso   1.00
H765   H     0.08702   0.41315   0.55139   0.00000  Uiso   1.00
O766   O     0.18200   0.56888   0.88309   0.00000  Uiso   1.00
H767   H     0.20485   0.59236   0.88005   0.00000  Uiso   1.00
C768   C     0.49999   0.57924   0.75015   0.00000  Uiso   1.00
C769   C     0.48318   0.49003   0.98610   0.00000  Uiso   1.00
C770   C     0.48741   0.50932   0.93753   0.00000  Uiso   1.00
C771   C     0.51666   0.50198   0.51359   0.00000  Uiso   1.00
C772   C     0.55834   0.52625   0.98847   0.00000  Uiso   1.00
C773   C     0.55889   0.54741   0.94308   0.00000  Uiso   1.00
C774   C     0.52125   0.54180   0.92031   0.00000  Uiso   1.00
C775   C     0.50757   0.49393   0.56679   0.00000  Uiso   1.00
C776   C     0.58658   0.52171   0.56511   0.00000  Uiso   1.00
C777   C     0.45767   0.49569   0.90714   0.00000  Uiso   1.00
C778   C     0.53743   0.64517   0.76267   0.00000  Uiso   1.00
C779   C     0.47363   0.50040   0.85012   0.00000  Uiso   1.00
C780   C     0.53748   0.35437   0.76286   0.00000  Uiso   1.00
C781   C     0.49989   0.37592   0.75027   0.00000  Uiso   1.00
C782   C     0.46224   0.35416   0.73784   0.00000  Uiso   1.00
C783   C     0.46232   0.64498   0.73811   0.00000  Uiso   1.00
C784   C     0.49992   0.62373   0.75032   0.00000  Uiso   1.00
C785   C     0.63385   0.52772   0.77942   0.00000  Uiso   1.00
C786   C     0.34994   0.52750   0.77969   0.00000  Uiso   1.00
C787   C     0.36650   0.47258   0.72001   0.00000  Uiso   1.00
C788   C     0.65020   0.47252   0.72014   0.00000  Uiso   1.00
C789   C     0.49995   0.42065   0.75007   0.00000  Uiso   1.00
C790   C     0.52626   0.50063   0.64990   0.00000  Uiso   1.00
C791   C     0.59550   0.53273   0.51288   0.00000  Uiso   1.00
C792   C     0.54141   0.50437   0.59289   0.00000  Uiso   1.00
C793   C     0.41813   0.46946   0.92891   0.00000  Uiso   1.00
C794   C     0.41264   0.45135   0.97688   0.00000  Uiso   1.00
C795   C     0.44689   0.45871   0.50400   0.00000  Uiso   1.00
Cu796  Cu    0.45311   0.49999   0.75000   0.00000  Uiso   1.00
Cu797  Cu    0.54689   0.50001   0.75000   0.00000  Uiso   1.00
H798   H     0.43322   0.62873   0.72815   0.00000  Uiso   1.00
H799   H     0.36202   0.54957   0.80348   0.00000  Uiso   1.00
H800   H     0.39191   0.45068   0.69588   0.00000  Uiso   1.00
H801   H     0.63824   0.45053   0.69618   0.00000  Uiso   1.00
H802   H     0.58623   0.57082   0.92738   0.00000  Uiso   1.00
H803   H     0.47216   0.48295   0.58986   0.00000  Uiso   1.00
H804   H     0.39424   0.45957   0.90655   0.00000  Uiso   1.00
H805   H     0.38392   0.42869   0.99074   0.00000  Uiso   1.00
H806   H     0.56651   0.62907   0.77269   0.00000  Uiso   1.00
N807   N     0.38265   0.49999   0.74999   0.00000  Uiso   1.00
N808   N     0.61735   0.50002   0.75000   0.00000  Uiso   1.00
O809   O     0.46042   0.56011   0.75001   0.00000  Uiso   1.00
O810   O     0.53961   0.56012   0.75001   0.00000  Uiso   1.00
O811   O     0.44108   0.49998   0.82549   0.00000  Uiso   1.00
O812   O     0.52027   0.49999   0.82549   0.00000  Uiso   1.00
O813   O     0.46039   0.43988   0.75000   0.00000  Uiso   1.00
O814   O     0.53958   0.43989   0.75000   0.00000  Uiso   1.00
O815   O     0.47973   0.50001   0.67451   0.00000  Uiso   1.00
O816   O     0.55892   0.50002   0.67451   0.00000  Uiso   1.00
F817   F     0.62082   0.53068   0.58933   0.00000  Uiso   1.00
F818   F     0.57394   0.37413   0.77612   0.00000  Uiso   1.00
F819   F     0.42576   0.37370   0.72458   0.00000  Uiso   1.00
F820   F     0.60300   0.55618   0.80830   0.00000  Uiso   1.00
O821   O     0.63998   0.55091   0.98790   0.00000  Uiso   1.00
H822   H     0.64793   0.54561   0.94994   0.00000  Uiso   1.00
O823   O     0.44776   0.43314   0.54469   0.00000  Uiso   1.00
H824   H     0.42035   0.41315   0.55139   0.00000  Uiso   1.00
O825   O     0.51534   0.56888   0.88309   0.00000  Uiso   1.00
H826   H     0.53819   0.59236   0.88005   0.00000  Uiso   1.00
C827   C     0.83332   0.57924   0.75015   0.00000  Uiso   1.00
C828   C     0.81651   0.49003   0.98610   0.00000  Uiso   1.00
C829   C     0.82075   0.50932   0.93753   0.00000  Uiso   1.00
C830   C     0.85000   0.50198   0.51359   0.00000  Uiso   1.00
C831   C     0.89167   0.52625   0.98847   0.00000  Uiso   1.00
C832   C     0.89222   0.54741   0.94308   0.00000  Uiso   1.00
C833   C     0.85459   0.54180   0.92031   0.00000  Uiso   1.00
C834   C     0.84090   0.49393   0.56679   0.00000  Uiso   1.00
C835   C     0.91991   0.52171   0.56511   0.00000  Uiso   1.00
C836   C     0.79101   0.49569   0.90714   0.00000  Uiso   1.00
C837   C     0.87076   0.64517   0.76267   0.00000  Uiso   1.00
C838   C     0.80697   0.50040   0.85012   0.00000  Uiso   1.00
C839   C     0.87082   0.35437   0.76286   0.00000  Uiso   1.00
C840   C     0.83322   0.37592   0.75027   0.00000  Uiso   1.00
C841   C     0.79558   0.35416   0.73784   0.00000  Uiso   1.00
C842   C     0.79566   0.64498   0.73811   0.00000  Uiso   1.00
C843   C     0.83326   0.62373   0.75032   0.00000  Uiso   1.00
C844   C     0.96719   0.52772   0.77942   0.00000  Uiso   1.00
C845   C     0.68327   0.52750   0.77969   0.00000  Uiso   1.00
C846   C     0.69984   0.47258   0.72001   0.00000  Uiso   1.00
C847   C     0.98353   0.47252   0.72014   0.00000  Uiso   1.00
C848   C     0.83328   0.42065   0.75007   0.00000  Uiso   1.00
C849   C     0.85960   0.50063   0.64990   0.00000  Uiso   1.00
C850   C     0.92884   0.53273   0.51288   0.00000  Uiso   1.00
C851   C     0.87474   0.50437   0.59289   0.00000  Uiso   1.00
C852   C     0.75147   0.46946   0.92891   0.00000  Uiso   1.00
C853   C     0.74597   0.45135   0.97688   0.00000  Uiso   1.00
C854   C     0.78023   0.45871   0.50400   0.00000  Uiso   1.00
Cu855  Cu    0.78645   0.49999   0.75000   0.00000  Uiso   1.00
Cu856  Cu    0.88022   0.50001   0.75000   0.00000  Uiso   1.00
H857   H     0.76655   0.62873   0.72815   0.00000  Uiso   1.00
H858   H     0.69535   0.54957   0.80348   0.00000  Uiso   1.00
H859   H     0.72524   0.45068   0.69588   0.00000  Uiso   1.00
H860   H     0.97157   0.45053   0.69618   0.00000  Uiso   1.00
H861   H     0.91956   0.57082   0.92738   0.00000  Uiso   1.00
H862   H     0.80549   0.48295   0.58986   0.00000  Uiso   1.00
H863   H     0.72757   0.45957   0.90655   0.00000  Uiso   1.00
H864   H     0.71726   0.42869   0.99074   0.00000  Uiso   1.00
H865   H     0.89985   0.62907   0.77269   0.00000  Uiso   1.00
N866   N     0.71598   0.49999   0.74999   0.00000  Uiso   1.00
N867   N     0.95069   0.50002   0.75000   0.00000  Uiso   1.00
O868   O     0.79375   0.56011   0.75001   0.00000  Uiso   1.00
O869   O     0.87294   0.56012   0.75001   0.00000  Uiso   1.00
O870   O     0.77441   0.49998   0.82549   0.00000  Uiso   1.00
O871   O     0.85360   0.49999   0.82549   0.00000  Uiso   1.00
O872   O     0.79373   0.43988   0.75000   0.00000  Uiso   1.00
O873   O     0.87292   0.43989   0.75000   0.00000  Uiso   1.00
O874   O     0.81306   0.50001   0.67451   0.00000  Uiso   1.00
O875   O     0.89225   0.50002   0.67451   0.00000  Uiso   1.00
F876   F     0.95416   0.53068   0.58933   0.00000  Uiso   1.00
F877   F     0.90728   0.37413   0.77612   0.00000  Uiso   1.00
F878   F     0.75909   0.37370   0.72458   0.00000  Uiso   1.00
F879   F     0.93633   0.55618   0.80830   0.00000  Uiso   1.00
O880   O     0.97332   0.55091   0.98790   0.00000  Uiso   1.00
H881   H     0.98126   0.54561   0.94994   0.00000  Uiso   1.00
O882   O     0.78110   0.43314   0.54469   0.00000  Uiso   1.00
H883   H     0.75369   0.41315   0.55139   0.00000  Uiso   1.00
O884   O     0.84867   0.56888   0.88309   0.00000  Uiso   1.00
H885   H     0.87152   0.59236   0.88005   0.00000  Uiso   1.00
C886   C     0.16665   0.91257   0.75015   0.00000  Uiso   1.00
C887   C     0.14985   0.82337   0.98610   0.00000  Uiso   1.00
C888   C     0.15408   0.84265   0.93753   0.00000  Uiso   1.00
C889   C     0.18333   0.83531   0.51359   0.00000  Uiso   1.00
C890   C     0.22500   0.85958   0.98847   0.00000  Uiso   1.00
C891   C     0.22555   0.88075   0.94308   0.00000  Uiso   1.00
C892   C     0.18792   0.87513   0.92031   0.00000  Uiso   1.00
C893   C     0.17424   0.82726   0.56679   0.00000  Uiso   1.00
C894   C     0.25325   0.85504   0.56511   0.00000  Uiso   1.00
C895   C     0.12434   0.82902   0.90714   0.00000  Uiso   1.00
C896   C     0.20410   0.97850   0.76267   0.00000  Uiso   1.00
C897   C     0.14030   0.83373   0.85012   0.00000  Uiso   1.00
C898   C     0.20415   0.68770   0.76286   0.00000  Uiso   1.00
C899   C     0.16655   0.70925   0.75027   0.00000  Uiso   1.00
C900   C     0.12891   0.68750   0.73784   0.00000  Uiso   1.00
C901   C     0.12899   0.97831   0.73811   0.00000  Uiso   1.00
C902   C     0.16659   0.95706   0.75032   0.00000  Uiso   1.00
C903   C     0.30052   0.86106   0.77942   0.00000  Uiso   1.00
C904   C     0.01660   0.86084   0.77969   0.00000  Uiso   1.00
C905   C     0.03317   0.80592   0.72001   0.00000  Uiso   1.00
C906   C     0.31687   0.80585   0.72014   0.00000  Uiso   1.00
C907   C     0.16662   0.75399   0.75007   0.00000  Uiso   1.00
C908   C     0.19293   0.83396   0.64990   0.00000  Uiso   1.00
C909   C     0.26217   0.86606   0.51288   0.00000  Uiso   1.00
C910   C     0.20807   0.83771   0.59289   0.00000  Uiso   1.00
C911   C     0.08480   0.80279   0.92891   0.00000  Uiso   1.00
C912   C     0.07930   0.78469   0.97688   0.00000  Uiso   1.00
C913   C     0.11356   0.79205   0.50400   0.00000  Uiso   1.00
Cu914  Cu    0.11978   0.83333   0.75000   0.00000  Uiso   1.00
Cu915  Cu    0.21355   0.83334   0.75000   0.00000  Uiso   1.00
H916   H     0.09988   0.96206   0.72815   0.00000  Uiso   1.00
H917   H     0.02869   0.88290   0.80348   0.00000  Uiso   1.00
H918   H     0.05858   0.78401   0.69588   0.00000  Uiso   1.00
H919   H     0.30490   0.78387   0.69618   0.00000  Uiso   1.00
H920   H     0.25290   0.90415   0.92738   0.00000  Uiso   1.00
H921   H     0.13883   0.81628   0.58986   0.00000  Uiso   1.00
H922   H     0.06090   0.79290   0.90655   0.00000  Uiso   1.00
H923   H     0.05059   0.76202   0.99074   0.00000  Uiso   1.00
H924   H     0.23318   0.96240   0.77269   0.00000  Uiso   1.00
N925   N     0.04931   0.83332   0.74999   0.00000  Uiso   1.00
N926   N     0.28402   0.83335   0.75000   0.00000  Uiso   1.00
O927   O     0.12708   0.89345   0.75001   0.00000  Uiso   1.00
O928   O     0.20627   0.89346   0.75001   0.00000  Uiso   1.00
O929   O     0.10775   0.83332   0.82549   0.00000  Uiso   1.00
O930   O     0.18694   0.83333   0.82549   0.00000  Uiso   1.00
O931   O     0.12706   0.77321   0.75000   0.00000  Uiso   1.00
O932   O     0.20625   0.77322   0.75000   0.00000  Uiso   1.00
O933   O     0.14640   0.83334   0.67451   0.00000  Uiso   1.00
O934   O     0.22559   0.83335   0.67451   0.00000  Uiso   1.00
F935   F     0.28749   0.86402   0.58933   0.00000  Uiso   1.00
F936   F     0.24061   0.70747   0.77612   0.00000  Uiso   1.00
F937   F     0.09243   0.70703   0.72458   0.00000  Uiso   1.00
F938   F     0.26966   0.88952   0.80830   0.00000  Uiso   1.00
O939   O     0.30665   0.88425   0.98790   0.00000  Uiso   1.00
H940   H     0.31459   0.87894   0.94994   0.00000  Uiso   1.00
O941   O     0.11443   0.76648   0.54469   0.00000  Uiso   1.00
H942   H     0.08702   0.74649   0.55139   0.00000  Uiso   1.00
O943   O     0.18200   0.90221   0.88309   0.00000  Uiso   1.00
H944   H     0.20485   0.92569   0.88005   0.00000  Uiso   1.00
C945   C     0.49999   0.91257   0.75015   0.00000  Uiso   1.00
C946   C     0.48318   0.82337   0.98610   0.00000  Uiso   1.00
C947   C     0.48741   0.84265   0.93753   0.00000  Uiso   1.00
C948   C     0.51666   0.83531   0.51359   0.00000  Uiso   1.00
C949   C     0.55834   0.85958   0.98847   0.00000  Uiso   1.00
C950   C     0.55889   0.88075   0.94308   0.00000  Uiso   1.00
C951   C     0.52125   0.87513   0.92031   0.00000  Uiso   1.00
C952   C     0.50757   0.82726   0.56679   0.00000  Uiso   1.00
C953   C     0.58658   0.85504   0.56511   0.00000  Uiso   1.00
C954   C     0.45767   0.82902   0.90714   0.00000  Uiso   1.00
C955   C     0.53743   0.97850   0.76267   0.00000  Uiso   1.00
C956   C     0.47363   0.83373   0.85012   0.00000  Uiso   1.00
C957   C     0.53748   0.68770   0.76286   0.00000  Uiso   1.00
C958   C     0.49989   0.70925   0.75027   0.00000  Uiso   1.00
C959   C     0.46224   0.68750   0.73784   0.00000  Uiso   1.00
C960   C     0.46232   0.97831   0.73811   0.00000  Uiso   1.00
C961   C     0.49992   0.95706   0.75032   0.00000  Uiso   1.00
C962   C     0.63385   0.86106   0.77942   0.00000  Uiso   1.00
C963   C     0.34994   0.86084   0.77969   0.00000  Uiso   1.00
C964   C     0.36650   0.80592   0.72001   0.00000  Uiso   1.00
C965   C     0.65020   0.80585   0.72014   0.00000  Uiso   1.00
C966   C     0.49995   0.75399   0.75007   0.00000  Uiso   1.00
C967   C     0.52626   0.83396   0.64990   0.00000  Uiso   1.00
C968   C     0.59550   0.86606   0.51288   0.00000  Uiso   1.00
C969   C     0.54141   0.83771   0.59289   0.00000  Uiso   1.00
C970   C     0.41813   0.80279   0.92891   0.00000  Uiso   1.00
C971   C     0.41264   0.78469   0.97688   0.00000  Uiso   1.00
C972   C     0.44689   0.79205   0.50400   0.00000  Uiso   1.00
Cu973  Cu    0.45311   0.83333   0.75000   0.00000  Uiso   1.00
Cu974  Cu    0.54689   0.83334   0.75000   0.00000  Uiso   1.00
H975   H     0.43322   0.96206   0.72815   0.00000  Uiso   1.00
H976   H     0.36202   0.88290   0.80348   0.00000  Uiso   1.00
H977   H     0.39191   0.78401   0.69588   0.00000  Uiso   1.00
H978   H     0.63824   0.78387   0.69618   0.00000  Uiso   1.00
H979   H     0.58623   0.90415   0.92738   0.00000  Uiso   1.00
H980   H     0.47216   0.81628   0.58986   0.00000  Uiso   1.00
H981   H     0.39424   0.79290   0.90655   0.00000  Uiso   1.00
H982   H     0.38392   0.76202   0.99074   0.00000  Uiso   1.00
H983   H     0.56651   0.96240   0.77269   0.00000  Uiso   1.00
N984   N     0.38265   0.83332   0.74999   0.00000  Uiso   1.00
N985   N     0.61735   0.83335   0.75000   0.00000  Uiso   1.00
O986   O     0.46042   0.89345   0.75001   0.00000  Uiso   1.00
O987   O     0.53961   0.89346   0.75001   0.00000  Uiso   1.00
O988   O     0.44108   0.83332   0.82549   0.00000  Uiso   1.00
O989   O     0.52027   0.83333   0.82549   0.00000  Uiso   1.00
O990   O     0.46039   0.77321   0.75000   0.00000  Uiso   1.00
O991   O     0.53958   0.77322   0.75000   0.00000  Uiso   1.00
O992   O     0.47973   0.83334   0.67451   0.00000  Uiso   1.00
O993   O     0.55892   0.83335   0.67451   0.00000  Uiso   1.00
F994   F     0.62082   0.86402   0.58933   0.00000  Uiso   1.00
F995   F     0.57394   0.70747   0.77612   0.00000  Uiso   1.00
F996   F     0.42576   0.70703   0.72458   0.00000  Uiso   1.00
F997   F     0.60300   0.88952   0.80830   0.00000  Uiso   1.00
O998   O     0.63998   0.88425   0.98790   0.00000  Uiso   1.00
H999   H     0.64793   0.87894   0.94994   0.00000  Uiso   1.00
O1000  O     0.44776   0.76648   0.54469   0.00000  Uiso   1.00
H1001  H     0.42035   0.74649   0.55139   0.00000  Uiso   1.00
O1002  O     0.51534   0.90221   0.88309   0.00000  Uiso   1.00
H1003  H     0.53819   0.92569   0.88005   0.00000  Uiso   1.00
C1004  C     0.83332   0.91257   0.75015   0.00000  Uiso   1.00
C1005  C     0.81651   0.82337   0.98610   0.00000  Uiso   1.00
C1006  C     0.82075   0.84265   0.93753   0.00000  Uiso   1.00
C1007  C     0.85000   0.83531   0.51359   0.00000  Uiso   1.00
C1008  C     0.89167   0.85958   0.98847   0.00000  Uiso   1.00
C1009  C     0.89222   0.88075   0.94308   0.00000  Uiso   1.00
C1010  C     0.85459   0.87513   0.92031   0.00000  Uiso   1.00
C1011  C     0.84090   0.82726   0.56679   0.00000  Uiso   1.00
C1012  C     0.91991   0.85504   0.56511   0.00000  Uiso   1.00
C1013  C     0.79101   0.82902   0.90714   0.00000  Uiso   1.00
C1014  C     0.87076   0.97850   0.76267   0.00000  Uiso   1.00
C1015  C     0.80697   0.83373   0.85012   0.00000  Uiso   1.00
C1016  C     0.87082   0.68770   0.76286   0.00000  Uiso   1.00
C1017  C     0.83322   0.70925   0.75027   0.00000  Uiso   1.00
C1018  C     0.79558   0.68750   0.73784   0.00000  Uiso   1.00
C1019  C     0.79566   0.97831   0.73811   0.00000  Uiso   1.00
C1020  C     0.83326   0.95706   0.75032   0.00000  Uiso   1.00
C1021  C     0.96719   0.86106   0.77942   0.00000  Uiso   1.00
C1022  C     0.68327   0.86084   0.77969   0.00000  Uiso   1.00
C1023  C     0.69984   0.80592   0.72001   0.00000  Uiso   1.00
C1024  C     0.98353   0.80585   0.72014   0.00000  Uiso   1.00
C1025  C     0.83328   0.75399   0.75007   0.00000  Uiso   1.00
C1026  C     0.85960   0.83396   0.64990   0.00000  Uiso   1.00
C1027  C     0.92884   0.86606   0.51288   0.00000  Uiso   1.00
C1028  C     0.87474   0.83771   0.59289   0.00000  Uiso   1.00
C1029  C     0.75147   0.80279   0.92891   0.00000  Uiso   1.00
C1030  C     0.74597   0.78469   0.97688   0.00000  Uiso   1.00
C1031  C     0.78023   0.79205   0.50400   0.00000  Uiso   1.00
Cu1032 Cu    0.78645   0.83333   0.75000   0.00000  Uiso   1.00
Cu1033 Cu    0.88022   0.83334   0.75000   0.00000  Uiso   1.00
H1034  H     0.76655   0.96206   0.72815   0.00000  Uiso   1.00
H1035  H     0.69535   0.88290   0.80348   0.00000  Uiso   1.00
H1036  H     0.72524   0.78401   0.69588   0.00000  Uiso   1.00
H1037  H     0.97157   0.78387   0.69618   0.00000  Uiso   1.00
H1038  H     0.91956   0.90415   0.92738   0.00000  Uiso   1.00
H1039  H     0.80549   0.81628   0.58986   0.00000  Uiso   1.00
H1040  H     0.72757   0.79290   0.90655   0.00000  Uiso   1.00
H1041  H     0.71726   0.76202   0.99074   0.00000  Uiso   1.00
H1042  H     0.89985   0.96240   0.77269   0.00000  Uiso   1.00
N1043  N     0.71598   0.83332   0.74999   0.00000  Uiso   1.00
N1044  N     0.95069   0.83335   0.75000   0.00000  Uiso   1.00
O1045  O     0.79375   0.89345   0.75001   0.00000  Uiso   1.00
O1046  O     0.87294   0.89346   0.75001   0.00000  Uiso   1.00
O1047  O     0.77441   0.83332   0.82549   0.00000  Uiso   1.00
O1048  O     0.85360   0.83333   0.82549   0.00000  Uiso   1.00
O1049  O     0.79373   0.77321   0.75000   0.00000  Uiso   1.00
O1050  O     0.87292   0.77322   0.75000   0.00000  Uiso   1.00
O1051  O     0.81306   0.83334   0.67451   0.00000  Uiso   1.00
O1052  O     0.89225   0.83335   0.67451   0.00000  Uiso   1.00
F1053  F     0.95416   0.86402   0.58933   0.00000  Uiso   1.00
F1054  F     0.90728   0.70747   0.77612   0.00000  Uiso   1.00
F1055  F     0.75909   0.70703   0.72458   0.00000  Uiso   1.00
F1056  F     0.93633   0.88952   0.80830   0.00000  Uiso   1.00
O1057  O     0.97332   0.88425   0.98790   0.00000  Uiso   1.00
H1058  H     0.98126   0.87894   0.94994   0.00000  Uiso   1.00
O1059  O     0.78110   0.76648   0.54469   0.00000  Uiso   1.00
H1060  H     0.75369   0.74649   0.55139   0.00000  Uiso   1.00
O1061  O     0.84867   0.90221   0.88309   0.00000  Uiso   1.00
H1062  H     0.87152   0.92569   0.88005   0.00000  Uiso   1.00
loop_
_geom_bond_atom_site_label_1
_geom_bond_atom_site_label_2
_geom_bond_distance
_geom_bond_site_symmetry_2
_ccdc_geom_bond_type
C1     O42     1.291   .     A
C1     C17     1.447   .     S
C1     O43     1.291   .     A
C2     C3      1.422   .     A
C2     C535    1.426   .     S
C2     C559    1.431   .     S
C3     C10     1.413   .     A
C3     C7      1.414   .     A
C4     C8      1.399   .     A
C4     C533    1.426   1_554 S
C4     C536    1.420   1_554 S
C5     C6      1.399   .     A
C5     C535    1.420   .     S
C5     C555    1.421   .     S
C6     C7      1.399   .     A
C6     H35     1.082   .     S
C7     O58     1.383   .     S
C8     C25     1.395   .     A
C8     H36     1.077   .     S
C9     C25     1.402   .     A
C9     C24     1.397   .     A
C9     F50     1.358   .     S
C10    C26     1.397   .     A
C10    C12     1.470   .     S
C11    H39     1.083   .     S
C11    C17     1.398   .     A
C11    C190    1.383   .     S
C12    O44     1.293   .     A
C12    O45     1.298   .     A
C13    C14     1.408   .     A
C13    F51     1.358   .     S
C13    C365    1.383   1_545 S
C14    C15     1.407   .     A
C14    C22     1.455   .     S
C15    F52     1.358   .     S
C15    C370    1.383   1_545 S
C16    H31     1.084   .     S
C16    C17     1.398   .     A
C16    C192    1.383   .     S
C18    N41     1.370   .     A
C18    F53     1.350   .     S
C18    C78     1.414   .     S
C19    N40     1.364   .     A
C19    H32     1.082   .     S
C19    C136    1.414   1_455 S
C20    H33     1.082   .     S
C20    N40     1.368   .     A
C20    C139    1.417   1_455 S
C21    N41     1.367   .     A
C21    H34     1.082   .     S
C21    C79     1.417   .     S
C22    O47     1.293   .     A
C22    O46     1.293   .     A
C23    O48     1.296   .     A
C23    C25     1.467   .     S
C23    O49     1.296   .     A
C24    C536    1.421   1_554 S
C24    O585    1.381   1_554 S
C26    H37     1.084   .     S
C26    C27     1.384   .     A
C27    H38     1.083   .     S
C27    C559    1.404   .     S
C28    O56     1.382   .     S
C28    C533    1.431   1_554 S
C28    C558    1.404   1_554 S
Cu29   O42     1.966   .     S
Cu29   O46     1.967   .     S
Cu29   Cu30    2.680   .     S
Cu29   N40     2.014   .     S
Cu29   O44     1.952   .     S
Cu29   O48     1.940   .     S
Cu30   N41     2.014   .     S
Cu30   O45     1.940   .     S
Cu30   O49     1.952   .     S
Cu30   O43     1.967   .     S
Cu30   O47     1.966   .     S
O54    H55     0.990   .     S
O54    C555    1.381   .     S
O56    H57     0.992   .     S
O58    H59     0.992   .     S
C60    O101    1.291   .     A
C60    C76     1.447   .     S
C60    O102    1.291   .     A
C61    C62     1.422   .     A
C61    C594    1.426   .     S
C61    C618    1.431   .     S
C62    C69     1.413   .     A
C62    C66     1.414   .     A
C63    C67     1.399   .     A
C63    C592    1.426   1_554 S
C63    C595    1.420   1_554 S
C64    C65     1.399   .     A
C64    C594    1.420   .     S
C64    C614    1.421   .     S
C65    C66     1.399   .     A
C65    H94     1.082   .     S
C66    O117    1.383   .     S
C67    C84     1.395   .     A
C67    H95     1.077   .     S
C68    C84     1.402   .     A
C68    C83     1.397   .     A
C68    F109    1.358   .     S
C69    C85     1.397   .     A
C69    C71     1.470   .     S
C70    H98     1.083   .     S
C70    C76     1.398   .     A
C70    C249    1.383   .     S
C71    O103    1.293   .     A
C71    O104    1.298   .     A
C72    C73     1.408   .     A
C72    F110    1.358   .     S
C72    C424    1.383   1_545 S
C73    C74     1.407   .     A
C73    C81     1.455   .     S
C74    F111    1.358   .     S
C74    C429    1.383   1_545 S
C75    H90     1.084   .     S
C75    C76     1.398   .     A
C75    C251    1.383   .     S
C77    N100    1.370   .     A
C77    F112    1.350   .     S
C77    C137    1.414   .     S
C78    N99     1.364   .     A
C78    H91     1.082   .     S
C79    H92     1.082   .     S
C79    N99     1.368   .     A
C80    N100    1.367   .     A
C80    H93     1.082   .     S
C80    C138    1.417   .     S
C81    O106    1.293   .     A
C81    O105    1.293   .     A
C82    O107    1.296   .     A
C82    C84     1.467   .     S
C82    O108    1.296   .     A
C83    C595    1.421   1_554 S
C83    O644    1.381   1_554 S
C85    H96     1.084   .     S
C85    C86     1.384   .     A
C86    H97     1.083   .     S
C86    C618    1.404   .     S
C87    O115    1.382   .     S
C87    C592    1.431   1_554 S
C87    C617    1.404   1_554 S
Cu88   O101    1.966   .     S
Cu88   O105    1.967   .     S
Cu88   Cu89    2.680   .     S
Cu88   N99     2.014   .     S
Cu88   O103    1.952   .     S
Cu88   O107    1.940   .     S
Cu89   N100    2.014   .     S
Cu89   O104    1.940   .     S
Cu89   O108    1.952   .     S
Cu89   O102    1.967   .     S
Cu89   O106    1.966   .     S
O113   H114    0.990   .     S
O113   C614    1.381   .     S
O115   H116    0.992   .     S
O117   H118    0.992   .     S
C119   O160    1.291   .     A
C119   C135    1.447   .     S
C119   O161    1.291   .     A
C120   C121    1.422   .     A
C120   C653    1.426   .     S
C120   C677    1.431   .     S
C121   C128    1.413   .     A
C121   C125    1.414   .     A
C122   C126    1.399   .     A
C122   C651    1.426   1_554 S
C122   C654    1.420   1_554 S
C123   C124    1.399   .     A
C123   C653    1.420   .     S
C123   C673    1.421   .     S
C124   C125    1.399   .     A
C124   H153    1.082   .     S
C125   O176    1.383   .     S
C126   C143    1.395   .     A
C126   H154    1.077   .     S
C127   C143    1.402   .     A
C127   C142    1.397   .     A
C127   F168    1.358   .     S
C128   C144    1.397   .     A
C128   C130    1.470   .     S
C129   H157    1.083   .     S
C129   C135    1.398   .     A
C129   C308    1.383   .     S
C130   O162    1.293   .     A
C130   O163    1.298   .     A
C131   C132    1.408   .     A
C131   F169    1.358   .     S
C131   C483    1.383   1_545 S
C132   C133    1.407   .     A
C132   C140    1.455   .     S
C133   F170    1.358   .     S
C133   C488    1.383   1_545 S
C134   H149    1.084   .     S
C134   C135    1.398   .     A
C134   C310    1.383   .     S
C136   N159    1.370   .     A
C136   F171    1.350   .     S
C136   C19     1.414   1_655 S
C137   N158    1.364   .     A
C137   H150    1.082   .     S
C138   H151    1.082   .     S
C138   N158    1.368   .     A
C139   N159    1.367   .     A
C139   H152    1.082   .     S
C139   C20     1.417   1_655 S
C140   O165    1.293   .     A
C140   O164    1.293   .     A
C141   O166    1.296   .     A
C141   C143    1.467   .     S
C141   O167    1.296   .     A
C142   C654    1.421   1_554 S
C142   O703    1.381   1_554 S
C144   H155    1.084   .     S
C144   C145    1.384   .     A
C145   H156    1.083   .     S
C145   C677    1.404   .     S
C146   O174    1.382   .     S
C146   C651    1.431   1_554 S
C146   C676    1.404   1_554 S
Cu147  O160    1.966   .     S
Cu147  O164    1.967   .     S
Cu147  Cu148   2.680   .     S
Cu147  N158    2.014   .     S
Cu147  O162    1.952   .     S
Cu147  O166    1.940   .     S
Cu148  N159    2.014   .     S
Cu148  O163    1.940   .     S
Cu148  O167    1.952   .     S
Cu148  O161    1.967   .     S
Cu148  O165    1.966   .     S
O172   H173    0.990   .     S
O172   C673    1.381   .     S
O174   H175    0.992   .     S
O176   H177    0.992   .     S
C178   O219    1.291   .     A
C178   C194    1.447   .     S
C178   O220    1.291   .     A
C179   C180    1.422   .     A
C179   C712    1.426   .     S
C179   C736    1.431   .     S
C180   C187    1.413   .     A
C180   C184    1.414   .     A
C181   C185    1.399   .     A
C181   C710    1.426   1_554 S
C181   C713    1.420   1_554 S
C182   C183    1.399   .     A
C182   C712    1.420   .     S
C182   C732    1.421   .     S
C183   C184    1.399   .     A
C183   H212    1.082   .     S
C184   O235    1.383   .     S
C185   C202    1.395   .     A
C185   H213    1.077   .     S
C186   C202    1.402   .     A
C186   C201    1.397   .     A
C186   F227    1.358   .     S
C187   C203    1.397   .     A
C187   C189    1.470   .     S
C188   H216    1.083   .     S
C188   C194    1.398   .     A
C188   C367    1.383   .     S
C189   O221    1.293   .     A
C189   O222    1.298   .     A
C190   C191    1.408   .     A
C190   F228    1.358   .     S
C191   C192    1.407   .     A
C191   C199    1.455   .     S
C192   F229    1.358   .     S
C193   H208    1.084   .     S
C193   C194    1.398   .     A
C193   C369    1.383   .     S
C195   N218    1.370   .     A
C195   F230    1.350   .     S
C195   C255    1.414   .     S
C196   N217    1.364   .     A
C196   H209    1.082   .     S
C196   C313    1.414   1_455 S
C197   H210    1.082   .     S
C197   N217    1.368   .     A
C197   C316    1.417   1_455 S
C198   N218    1.367   .     A
C198   H211    1.082   .     S
C198   C256    1.417   .     S
C199   O224    1.293   .     A
C199   O223    1.293   .     A
C200   O225    1.296   .     A
C200   C202    1.467   .     S
C200   O226    1.296   .     A
C201   C713    1.421   1_554 S
C201   O762    1.381   1_554 S
C203   H214    1.084   .     S
C203   C204    1.384   .     A
C204   H215    1.083   .     S
C204   C736    1.404   .     S
C205   O233    1.382   .     S
C205   C710    1.431   1_554 S
C205   C735    1.404   1_554 S
Cu206  O219    1.966   .     S
Cu206  O223    1.967   .     S
Cu206  Cu207   2.680   .     S
Cu206  N217    2.014   .     S
Cu206  O221    1.952   .     S
Cu206  O225    1.940   .     S
Cu207  N218    2.014   .     S
Cu207  O222    1.940   .     S
Cu207  O226    1.952   .     S
Cu207  O220    1.967   .     S
Cu207  O224    1.966   .     S
O231   H232    0.990   .     S
O231   C732    1.381   .     S
O233   H234    0.992   .     S
O235   H236    0.992   .     S
C237   O278    1.291   .     A
C237   C253    1.447   .     S
C237   O279    1.291   .     A
C238   C239    1.422   .     A
C238   C771    1.426   .     S
C238   C795    1.431   .     S
C239   C246    1.413   .     A
C239   C243    1.414   .     A
C240   C244    1.399   .     A
C240   C769    1.426   1_554 S
C240   C772    1.420   1_554 S
C241   C242    1.399   .     A
C241   C771    1.420   .     S
C241   C791    1.421   .     S
C242   C243    1.399   .     A
C242   H271    1.082   .     S
C243   O294    1.383   .     S
C244   C261    1.395   .     A
C244   H272    1.077   .     S
C245   C261    1.402   .     A
C245   C260    1.397   .     A
C245   F286    1.358   .     S
C246   C262    1.397   .     A
C246   C248    1.470   .     S
C247   H275    1.083   .     S
C247   C253    1.398   .     A
C247   C426    1.383   .     S
C248   O280    1.293   .     A
C248   O281    1.298   .     A
C249   C250    1.408   .     A
C249   F287    1.358   .     S
C250   C251    1.407   .     A
C250   C258    1.455   .     S
C251   F288    1.358   .     S
C252   H267    1.084   .     S
C252   C253    1.398   .     A
C252   C428    1.383   .     S
C254   N277    1.370   .     A
C254   F289    1.350   .     S
C254   C314    1.414   .     S
C255   N276    1.364   .     A
C255   H268    1.082   .     S
C256   H269    1.082   .     S
C256   N276    1.368   .     A
C257   N277    1.367   .     A
C257   H270    1.082   .     S
C257   C315    1.417   .     S
C258   O283    1.293   .     A
C258   O282    1.293   .     A
C259   O284    1.296   .     A
C259   C261    1.467   .     S
C259   O285    1.296   .     A
C260   C772    1.421   1_554 S
C260   O821    1.381   1_554 S
C262   H273    1.084   .     S
C262   C263    1.384   .     A
C263   H274    1.083   .     S
C263   C795    1.404   .     S
C264   O292    1.382   .     S
C264   C769    1.431   1_554 S
C264   C794    1.404   1_554 S
Cu265  O278    1.966   .     S
Cu265  O282    1.967   .     S
Cu265  Cu266   2.680   .     S
Cu265  N276    2.014   .     S
Cu265  O280    1.952   .     S
Cu265  O284    1.940   .     S
Cu266  N277    2.014   .     S
Cu266  O281    1.940   .     S
Cu266  O285    1.952   .     S
Cu266  O279    1.967   .     S
Cu266  O283    1.966   .     S
O290   H291    0.990   .     S
O290   C791    1.381   .     S
O292   H293    0.992   .     S
O294   H295    0.992   .     S
C296   O337    1.291   .     A
C296   C312    1.447   .     S
C296   O338    1.291   .     A
C297   C298    1.422   .     A
C297   C830    1.426   .     S
C297   C854    1.431   .     S
C298   C305    1.413   .     A
C298   C302    1.414   .     A
C299   C303    1.399   .     A
C299   C828    1.426   1_554 S
C299   C831    1.420   1_554 S
C300   C301    1.399   .     A
C300   C830    1.420   .     S
C300   C850    1.421   .     S
C301   C302    1.399   .     A
C301   H330    1.082   .     S
C302   O353    1.383   .     S
C303   C320    1.395   .     A
C303   H331    1.077   .     S
C304   C320    1.402   .     A
C304   C319    1.397   .     A
C304   F345    1.358   .     S
C305   C321    1.397   .     A
C305   C307    1.470   .     S
C306   H334    1.083   .     S
C306   C312    1.398   .     A
C306   C485    1.383   .     S
C307   O339    1.293   .     A
C307   O340    1.298   .     A
C308   C309    1.408   .     A
C308   F346    1.358   .     S
C309   C310    1.407   .     A
C309   C317    1.455   .     S
C310   F347    1.358   .     S
C311   H326    1.084   .     S
C311   C312    1.398   .     A
C311   C487    1.383   .     S
C313   N336    1.370   .     A
C313   F348    1.350   .     S
C313   C196    1.414   1_655 S
C314   N335    1.364   .     A
C314   H327    1.082   .     S
C315   H328    1.082   .     S
C315   N335    1.368   .     A
C316   N336    1.367   .     A
C316   H329    1.082   .     S
C316   C197    1.417   1_655 S
C317   O342    1.293   .     A
C317   O341    1.293   .     A
C318   O343    1.296   .     A
C318   C320    1.467   .     S
C318   O344    1.296   .     A
C319   C831    1.421   1_554 S
C319   O880    1.381   1_554 S
C321   H332    1.084   .     S
C321   C322    1.384   .     A
C322   H333    1.083   .     S
C322   C854    1.404   .     S
C323   O351    1.382   .     S
C323   C828    1.431   1_554 S
C323   C853    1.404   1_554 S
Cu324  O337    1.966   .     S
Cu324  O341    1.967   .     S
Cu324  Cu325   2.680   .     S
Cu324  N335    2.014   .     S
Cu324  O339    1.952   .     S
Cu324  O343    1.940   .     S
Cu325  N336    2.014   .     S
Cu325  O340    1.940   .     S
Cu325  O344    1.952   .     S
Cu325  O338    1.967   .     S
Cu325  O342    1.966   .     S
O349   H350    0.990   .     S
O349   C850    1.381   .     S
O351   H352    0.992   .     S
O353   H354    0.992   .     S
C355   O396    1.291   .     A
C355   C371    1.447   .     S
C355   O397    1.291   .     A
C356   C357    1.422   .     A
C356   C889    1.426   .     S
C356   C913    1.431   .     S
C357   C364    1.413   .     A
C357   C361    1.414   .     A
C358   C362    1.399   .     A
C358   C887    1.426   1_554 S
C358   C890    1.420   1_554 S
C359   C360    1.399   .     A
C359   C889    1.420   .     S
C359   C909    1.421   .     S
C360   C361    1.399   .     A
C360   H389    1.082   .     S
C361   O412    1.383   .     S
C362   C379    1.395   .     A
C362   H390    1.077   .     S
C363   C379    1.402   .     A
C363   C378    1.397   .     A
C363   F404    1.358   .     S
C364   C380    1.397   .     A
C364   C366    1.470   .     S
C365   H393    1.083   .     S
C365   C371    1.398   .     A
C365   C13     1.383   1_565 S
C366   O398    1.293   .     A
C366   O399    1.298   .     A
C367   C368    1.408   .     A
C367   F405    1.358   .     S
C368   C369    1.407   .     A
C368   C376    1.455   .     S
C369   F406    1.358   .     S
C370   H385    1.084   .     S
C370   C371    1.398   .     A
C370   C15     1.383   1_565 S
C372   N395    1.370   .     A
C372   F407    1.350   .     S
C372   C432    1.414   .     S
C373   N394    1.364   .     A
C373   H386    1.082   .     S
C373   C490    1.414   1_455 S
C374   H387    1.082   .     S
C374   N394    1.368   .     A
C374   C493    1.417   1_455 S
C375   N395    1.367   .     A
C375   H388    1.082   .     S
C375   C433    1.417   .     S
C376   O401    1.293   .     A
C376   O400    1.293   .     A
C377   O402    1.296   .     A
C377   C379    1.467   .     S
C377   O403    1.296   .     A
C378   C890    1.421   1_554 S
C378   O939    1.381   1_554 S
C380   H391    1.084   .     S
C380   C381    1.384   .     A
C381   H392    1.083   .     S
C381   C913    1.404   .     S
C382   O410    1.382   .     S
C382   C887    1.431   1_554 S
C382   C912    1.404   1_554 S
Cu383  O396    1.966   .     S
Cu383  O400    1.967   .     S
Cu383  Cu384   2.680   .     S
Cu383  N394    2.014   .     S
Cu383  O398    1.952   .     S
Cu383  O402    1.940   .     S
Cu384  N395    2.014   .     S
Cu384  O399    1.940   .     S
Cu384  O403    1.952   .     S
Cu384  O397    1.967   .     S
Cu384  O401    1.966   .     S
O408   H409    0.990   .     S
O408   C909    1.381   .     S
O410   H411    0.992   .     S
O412   H413    0.992   .     S
C414   O455    1.291   .     A
C414   C430    1.447   .     S
C414   O456    1.291   .     A
C415   C416    1.422   .     A
C415   C948    1.426   .     S
C415   C972    1.431   .     S
C416   C423    1.413   .     A
C416   C420    1.414   .     A
C417   C421    1.399   .     A
C417   C946    1.426   1_554 S
C417   C949    1.420   1_554 S
C418   C419    1.399   .     A
C418   C948    1.420   .     S
C418   C968    1.421   .     S
C419   C420    1.399   .     A
C419   H448    1.082   .     S
C420   O471    1.383   .     S
C421   C438    1.395   .     A
C421   H449    1.077   .     S
C422   C438    1.402   .     A
C422   C437    1.397   .     A
C422   F463    1.358   .     S
C423   C439    1.397   .     A
C423   C425    1.470   .     S
C424   H452    1.083   .     S
C424   C430    1.398   .     A
C424   C72     1.383   1_565 S
C425   O457    1.293   .     A
C425   O458    1.298   .     A
C426   C427    1.408   .     A
C426   F464    1.358   .     S
C427   C428    1.407   .     A
C427   C435    1.455   .     S
C428   F465    1.358   .     S
C429   H444    1.084   .     S
C429   C430    1.398   .     A
C429   C74     1.383   1_565 S
C431   N454    1.370   .     A
C431   F466    1.350   .     S
C431   C491    1.414   .     S
C432   N453    1.364   .     A
C432   H445    1.082   .     S
C433   H446    1.082   .     S
C433   N453    1.368   .     A
C434   N454    1.367   .     A
C434   H447    1.082   .     S
C434   C492    1.417   .     S
C435   O460    1.293   .     A
C435   O459    1.293   .     A
C436   O461    1.296   .     A
C436   C438    1.467   .     S
C436   O462    1.296   .     A
C437   C949    1.421   1_554 S
C437   O998    1.381   1_554 S
C439   H450    1.084   .     S
C439   C440    1.384   .     A
C440   H451    1.083   .     S
C440   C972    1.404   .     S
C441   O469    1.382   .     S
C441   C946    1.431   1_554 S
C441   C971    1.404   1_554 S
Cu442  O455    1.966   .     S
Cu442  O459    1.967   .     S
Cu442  Cu443   2.680   .     S
Cu442  N453    2.014   .     S
Cu442  O457    1.952   .     S
Cu442  O461    1.940   .     S
Cu443  N454    2.014   .     S
Cu443  O458    1.940   .     S
Cu443  O462    1.952   .     S
Cu443  O456    1.967   .     S
Cu443  O460    1.966   .     S
O467   H468    0.990   .     S
O467   C968    1.381   .     S
O469   H470    0.992   .     S
O471   H472    0.992   .     S
C473   O514    1.291   .     A
C473   C489    1.447   .     S
C473   O515    1.291   .     A
C474   C475    1.422   .     A
C474   C1007   1.426   .     S
C474   C1031   1.431   .     S
C475   C482    1.413   .     A
C475   C479    1.414   .     A
C476   C480    1.399   .     A
C476   C1005   1.426   1_554 S
C476   C1008   1.420   1_554 S
C477   C478    1.399   .     A
C477   C1007   1.420   .     S
C477   C1027   1.421   .     S
C478   C479    1.399   .     A
C478   H507    1.082   .     S
C479   O530    1.383   .     S
C480   C497    1.395   .     A
C480   H508    1.077   .     S
C481   C497    1.402   .     A
C481   C496    1.397   .     A
C481   F522    1.358   .     S
C482   C498    1.397   .     A
C482   C484    1.470   .     S
C483   H511    1.083   .     S
C483   C489    1.398   .     A
C483   C131    1.383   1_565 S
C484   O516    1.293   .     A
C484   O517    1.298   .     A
C485   C486    1.408   .     A
C485   F523    1.358   .     S
C486   C487    1.407   .     A
C486   C494    1.455   .     S
C487   F524    1.358   .     S
C488   H503    1.084   .     S
C488   C489    1.398   .     A
C488   C133    1.383   1_565 S
C490   N513    1.370   .     A
C490   F525    1.350   .     S
C490   C373    1.414   1_655 S
C491   N512    1.364   .     A
C491   H504    1.082   .     S
C492   H505    1.082   .     S
C492   N512    1.368   .     A
C493   N513    1.367   .     A
C493   H506    1.082   .     S
C493   C374    1.417   1_655 S
C494   O519    1.293   .     A
C494   O518    1.293   .     A
C495   O520    1.296   .     A
C495   C497    1.467   .     S
C495   O521    1.296   .     A
C496   C1008   1.421   1_554 S
C496   O1057   1.381   1_554 S
C498   H509    1.084   .     S
C498   C499    1.384   .     A
C499   H510    1.083   .     S
C499   C1031   1.404   .     S
C500   O528    1.382   .     S
C500   C1005   1.431   1_554 S
C500   C1030   1.404   1_554 S
Cu501  O514    1.966   .     S
Cu501  O518    1.967   .     S
Cu501  Cu502   2.680   .     S
Cu501  N512    2.014   .     S
Cu501  O516    1.952   .     S
Cu501  O520    1.940   .     S
Cu502  N513    2.014   .     S
Cu502  O517    1.940   .     S
Cu502  O521    1.952   .     S
Cu502  O515    1.967   .     S
Cu502  O519    1.966   .     S
O526   H527    0.990   .     S
O526   C1027   1.381   .     S
O528   H529    0.992   .     S
O530   H531    0.992   .     S
C532   O573    1.291   .     A
C532   C548    1.447   .     S
C532   O574    1.291   .     A
C533   C534    1.422   .     A
C533   C4      1.426   1_556 S
C533   C28     1.431   1_556 S
C534   C541    1.413   .     A
C534   C538    1.414   .     A
C535   C539    1.399   .     A
C536   C537    1.399   .     A
C536   C4      1.420   1_556 S
C536   C24     1.421   1_556 S
C537   C538    1.399   .     A
C537   H566    1.082   .     S
C538   O589    1.383   .     S
C539   C556    1.395   .     A
C539   H567    1.077   .     S
C540   C556    1.402   .     A
C540   C555    1.397   .     A
C540   F581    1.358   .     S
C541   C557    1.397   .     A
C541   C543    1.470   .     S
C542   H570    1.083   .     S
C542   C548    1.398   .     A
C542   C721    1.383   .     S
C543   O575    1.293   .     A
C543   O576    1.298   .     A
C544   C545    1.408   .     A
C544   F582    1.358   .     S
C544   C896    1.383   1_545 S
C545   C546    1.407   .     A
C545   C553    1.455   .     S
C546   F583    1.358   .     S
C546   C901    1.383   1_545 S
C547   H562    1.084   .     S
C547   C548    1.398   .     A
C547   C723    1.383   .     S
C549   N572    1.370   .     A
C549   F584    1.350   .     S
C549   C609    1.414   .     S
C550   N571    1.364   .     A
C550   H563    1.082   .     S
C550   C667    1.414   1_455 S
C551   H564    1.082   .     S
C551   N571    1.368   .     A
C551   C670    1.417   1_455 S
C552   N572    1.367   .     A
C552   H565    1.082   .     S
C552   C610    1.417   .     S
C553   O578    1.293   .     A
C553   O577    1.293   .     A
C554   O579    1.296   .     A
C554   C556    1.467   .     S
C554   O580    1.296   .     A
C557   H568    1.084   .     S
C557   C558    1.384   .     A
C558   H569    1.083   .     S
C558   C28     1.404   1_556 S
C559   O587    1.382   .     S
Cu560  O573    1.966   .     S
Cu560  O577    1.967   .     S
Cu560  Cu561   2.680   .     S
Cu560  N571    2.014   .     S
Cu560  O575    1.952   .     S
Cu560  O579    1.940   .     S
Cu561  N572    2.014   .     S
Cu561  O576    1.940   .     S
Cu561  O580    1.952   .     S
Cu561  O574    1.967   .     S
Cu561  O578    1.966   .     S
O585   H586    0.990   .     S
O585   C24     1.381   1_556 S
O587   H588    0.992   .     S
O589   H590    0.992   .     S
C591   O632    1.291   .     A
C591   C607    1.447   .     S
C591   O633    1.291   .     A
C592   C593    1.422   .     A
C592   C63     1.426   1_556 S
C592   C87     1.431   1_556 S
C593   C600    1.413   .     A
C593   C597    1.414   .     A
C594   C598    1.399   .     A
C595   C596    1.399   .     A
C595   C63     1.420   1_556 S
C595   C83     1.421   1_556 S
C596   C597    1.399   .     A
C596   H625    1.082   .     S
C597   O648    1.383   .     S
C598   C615    1.395   .     A
C598   H626    1.077   .     S
C599   C615    1.402   .     A
C599   C614    1.397   .     A
C599   F640    1.358   .     S
C600   C616    1.397   .     A
C600   C602    1.470   .     S
C601   H629    1.083   .     S
C601   C607    1.398   .     A
C601   C780    1.383   .     S
C602   O634    1.293   .     A
C602   O635    1.298   .     A
C603   C604    1.408   .     A
C603   F641    1.358   .     S
C603   C955    1.383   1_545 S
C604   C605    1.407   .     A
C604   C612    1.455   .     S
C605   F642    1.358   .     S
C605   C960    1.383   1_545 S
C606   H621    1.084   .     S
C606   C607    1.398   .     A
C606   C782    1.383   .     S
C608   N631    1.370   .     A
C608   F643    1.350   .     S
C608   C668    1.414   .     S
C609   N630    1.364   .     A
C609   H622    1.082   .     S
C610   H623    1.082   .     S
C610   N630    1.368   .     A
C611   N631    1.367   .     A
C611   H624    1.082   .     S
C611   C669    1.417   .     S
C612   O637    1.293   .     A
C612   O636    1.293   .     A
C613   O638    1.296   .     A
C613   C615    1.467   .     S
C613   O639    1.296   .     A
C616   H627    1.084   .     S
C616   C617    1.384   .     A
C617   H628    1.083   .     S
C617   C87     1.404   1_556 S
C618   O646    1.382   .     S
Cu619  O632    1.966   .     S
Cu619  O636    1.967   .     S
Cu619  Cu620   2.680   .     S
Cu619  N630    2.014   .     S
Cu619  O634    1.952   .     S
Cu619  O638    1.940   .     S
Cu620  N631    2.014   .     S
Cu620  O635    1.940   .     S
Cu620  O639    1.952   .     S
Cu620  O633    1.967   .     S
Cu620  O637    1.966   .     S
O644   H645    0.990   .     S
O644   C83     1.381   1_556 S
O646   H647    0.992   .     S
O648   H649    0.992   .     S
C650   O691    1.291   .     A
C650   C666    1.447   .     S
C650   O692    1.291   .     A
C651   C652    1.422   .     A
C651   C122    1.426   1_556 S
C651   C146    1.431   1_556 S
C652   C659    1.413   .     A
C652   C656    1.414   .     A
C653   C657    1.399   .     A
C654   C655    1.399   .     A
C654   C122    1.420   1_556 S
C654   C142    1.421   1_556 S
C655   C656    1.399   .     A
C655   H684    1.082   .     S
C656   O707    1.383   .     S
C657   C674    1.395   .     A
C657   H685    1.077   .     S
C658   C674    1.402   .     A
C658   C673    1.397   .     A
C658   F699    1.358   .     S
C659   C675    1.397   .     A
C659   C661    1.470   .     S
C660   H688    1.083   .     S
C660   C666    1.398   .     A
C660   C839    1.383   .     S
C661   O693    1.293   .     A
C661   O694    1.298   .     A
C662   C663    1.408   .     A
C662   F700    1.358   .     S
C662   C1014   1.383   1_545 S
C663   C664    1.407   .     A
C663   C671    1.455   .     S
C664   F701    1.358   .     S
C664   C1019   1.383   1_545 S
C665   H680    1.084   .     S
C665   C666    1.398   .     A
C665   C841    1.383   .     S
C667   N690    1.370   .     A
C667   F702    1.350   .     S
C667   C550    1.414   1_655 S
C668   N689    1.364   .     A
C668   H681    1.082   .     S
C669   H682    1.082   .     S
C669   N689    1.368   .     A
C670   N690    1.367   .     A
C670   H683    1.082   .     S
C670   C551    1.417   1_655 S
C671   O696    1.293   .     A
C671   O695    1.293   .     A
C672   O697    1.296   .     A
C672   C674    1.467   .     S
C672   O698    1.296   .     A
C675   H686    1.084   .     S
C675   C676    1.384   .     A
C676   H687    1.083   .     S
C676   C146    1.404   1_556 S
C677   O705    1.382   .     S
Cu678  O691    1.966   .     S
Cu678  O695    1.967   .     S
Cu678  Cu679   2.680   .     S
Cu678  N689    2.014   .     S
Cu678  O693    1.952   .     S
Cu678  O697    1.940   .     S
Cu679  N690    2.014   .     S
Cu679  O694    1.940   .     S
Cu679  O698    1.952   .     S
Cu679  O692    1.967   .     S
Cu679  O696    1.966   .     S
O703   H704    0.990   .     S
O703   C142    1.381   1_556 S
O705   H706    0.992   .     S
O707   H708    0.992   .     S
C709   O750    1.291   .     A
C709   C725    1.447   .     S
C709   O751    1.291   .     A
C710   C711    1.422   .     A
C710   C181    1.426   1_556 S
C710   C205    1.431   1_556 S
C711   C718    1.413   .     A
C711   C715    1.414   .     A
C712   C716    1.399   .     A
C713   C714    1.399   .     A
C713   C181    1.420   1_556 S
C713   C201    1.421   1_556 S
C714   C715    1.399   .     A
C714   H743    1.082   .     S
C715   O766    1.383   .     S
C716   C733    1.395   .     A
C716   H744    1.077   .     S
C717   C733    1.402   .     A
C717   C732    1.397   .     A
C717   F758    1.358   .     S
C718   C734    1.397   .     A
C718   C720    1.470   .     S
C719   H747    1.083   .     S
C719   C725    1.398   .     A
C719   C898    1.383   .     S
C720   O752    1.293   .     A
C720   O753    1.298   .     A
C721   C722    1.408   .     A
C721   F759    1.358   .     S
C722   C723    1.407   .     A
C722   C730    1.455   .     S
C723   F760    1.358   .     S
C724   H739    1.084   .     S
C724   C725    1.398   .     A
C724   C900    1.383   .     S
C726   N749    1.370   .     A
C726   F761    1.350   .     S
C726   C786    1.414   .     S
C727   N748    1.364   .     A
C727   H740    1.082   .     S
C727   C844    1.414   1_455 S
C728   H741    1.082   .     S
C728   N748    1.368   .     A
C728   C847    1.417   1_455 S
C729   N749    1.367   .     A
C729   H742    1.082   .     S
C729   C787    1.417   .     S
C730   O755    1.293   .     A
C730   O754    1.293   .     A
C731   O756    1.296   .     A
C731   C733    1.467   .     S
C731   O757    1.296   .     A
C734   H745    1.084   .     S
C734   C735    1.384   .     A
C735   H746    1.083   .     S
C735   C205    1.404   1_556 S
C736   O764    1.382   .     S
Cu737  O750    1.966   .     S
Cu737  O754    1.967   .     S
Cu737  Cu738   2.680   .     S
Cu737  N748    2.014   .     S
Cu737  O752    1.952   .     S
Cu737  O756    1.940   .     S
Cu738  N749    2.014   .     S
Cu738  O753    1.940   .     S
Cu738  O757    1.952   .     S
Cu738  O751    1.967   .     S
Cu738  O755    1.966   .     S
O762   H763    0.990   .     S
O762   C201    1.381   1_556 S
O764   H765    0.992   .     S
O766   H767    0.992   .     S
C768   O809    1.291   .     A
C768   C784    1.447   .     S
C768   O810    1.291   .     A
C769   C770    1.422   .     A
C769   C240    1.426   1_556 S
C769   C264    1.431   1_556 S
C770   C777    1.413   .     A
C770   C774    1.414   .     A
C771   C775    1.399   .     A
C772   C773    1.399   .     A
C772   C240    1.420   1_556 S
C772   C260    1.421   1_556 S
C773   C774    1.399   .     A
C773   H802    1.082   .     S
C774   O825    1.383   .     S
C775   C792    1.395   .     A
C775   H803    1.077   .     S
C776   C792    1.402   .     A
C776   C791    1.397   .     A
C776   F817    1.358   .     S
C777   C793    1.397   .     A
C777   C779    1.470   .     S
C778   H806    1.083   .     S
C778   C784    1.398   .     A
C778   C957    1.383   .     S
C779   O811    1.293   .     A
C779   O812    1.298   .     A
C780   C781    1.408   .     A
C780   F818    1.358   .     S
C781   C782    1.407   .     A
C781   C789    1.455   .     S
C782   F819    1.358   .     S
C783   H798    1.084   .     S
C783   C784    1.398   .     A
C783   C959    1.383   .     S
C785   N808    1.370   .     A
C785   F820    1.350   .     S
C785   C845    1.414   .     S
C786   N807    1.364   .     A
C786   H799    1.082   .     S
C787   H800    1.082   .     S
C787   N807    1.368   .     A
C788   N808    1.367   .     A
C788   H801    1.082   .     S
C788   C846    1.417   .     S
C789   O814    1.293   .     A
C789   O813    1.293   .     A
C790   O815    1.296   .     A
C790   C792    1.467   .     S
C790   O816    1.296   .     A
C793   H804    1.084   .     S
C793   C794    1.384   .     A
C794   H805    1.083   .     S
C794   C264    1.404   1_556 S
C795   O823    1.382   .     S
Cu796  O809    1.966   .     S
Cu796  O813    1.967   .     S
Cu796  Cu797   2.680   .     S
Cu796  N807    2.014   .     S
Cu796  O811    1.952   .     S
Cu796  O815    1.940   .     S
Cu797  N808    2.014   .     S
Cu797  O812    1.940   .     S
Cu797  O816    1.952   .     S
Cu797  O810    1.967   .     S
Cu797  O814    1.966   .     S
O821   H822    0.990   .     S
O821   C260    1.381   1_556 S
O823   H824    0.992   .     S
O825   H826    0.992   .     S
C827   O868    1.291   .     A
C827   C843    1.447   .     S
C827   O869    1.291   .     A
C828   C829    1.422   .     A
C828   C299    1.426   1_556 S
C828   C323    1.431   1_556 S
C829   C836    1.413   .     A
C829   C833    1.414   .     A
C830   C834    1.399   .     A
C831   C832    1.399   .     A
C831   C299    1.420   1_556 S
C831   C319    1.421   1_556 S
C832   C833    1.399   .     A
C832   H861    1.082   .     S
C833   O884    1.383   .     S
C834   C851    1.395   .     A
C834   H862    1.077   .     S
C835   C851    1.402   .     A
C835   C850    1.397   .     A
C835   F876    1.358   .     S
C836   C852    1.397   .     A
C836   C838    1.470   .     S
C837   H865    1.083   .     S
C837   C843    1.398   .     A
C837   C1016   1.383   .     S
C838   O870    1.293   .     A
C838   O871    1.298   .     A
C839   C840    1.408   .     A
C839   F877    1.358   .     S
C840   C841    1.407   .     A
C840   C848    1.455   .     S
C841   F878    1.358   .     S
C842   H857    1.084   .     S
C842   C843    1.398   .     A
C842   C1018   1.383   .     S
C844   N867    1.370   .     A
C844   F879    1.350   .     S
C844   C727    1.414   1_655 S
C845   N866    1.364   .     A
C845   H858    1.082   .     S
C846   H859    1.082   .     S
C846   N866    1.368   .     A
C847   N867    1.367   .     A
C847   H860    1.082   .     S
C847   C728    1.417   1_655 S
C848   O873    1.293   .     A
C848   O872    1.293   .     A
C849   O874    1.296   .     A
C849   C851    1.467   .     S
C849   O875    1.296   .     A
C852   H863    1.084   .     S
C852   C853    1.384   .     A
C853   H864    1.083   .     S
C853   C323    1.404   1_556 S
C854   O882    1.382   .     S
Cu855  O868    1.966   .     S
Cu855  O872    1.967   .     S
Cu855  Cu856   2.680   .     S
Cu855  N866    2.014   .     S
Cu855  O870    1.952   .     S
Cu855  O874    1.940   .     S
Cu856  N867    2.014   .     S
Cu856  O871    1.940   .     S
Cu856  O875    1.952   .     S
Cu856  O869    1.967   .     S
Cu856  O873    1.966   .     S
O880   H881    0.990   .     S
O880   C319    1.381   1_556 S
O882   H883    0.992   .     S
O884   H885    0.992   .     S
C886   O927    1.291   .     A
C886   C902    1.447   .     S
C886   O928    1.291   .     A
C887   C888    1.422   .     A
C887   C358    1.426   1_556 S
C887   C382    1.431   1_556 S
C888   C895    1.413   .     A
C888   C892    1.414   .     A
C889   C893    1.399   .     A
C890   C891    1.399   .     A
C890   C358    1.420   1_556 S
C890   C378    1.421   1_556 S
C891   C892    1.399   .     A
C891   H920    1.082   .     S
C892   O943    1.383   .     S
C893   C910    1.395   .     A
C893   H921    1.077   .     S
C894   C910    1.402   .     A
C894   C909    1.397   .     A
C894   F935    1.358   .     S
C895   C911    1.397   .     A
C895   C897    1.470   .     S
C896   H924    1.083   .     S
C896   C902    1.398   .     A
C896   C544    1.383   1_565 S
C897   O929    1.293   .     A
C897   O930    1.298   .     A
C898   C899    1.408   .     A
C898   F936    1.358   .     S
C899   C900    1.407   .     A
C899   C907    1.455   .     S
C900   F937    1.358   .     S
C901   H916    1.084   .     S
C901   C902    1.398   .     A
C901   C546    1.383   1_565 S
C903   N926    1.370   .     A
C903   F938    1.350   .     S
C903   C963    1.414   .     S
C904   N925    1.364   .     A
C904   H917    1.082   .     S
C904   C1021   1.414   1_455 S
C905   H918    1.082   .     S
C905   N925    1.368   .     A
C905   C1024   1.417   1_455 S
C906   N926    1.367   .     A
C906   H919    1.082   .     S
C906   C964    1.417   .     S
C907   O932    1.293   .     A
C907   O931    1.293   .     A
C908   O933    1.296   .     A
C908   C910    1.467   .     S
C908   O934    1.296   .     A
C911   H922    1.084   .     S
C911   C912    1.384   .     A
C912   H923    1.083   .     S
C912   C382    1.404   1_556 S
C913   O941    1.382   .     S
Cu914  O927    1.966   .     S
Cu914  O931    1.967   .     S
Cu914  Cu915   2.680   .     S
Cu914  N925    2.014   .     S
Cu914  O929    1.952   .     S
Cu914  O933    1.940   .     S
Cu915  N926    2.014   .     S
Cu915  O930    1.940   .     S
Cu915  O934    1.952   .     S
Cu915  O928    1.967   .     S
Cu915  O932    1.966   .     S
O939   H940    0.990   .     S
O939   C378    1.381   1_556 S
O941   H942    0.992   .     S
O943   H944    0.992   .     S
C945   O986    1.291   .     A
C945   C961    1.447   .     S
C945   O987    1.291   .     A
C946   C947    1.422   .     A
C946   C417    1.426   1_556 S
C946   C441    1.431   1_556 S
C947   C954    1.413   .     A
C947   C951    1.414   .     A
C948   C952    1.399   .     A
C949   C950    1.399   .     A
C949   C417    1.420   1_556 S
C949   C437    1.421   1_556 S
C950   C951    1.399   .     A
C950   H979    1.082   .     S
C951   O1002   1.383   .     S
C952   C969    1.395   .     A
C952   H980    1.077   .     S
C953   C969    1.402   .     A
C953   C968    1.397   .     A
C953   F994    1.358   .     S
C954   C970    1.397   .     A
C954   C956    1.470   .     S
C955   H983    1.083   .     S
C955   C961    1.398   .     A
C955   C603    1.383   1_565 S
C956   O988    1.293   .     A
C956   O989    1.298   .     A
C957   C958    1.408   .     A
C957   F995    1.358   .     S
C958   C959    1.407   .     A
C958   C966    1.455   .     S
C959   F996    1.358   .     S
C960   H975    1.084   .     S
C960   C961    1.398   .     A
C960   C605    1.383   1_565 S
C962   N985    1.370   .     A
C962   F997    1.350   .     S
C962   C1022   1.414   .     S
C963   N984    1.364   .     A
C963   H976    1.082   .     S
C964   H977    1.082   .     S
C964   N984    1.368   .     A
C965   N985    1.367   .     A
C965   H978    1.082   .     S
C965   C1023   1.417   .     S
C966   O991    1.293   .     A
C966   O990    1.293   .     A
C967   O992    1.296   .     A
C967   C969    1.467   .     S
C967   O993    1.296   .     A
C970   H981    1.084   .     S
C970   C971    1.384   .     A
C971   H982    1.083   .     S
C971   C441    1.404   1_556 S
C972   O1000   1.382   .     S
Cu973  O986    1.966   .     S
Cu973  O990    1.967   .     S
Cu973  Cu974   2.680   .     S
Cu973  N984    2.014   .     S
Cu973  O988    1.952   .     S
Cu973  O992    1.940   .     S
Cu974  N985    2.014   .     S
Cu974  O989    1.940   .     S
Cu974  O993    1.952   .     S
Cu974  O987    1.967   .     S
Cu974  O991    1.966   .     S
O998   H999    0.990   .     S
O998   C437    1.381   1_556 S
O1000  H1001   0.992   .     S
O1002  H1003   0.992   .     S
C1004  O1045   1.291   .     A
C1004  C1020   1.447   .     S
C1004  O1046   1.291   .     A
C1005  C1006   1.422   .     A
C1005  C476    1.426   1_556 S
C1005  C500    1.431   1_556 S
C1006  C1013   1.413   .     A
C1006  C1010   1.414   .     A
C1007  C1011   1.399   .     A
C1008  C1009   1.399   .     A
C1008  C476    1.420   1_556 S
C1008  C496    1.421   1_556 S
C1009  C1010   1.399   .     A
C1009  H1038   1.082   .     S
C1010  O1061   1.383   .     S
C1011  C1028   1.395   .     A
C1011  H1039   1.077   .     S
C1012  C1028   1.402   .     A
C1012  C1027   1.397   .     A
C1012  F1053   1.358   .     S
C1013  C1029   1.397   .     A
C1013  C1015   1.470   .     S
C1014  H1042   1.083   .     S
C1014  C1020   1.398   .     A
C1014  C662    1.383   1_565 S
C1015  O1047   1.293   .     A
C1015  O1048   1.298   .     A
C1016  C1017   1.408   .     A
C1016  F1054   1.358   .     S
C1017  C1018   1.407   .     A
C1017  C1025   1.455   .     S
C1018  F1055   1.358   .     S
C1019  H1034   1.084   .     S
C1019  C1020   1.398   .     A
C1019  C664    1.383   1_565 S
C1021  N1044   1.370   .     A
C1021  F1056   1.350   .     S
C1021  C904    1.414   1_655 S
C1022  N1043   1.364   .     A
C1022  H1035   1.082   .     S
C1023  H1036   1.082   .     S
C1023  N1043   1.368   .     A
C1024  N1044   1.367   .     A
C1024  H1037   1.082   .     S
C1024  C905    1.417   1_655 S
C1025  O1050   1.293   .     A
C1025  O1049   1.293   .     A
C1026  O1051   1.296   .     A
C1026  C1028   1.467   .     S
C1026  O1052   1.296   .     A
C1029  H1040   1.084   .     S
C1029  C1030   1.384   .     A
C1030  H1041   1.083   .     S
C1030  C500    1.404   1_556 S
C1031  O1059   1.382   .     S
Cu1032 O1045   1.966   .     S
Cu1032 O1049   1.967   .     S
Cu1032 Cu1033  2.680   .     S
Cu1032 N1043   2.014   .     S
Cu1032 O1047   1.952   .     S
Cu1032 O1051   1.940   .     S
Cu1033 N1044   2.014   .     S
Cu1033 O1048   1.940   .     S
Cu1033 O1052   1.952   .     S
Cu1033 O1046   1.967   .     S
Cu1033 O1050   1.966   .     S
O1057  H1058   0.990   .     S
O1057  C496    1.381   1_556 S
O1059  H1060   0.992   .     S
O1061  H1062   0.992   .     S
