data_str_m1_o10_o16_pcu_sym.52
_audit_creation_date              2020-01-03
_audit_creation_method            'Materials Studio'
_symmetry_space_group_name_H-M    'P1'
_symmetry_Int_Tables_number       1
_symmetry_cell_setting            triclinic
loop_
_symmetry_equiv_pos_as_xyz
  x,y,z
_cell_length_a                    32.6827
_cell_length_b                    32.5941
_cell_length_c                    31.1857
_cell_angle_alpha                 96.3139
_cell_angle_beta                  75.1821
_cell_angle_gamma                 98.2270
loop_
_atom_site_label
_atom_site_type_symbol
_atom_site_fract_x
_atom_site_fract_y
_atom_site_fract_z
_atom_site_U_iso_or_equiv
_atom_site_adp_type
_atom_site_occupancy
C1     C     0.05331   0.16027   0.25914   0.00000  Uiso   1.00
C2     C     0.17320   0.16619   0.05918   0.00000  Uiso   1.00
C3     C     0.21735   0.11102   0.05877   0.00000  Uiso   1.00
C4     C     0.28056   0.17341   0.24018   0.00000  Uiso   1.00
C5     C     0.14240   0.19342   0.42003   0.00000  Uiso   1.00
C6     C     0.32632   0.17369   0.23517   0.00000  Uiso   1.00
C7     C     0.00763   0.15647   0.26506   0.00000  Uiso   1.00
C8     C     0.17990   0.32290   0.23685   0.00000  Uiso   1.00
C9     C     0.15135   0.01218   0.26479   0.00000  Uiso   1.00
C10    C     0.15602   0.05617   0.26043   0.00000  Uiso   1.00
C11    C     0.17647   0.27789   0.24025   0.00000  Uiso   1.00
C12    C     0.08956   0.20611   0.49006   0.00000  Uiso   1.00
C13    C     0.18514   0.14824   0.12974   0.00000  Uiso   1.00
C14    C     0.14999   0.18586   0.37078   0.00000  Uiso   1.00
C15    C     0.22739   0.10716   0.01216   0.00000  Uiso   1.00
C16    C     0.19180   0.14171   0.08199   0.00000  Uiso   1.00
C17    C     0.10474   0.21049   0.44397   0.00000  Uiso   1.00
C18    C     0.26445   0.10420   0.10085   0.00000  Uiso   1.00
C19    C     0.33297   0.11257   0.32197   0.00000  Uiso   1.00
C20    C     0.22667   0.07431   0.39706   0.00000  Uiso   1.00
C21    C     0.29702   0.09703   0.48335   0.00000  Uiso   1.00
C22    C     0.13021   0.20499   0.11724   0.00000  Uiso   1.00
C23    C     0.11045   0.18276   0.01110   0.00000  Uiso   1.00
C24    C     0.26970   0.20400   0.39360   0.00000  Uiso   1.00
C25    C     0.02163   0.16840   0.16050   0.00000  Uiso   1.00
C26    C     0.15214   0.17349   0.49005   0.00000  Uiso   1.00
C27    C     0.16809   0.17783   0.44387   0.00000  Uiso   1.00
C28    C     0.17713   0.15648   0.01330   0.00000  Uiso   1.00
C29    C     0.20836   0.13109   0.48914   0.00000  Uiso   1.00
C30    C     0.22153   0.13290   0.44273   0.00000  Uiso   1.00
C31    C     0.20813   0.16373   0.42325   0.00000  Uiso   1.00
H32    H     0.25137   0.10949   0.13726   0.00000  Uiso   1.00
H33    H     0.20057   0.05822   0.42235   0.00000  Uiso   1.00
H34    H     0.24824   0.05084   0.38054   0.00000  Uiso   1.00
H35    H     0.30191   0.12929   0.47266   0.00000  Uiso   1.00
H36    H     0.31736   0.07821   0.45672   0.00000  Uiso   1.00
H37    H     0.30825   0.09689   0.01396   0.00000  Uiso   1.00
H38    H     0.14497   0.21721   0.14511   0.00000  Uiso   1.00
H39    H     0.11193   0.17391   0.12385   0.00000  Uiso   1.00
H40    H     0.10726   0.22665   0.11627   0.00000  Uiso   1.00
H41    H     0.05065   0.22236   0.43569   0.00000  Uiso   1.00
H42    H     0.05852   0.16758   0.05635   0.00000  Uiso   1.00
H43    H     0.27998   0.13426   0.08686   0.00000  Uiso   1.00
H44    H     0.05102   0.24840   0.00201   0.00000  Uiso   1.00
H45    H     0.29114   0.18513   0.40340   0.00000  Uiso   1.00
H46    H     0.26034   0.22937   0.41980   0.00000  Uiso   1.00
H47    H     0.28805   0.21873   0.36292   0.00000  Uiso   1.00
H48    H     0.32259   0.15699   0.15567   0.00000  Uiso   1.00
H49    H     0.03959   0.14156   0.15894   0.00000  Uiso   1.00
H50    H     0.03774   0.18741   0.13237   0.00000  Uiso   1.00
H51    H     0.28970   0.08353   0.09596   0.00000  Uiso   1.00
H52    H     0.02180   0.13173   0.34009   0.00000  Uiso   1.00
H53    H     0.01623   0.08921   0.29739   0.00000  Uiso   1.00
H54    H     0.30845   0.09495   0.34661   0.00000  Uiso   1.00
H55    H     0.23055   0.32234   0.18723   0.00000  Uiso   1.00
H56    H     0.10120   0.01691   0.31371   0.00000  Uiso   1.00
H57    H     0.21356   0.08521   0.37130   0.00000  Uiso   1.00
O58    O     0.16667   0.16667   0.25000   0.00000  Uiso   1.00
O59    O     0.15451   0.12637   0.15459   0.00000  Uiso   1.00
O60    O     0.12940   0.20391   0.34968   0.00000  Uiso   1.00
O61    O     0.20824   0.17759   0.14606   0.00000  Uiso   1.00
O62    O     0.17451   0.15880   0.34968   0.00000  Uiso   1.00
O63    O     0.23203   0.08363   0.08086   0.00000  Uiso   1.00
O64    O     0.31297   0.13803   0.30169   0.00000  Uiso   1.00
O65    O     0.21224   0.00953   0.20518   0.00000  Uiso   1.00
O66    O     0.11807   0.32795   0.29715   0.00000  Uiso   1.00
O67    O     0.25016   0.10761   0.41661   0.00000  Uiso   1.00
O68    O     0.25430   0.07853   0.48945   0.00000  Uiso   1.00
O69    O     0.17930   0.08019   0.28214   0.00000  Uiso   1.00
O70    O     0.16159   0.20544   0.07656   0.00000  Uiso   1.00
O71    O     0.08139   0.22816   0.42119   0.00000  Uiso   1.00
O72    O     0.08945   0.16566   0.05057   0.00000  Uiso   1.00
O73    O     0.05360   0.22283   0.01511   0.00000  Uiso   1.00
O74    O     0.23366   0.17892   0.38422   0.00000  Uiso   1.00
O75    O     0.02124   0.19362   0.20036   0.00000  Uiso   1.00
O76    O     0.14632   0.26085   0.27014   0.00000  Uiso   1.00
O77    O     0.07412   0.13291   0.23413   0.00000  Uiso   1.00
O78    O     0.26693   0.19272   0.21361   0.00000  Uiso   1.00
O79    O     0.07071   0.18878   0.28213   0.00000  Uiso   1.00
O80    O     0.25491   0.15226   0.27014   0.00000  Uiso   1.00
O81    O     0.13760   0.06944   0.23413   0.00000  Uiso   1.00
O82    O     0.20345   0.25620   0.21361   0.00000  Uiso   1.00
Zn83   Zn    0.19338   0.13994   0.28734   0.00000  Uiso   1.00
Zn84   Zn    0.13379   0.12458   0.21876   0.00000  Uiso   1.00
Zn85   Zn    0.21056   0.19775   0.20657   0.00000  Uiso   1.00
Zn86   Zn    0.12893   0.20439   0.28734   0.00000  Uiso   1.00
C87    C     0.38664   0.16027   0.25914   0.00000  Uiso   1.00
C88    C     0.50653   0.16619   0.05918   0.00000  Uiso   1.00
C89    C     0.55068   0.11102   0.05877   0.00000  Uiso   1.00
C90    C     0.61389   0.17341   0.24018   0.00000  Uiso   1.00
C91    C     0.47574   0.19342   0.42003   0.00000  Uiso   1.00
C92    C     0.65965   0.17369   0.23517   0.00000  Uiso   1.00
C93    C     0.34096   0.15647   0.26506   0.00000  Uiso   1.00
C94    C     0.51323   0.32290   0.23685   0.00000  Uiso   1.00
C95    C     0.48468   0.01218   0.26479   0.00000  Uiso   1.00
C96    C     0.48935   0.05617   0.26043   0.00000  Uiso   1.00
C97    C     0.50980   0.27789   0.24025   0.00000  Uiso   1.00
C98    C     0.42290   0.20611   0.49006   0.00000  Uiso   1.00
C99    C     0.51847   0.14824   0.12974   0.00000  Uiso   1.00
C100   C     0.48333   0.18586   0.37078   0.00000  Uiso   1.00
C101   C     0.56073   0.10716   0.01216   0.00000  Uiso   1.00
C102   C     0.52514   0.14171   0.08199   0.00000  Uiso   1.00
C103   C     0.43807   0.21049   0.44397   0.00000  Uiso   1.00
C104   C     0.59778   0.10420   0.10085   0.00000  Uiso   1.00
C105   C     0.66630   0.11257   0.32197   0.00000  Uiso   1.00
C106   C     0.56001   0.07431   0.39706   0.00000  Uiso   1.00
C107   C     0.63035   0.09703   0.48335   0.00000  Uiso   1.00
C108   C     0.46354   0.20499   0.11724   0.00000  Uiso   1.00
C109   C     0.44379   0.18276   0.01110   0.00000  Uiso   1.00
C110   C     0.60303   0.20400   0.39360   0.00000  Uiso   1.00
C111   C     0.35496   0.16840   0.16050   0.00000  Uiso   1.00
C112   C     0.48548   0.17349   0.49005   0.00000  Uiso   1.00
C113   C     0.50142   0.17783   0.44387   0.00000  Uiso   1.00
C114   C     0.51047   0.15648   0.01330   0.00000  Uiso   1.00
C115   C     0.54169   0.13109   0.48914   0.00000  Uiso   1.00
C116   C     0.55486   0.13290   0.44273   0.00000  Uiso   1.00
C117   C     0.54147   0.16373   0.42325   0.00000  Uiso   1.00
H118   H     0.58471   0.10949   0.13726   0.00000  Uiso   1.00
H119   H     0.53390   0.05822   0.42235   0.00000  Uiso   1.00
H120   H     0.58158   0.05084   0.38054   0.00000  Uiso   1.00
H121   H     0.63525   0.12929   0.47266   0.00000  Uiso   1.00
H122   H     0.65069   0.07821   0.45672   0.00000  Uiso   1.00
H123   H     0.64158   0.09689   0.01396   0.00000  Uiso   1.00
H124   H     0.47830   0.21721   0.14511   0.00000  Uiso   1.00
H125   H     0.44526   0.17391   0.12385   0.00000  Uiso   1.00
H126   H     0.44059   0.22665   0.11627   0.00000  Uiso   1.00
H127   H     0.38399   0.22236   0.43569   0.00000  Uiso   1.00
H128   H     0.39185   0.16758   0.05635   0.00000  Uiso   1.00
H129   H     0.61331   0.13426   0.08686   0.00000  Uiso   1.00
H130   H     0.38436   0.24840   0.00201   0.00000  Uiso   1.00
H131   H     0.62448   0.18513   0.40340   0.00000  Uiso   1.00
H132   H     0.59368   0.22937   0.41980   0.00000  Uiso   1.00
H133   H     0.62138   0.21873   0.36292   0.00000  Uiso   1.00
H134   H     0.65593   0.15699   0.15567   0.00000  Uiso   1.00
H135   H     0.37292   0.14156   0.15894   0.00000  Uiso   1.00
H136   H     0.37108   0.18741   0.13237   0.00000  Uiso   1.00
H137   H     0.62304   0.08353   0.09596   0.00000  Uiso   1.00
H138   H     0.35514   0.13173   0.34009   0.00000  Uiso   1.00
H139   H     0.34956   0.08921   0.29739   0.00000  Uiso   1.00
H140   H     0.64178   0.09495   0.34661   0.00000  Uiso   1.00
H141   H     0.56388   0.32234   0.18723   0.00000  Uiso   1.00
H142   H     0.43453   0.01691   0.31371   0.00000  Uiso   1.00
H143   H     0.54689   0.08521   0.37130   0.00000  Uiso   1.00
O144   O     0.50000   0.16667   0.25000   0.00000  Uiso   1.00
O145   O     0.48784   0.12637   0.15459   0.00000  Uiso   1.00
O146   O     0.46274   0.20391   0.34968   0.00000  Uiso   1.00
O147   O     0.54157   0.17759   0.14606   0.00000  Uiso   1.00
O148   O     0.50785   0.15880   0.34968   0.00000  Uiso   1.00
O149   O     0.56536   0.08363   0.08086   0.00000  Uiso   1.00
O150   O     0.64630   0.13803   0.30169   0.00000  Uiso   1.00
O151   O     0.54558   0.00953   0.20518   0.00000  Uiso   1.00
O152   O     0.45140   0.32795   0.29715   0.00000  Uiso   1.00
O153   O     0.58349   0.10761   0.41661   0.00000  Uiso   1.00
O154   O     0.58764   0.07853   0.48945   0.00000  Uiso   1.00
O155   O     0.51264   0.08019   0.28214   0.00000  Uiso   1.00
O156   O     0.49492   0.20544   0.07656   0.00000  Uiso   1.00
O157   O     0.41473   0.22816   0.42119   0.00000  Uiso   1.00
O158   O     0.42278   0.16566   0.05057   0.00000  Uiso   1.00
O159   O     0.38694   0.22283   0.01511   0.00000  Uiso   1.00
O160   O     0.56699   0.17892   0.38422   0.00000  Uiso   1.00
O161   O     0.35457   0.19362   0.20036   0.00000  Uiso   1.00
O162   O     0.47965   0.26085   0.27014   0.00000  Uiso   1.00
O163   O     0.40745   0.13291   0.23413   0.00000  Uiso   1.00
O164   O     0.60026   0.19272   0.21361   0.00000  Uiso   1.00
O165   O     0.40405   0.18878   0.28213   0.00000  Uiso   1.00
O166   O     0.58824   0.15226   0.27014   0.00000  Uiso   1.00
O167   O     0.47093   0.06944   0.23413   0.00000  Uiso   1.00
O168   O     0.53678   0.25620   0.21361   0.00000  Uiso   1.00
Zn169  Zn    0.52672   0.13994   0.28734   0.00000  Uiso   1.00
Zn170  Zn    0.46713   0.12458   0.21876   0.00000  Uiso   1.00
Zn171  Zn    0.54389   0.19775   0.20657   0.00000  Uiso   1.00
Zn172  Zn    0.46226   0.20439   0.28734   0.00000  Uiso   1.00
C173   C     0.71997   0.16027   0.25914   0.00000  Uiso   1.00
C174   C     0.83987   0.16619   0.05918   0.00000  Uiso   1.00
C175   C     0.88402   0.11102   0.05877   0.00000  Uiso   1.00
C176   C     0.94723   0.17341   0.24018   0.00000  Uiso   1.00
C177   C     0.80907   0.19342   0.42003   0.00000  Uiso   1.00
C178   C     0.99298   0.17369   0.23517   0.00000  Uiso   1.00
C179   C     0.67429   0.15647   0.26506   0.00000  Uiso   1.00
C180   C     0.84656   0.32290   0.23685   0.00000  Uiso   1.00
C181   C     0.81801   0.01218   0.26479   0.00000  Uiso   1.00
C182   C     0.82268   0.05617   0.26043   0.00000  Uiso   1.00
C183   C     0.84313   0.27789   0.24025   0.00000  Uiso   1.00
C184   C     0.75623   0.20611   0.49006   0.00000  Uiso   1.00
C185   C     0.85180   0.14824   0.12974   0.00000  Uiso   1.00
C186   C     0.81666   0.18586   0.37078   0.00000  Uiso   1.00
C187   C     0.89406   0.10716   0.01216   0.00000  Uiso   1.00
C188   C     0.85847   0.14171   0.08199   0.00000  Uiso   1.00
C189   C     0.77140   0.21049   0.44397   0.00000  Uiso   1.00
C190   C     0.93112   0.10420   0.10085   0.00000  Uiso   1.00
C191   C     0.99964   0.11257   0.32197   0.00000  Uiso   1.00
C192   C     0.89334   0.07431   0.39706   0.00000  Uiso   1.00
C193   C     0.96368   0.09703   0.48335   0.00000  Uiso   1.00
C194   C     0.79688   0.20499   0.11724   0.00000  Uiso   1.00
C195   C     0.77712   0.18276   0.01110   0.00000  Uiso   1.00
C196   C     0.93636   0.20400   0.39360   0.00000  Uiso   1.00
C197   C     0.68830   0.16840   0.16050   0.00000  Uiso   1.00
C198   C     0.81881   0.17349   0.49005   0.00000  Uiso   1.00
C199   C     0.83475   0.17783   0.44387   0.00000  Uiso   1.00
C200   C     0.84380   0.15648   0.01330   0.00000  Uiso   1.00
C201   C     0.87503   0.13109   0.48914   0.00000  Uiso   1.00
C202   C     0.88820   0.13290   0.44273   0.00000  Uiso   1.00
C203   C     0.87480   0.16373   0.42325   0.00000  Uiso   1.00
H204   H     0.91804   0.10949   0.13726   0.00000  Uiso   1.00
H205   H     0.86723   0.05822   0.42235   0.00000  Uiso   1.00
H206   H     0.91491   0.05084   0.38054   0.00000  Uiso   1.00
H207   H     0.96858   0.12929   0.47266   0.00000  Uiso   1.00
H208   H     0.98403   0.07821   0.45672   0.00000  Uiso   1.00
H209   H     0.97491   0.09689   0.01396   0.00000  Uiso   1.00
H210   H     0.81163   0.21721   0.14511   0.00000  Uiso   1.00
H211   H     0.77860   0.17391   0.12385   0.00000  Uiso   1.00
H212   H     0.77393   0.22665   0.11627   0.00000  Uiso   1.00
H213   H     0.71732   0.22236   0.43569   0.00000  Uiso   1.00
H214   H     0.72519   0.16758   0.05635   0.00000  Uiso   1.00
H215   H     0.94664   0.13426   0.08686   0.00000  Uiso   1.00
H216   H     0.71769   0.24840   0.00201   0.00000  Uiso   1.00
H217   H     0.95781   0.18513   0.40340   0.00000  Uiso   1.00
H218   H     0.92701   0.22937   0.41980   0.00000  Uiso   1.00
H219   H     0.95472   0.21873   0.36292   0.00000  Uiso   1.00
H220   H     0.98926   0.15699   0.15567   0.00000  Uiso   1.00
H221   H     0.70626   0.14156   0.15894   0.00000  Uiso   1.00
H222   H     0.70441   0.18741   0.13237   0.00000  Uiso   1.00
H223   H     0.95637   0.08353   0.09596   0.00000  Uiso   1.00
H224   H     0.68847   0.13173   0.34009   0.00000  Uiso   1.00
H225   H     0.68289   0.08921   0.29739   0.00000  Uiso   1.00
H226   H     0.97512   0.09495   0.34661   0.00000  Uiso   1.00
H227   H     0.89721   0.32234   0.18723   0.00000  Uiso   1.00
H228   H     0.76787   0.01691   0.31371   0.00000  Uiso   1.00
H229   H     0.88022   0.08521   0.37130   0.00000  Uiso   1.00
O230   O     0.83333   0.16667   0.25000   0.00000  Uiso   1.00
O231   O     0.82118   0.12637   0.15459   0.00000  Uiso   1.00
O232   O     0.79607   0.20391   0.34968   0.00000  Uiso   1.00
O233   O     0.87491   0.17759   0.14606   0.00000  Uiso   1.00
O234   O     0.84118   0.15880   0.34968   0.00000  Uiso   1.00
O235   O     0.89870   0.08363   0.08086   0.00000  Uiso   1.00
O236   O     0.97963   0.13803   0.30169   0.00000  Uiso   1.00
O237   O     0.87891   0.00953   0.20518   0.00000  Uiso   1.00
O238   O     0.78473   0.32795   0.29715   0.00000  Uiso   1.00
O239   O     0.91682   0.10761   0.41661   0.00000  Uiso   1.00
O240   O     0.92097   0.07853   0.48945   0.00000  Uiso   1.00
O241   O     0.84597   0.08019   0.28214   0.00000  Uiso   1.00
O242   O     0.82826   0.20544   0.07656   0.00000  Uiso   1.00
O243   O     0.74806   0.22816   0.42119   0.00000  Uiso   1.00
O244   O     0.75612   0.16566   0.05057   0.00000  Uiso   1.00
O245   O     0.72027   0.22283   0.01511   0.00000  Uiso   1.00
O246   O     0.90033   0.17892   0.38422   0.00000  Uiso   1.00
O247   O     0.68790   0.19362   0.20036   0.00000  Uiso   1.00
O248   O     0.81298   0.26085   0.27014   0.00000  Uiso   1.00
O249   O     0.74078   0.13291   0.23413   0.00000  Uiso   1.00
O250   O     0.93360   0.19272   0.21361   0.00000  Uiso   1.00
O251   O     0.73738   0.18878   0.28213   0.00000  Uiso   1.00
O252   O     0.92158   0.15226   0.27014   0.00000  Uiso   1.00
O253   O     0.80426   0.06944   0.23413   0.00000  Uiso   1.00
O254   O     0.87012   0.25620   0.21361   0.00000  Uiso   1.00
Zn255  Zn    0.86005   0.13994   0.28734   0.00000  Uiso   1.00
Zn256  Zn    0.80046   0.12458   0.21876   0.00000  Uiso   1.00
Zn257  Zn    0.87723   0.19775   0.20657   0.00000  Uiso   1.00
Zn258  Zn    0.79560   0.20439   0.28734   0.00000  Uiso   1.00
C259   C     0.05331   0.49360   0.25914   0.00000  Uiso   1.00
C260   C     0.17320   0.49952   0.05918   0.00000  Uiso   1.00
C261   C     0.21735   0.44436   0.05877   0.00000  Uiso   1.00
C262   C     0.28056   0.50675   0.24018   0.00000  Uiso   1.00
C263   C     0.14240   0.52676   0.42003   0.00000  Uiso   1.00
C264   C     0.32632   0.50702   0.23517   0.00000  Uiso   1.00
C265   C     0.00763   0.48980   0.26506   0.00000  Uiso   1.00
C266   C     0.17990   0.65623   0.23685   0.00000  Uiso   1.00
C267   C     0.15135   0.34551   0.26479   0.00000  Uiso   1.00
C268   C     0.15602   0.38950   0.26043   0.00000  Uiso   1.00
C269   C     0.17647   0.61123   0.24025   0.00000  Uiso   1.00
C270   C     0.08956   0.53945   0.49006   0.00000  Uiso   1.00
C271   C     0.18514   0.48158   0.12974   0.00000  Uiso   1.00
C272   C     0.14999   0.51919   0.37078   0.00000  Uiso   1.00
C273   C     0.22739   0.44050   0.01216   0.00000  Uiso   1.00
C274   C     0.19180   0.47505   0.08199   0.00000  Uiso   1.00
C275   C     0.10474   0.54382   0.44397   0.00000  Uiso   1.00
C276   C     0.26445   0.43753   0.10085   0.00000  Uiso   1.00
C277   C     0.33297   0.44590   0.32197   0.00000  Uiso   1.00
C278   C     0.22667   0.40764   0.39706   0.00000  Uiso   1.00
C279   C     0.29702   0.43037   0.48335   0.00000  Uiso   1.00
C280   C     0.13021   0.53833   0.11724   0.00000  Uiso   1.00
C281   C     0.11045   0.51610   0.01110   0.00000  Uiso   1.00
C282   C     0.26970   0.53733   0.39360   0.00000  Uiso   1.00
C283   C     0.02163   0.50174   0.16050   0.00000  Uiso   1.00
C284   C     0.15214   0.50682   0.49005   0.00000  Uiso   1.00
C285   C     0.16809   0.51116   0.44387   0.00000  Uiso   1.00
C286   C     0.17713   0.48981   0.01330   0.00000  Uiso   1.00
C287   C     0.20836   0.46442   0.48914   0.00000  Uiso   1.00
C288   C     0.22153   0.46623   0.44273   0.00000  Uiso   1.00
C289   C     0.20813   0.49706   0.42325   0.00000  Uiso   1.00
H290   H     0.25137   0.44283   0.13726   0.00000  Uiso   1.00
H291   H     0.20057   0.39156   0.42235   0.00000  Uiso   1.00
H292   H     0.24824   0.38418   0.38054   0.00000  Uiso   1.00
H293   H     0.30191   0.46262   0.47266   0.00000  Uiso   1.00
H294   H     0.31736   0.41154   0.45672   0.00000  Uiso   1.00
H295   H     0.30825   0.43022   0.01396   0.00000  Uiso   1.00
H296   H     0.14497   0.55054   0.14511   0.00000  Uiso   1.00
H297   H     0.11193   0.50724   0.12385   0.00000  Uiso   1.00
H298   H     0.10726   0.55998   0.11627   0.00000  Uiso   1.00
H299   H     0.05065   0.55569   0.43569   0.00000  Uiso   1.00
H300   H     0.05852   0.50091   0.05635   0.00000  Uiso   1.00
H301   H     0.27998   0.46759   0.08686   0.00000  Uiso   1.00
H302   H     0.05102   0.58173   0.00201   0.00000  Uiso   1.00
H303   H     0.29114   0.51847   0.40340   0.00000  Uiso   1.00
H304   H     0.26034   0.56270   0.41980   0.00000  Uiso   1.00
H305   H     0.28805   0.55207   0.36292   0.00000  Uiso   1.00
H306   H     0.32259   0.49032   0.15567   0.00000  Uiso   1.00
H307   H     0.03959   0.47489   0.15894   0.00000  Uiso   1.00
H308   H     0.03774   0.52075   0.13237   0.00000  Uiso   1.00
H309   H     0.28970   0.41686   0.09596   0.00000  Uiso   1.00
H310   H     0.02180   0.46506   0.34009   0.00000  Uiso   1.00
H311   H     0.01623   0.42254   0.29739   0.00000  Uiso   1.00
H312   H     0.30845   0.42828   0.34661   0.00000  Uiso   1.00
H313   H     0.23055   0.65568   0.18723   0.00000  Uiso   1.00
H314   H     0.10120   0.35024   0.31371   0.00000  Uiso   1.00
H315   H     0.21356   0.41855   0.37130   0.00000  Uiso   1.00
O316   O     0.16667   0.50000   0.25000   0.00000  Uiso   1.00
O317   O     0.15451   0.45970   0.15459   0.00000  Uiso   1.00
O318   O     0.12940   0.53724   0.34968   0.00000  Uiso   1.00
O319   O     0.20824   0.51092   0.14606   0.00000  Uiso   1.00
O320   O     0.17451   0.49213   0.34968   0.00000  Uiso   1.00
O321   O     0.23203   0.41697   0.08086   0.00000  Uiso   1.00
O322   O     0.31297   0.47136   0.30169   0.00000  Uiso   1.00
O323   O     0.21224   0.34287   0.20518   0.00000  Uiso   1.00
O324   O     0.11807   0.66128   0.29715   0.00000  Uiso   1.00
O325   O     0.25016   0.44095   0.41661   0.00000  Uiso   1.00
O326   O     0.25430   0.41186   0.48945   0.00000  Uiso   1.00
O327   O     0.17930   0.41352   0.28214   0.00000  Uiso   1.00
O328   O     0.16159   0.53877   0.07656   0.00000  Uiso   1.00
O329   O     0.08139   0.56149   0.42119   0.00000  Uiso   1.00
O330   O     0.08945   0.49899   0.05057   0.00000  Uiso   1.00
O331   O     0.05360   0.55617   0.01511   0.00000  Uiso   1.00
O332   O     0.23366   0.51226   0.38422   0.00000  Uiso   1.00
O333   O     0.02124   0.52695   0.20036   0.00000  Uiso   1.00
O334   O     0.14632   0.59418   0.27014   0.00000  Uiso   1.00
O335   O     0.07412   0.46625   0.23413   0.00000  Uiso   1.00
O336   O     0.26693   0.52605   0.21361   0.00000  Uiso   1.00
O337   O     0.07071   0.52211   0.28213   0.00000  Uiso   1.00
O338   O     0.25491   0.48559   0.27014   0.00000  Uiso   1.00
O339   O     0.13760   0.40277   0.23413   0.00000  Uiso   1.00
O340   O     0.20345   0.58953   0.21361   0.00000  Uiso   1.00
Zn341  Zn    0.19338   0.47327   0.28734   0.00000  Uiso   1.00
Zn342  Zn    0.13379   0.45791   0.21876   0.00000  Uiso   1.00
Zn343  Zn    0.21056   0.53109   0.20657   0.00000  Uiso   1.00
Zn344  Zn    0.12893   0.53773   0.28734   0.00000  Uiso   1.00
C345   C     0.38664   0.49360   0.25914   0.00000  Uiso   1.00
C346   C     0.50653   0.49952   0.05918   0.00000  Uiso   1.00
C347   C     0.55068   0.44436   0.05877   0.00000  Uiso   1.00
C348   C     0.61389   0.50675   0.24018   0.00000  Uiso   1.00
C349   C     0.47574   0.52676   0.42003   0.00000  Uiso   1.00
C350   C     0.65965   0.50702   0.23517   0.00000  Uiso   1.00
C351   C     0.34096   0.48980   0.26506   0.00000  Uiso   1.00
C352   C     0.51323   0.65623   0.23685   0.00000  Uiso   1.00
C353   C     0.48468   0.34551   0.26479   0.00000  Uiso   1.00
C354   C     0.48935   0.38950   0.26043   0.00000  Uiso   1.00
C355   C     0.50980   0.61123   0.24025   0.00000  Uiso   1.00
C356   C     0.42290   0.53945   0.49006   0.00000  Uiso   1.00
C357   C     0.51847   0.48158   0.12974   0.00000  Uiso   1.00
C358   C     0.48333   0.51919   0.37078   0.00000  Uiso   1.00
C359   C     0.56073   0.44050   0.01216   0.00000  Uiso   1.00
C360   C     0.52514   0.47505   0.08199   0.00000  Uiso   1.00
C361   C     0.43807   0.54382   0.44397   0.00000  Uiso   1.00
C362   C     0.59778   0.43753   0.10085   0.00000  Uiso   1.00
C363   C     0.66630   0.44590   0.32197   0.00000  Uiso   1.00
C364   C     0.56001   0.40764   0.39706   0.00000  Uiso   1.00
C365   C     0.63035   0.43037   0.48335   0.00000  Uiso   1.00
C366   C     0.46354   0.53833   0.11724   0.00000  Uiso   1.00
C367   C     0.44379   0.51610   0.01110   0.00000  Uiso   1.00
C368   C     0.60303   0.53733   0.39360   0.00000  Uiso   1.00
C369   C     0.35496   0.50174   0.16050   0.00000  Uiso   1.00
C370   C     0.48548   0.50682   0.49005   0.00000  Uiso   1.00
C371   C     0.50142   0.51116   0.44387   0.00000  Uiso   1.00
C372   C     0.51047   0.48981   0.01330   0.00000  Uiso   1.00
C373   C     0.54169   0.46442   0.48914   0.00000  Uiso   1.00
C374   C     0.55486   0.46623   0.44273   0.00000  Uiso   1.00
C375   C     0.54147   0.49706   0.42325   0.00000  Uiso   1.00
H376   H     0.58471   0.44283   0.13726   0.00000  Uiso   1.00
H377   H     0.53390   0.39156   0.42235   0.00000  Uiso   1.00
H378   H     0.58158   0.38418   0.38054   0.00000  Uiso   1.00
H379   H     0.63525   0.46262   0.47266   0.00000  Uiso   1.00
H380   H     0.65069   0.41154   0.45672   0.00000  Uiso   1.00
H381   H     0.64158   0.43022   0.01396   0.00000  Uiso   1.00
H382   H     0.47830   0.55054   0.14511   0.00000  Uiso   1.00
H383   H     0.44526   0.50724   0.12385   0.00000  Uiso   1.00
H384   H     0.44059   0.55998   0.11627   0.00000  Uiso   1.00
H385   H     0.38399   0.55569   0.43569   0.00000  Uiso   1.00
H386   H     0.39185   0.50091   0.05635   0.00000  Uiso   1.00
H387   H     0.61331   0.46759   0.08686   0.00000  Uiso   1.00
H388   H     0.38436   0.58173   0.00201   0.00000  Uiso   1.00
H389   H     0.62448   0.51847   0.40340   0.00000  Uiso   1.00
H390   H     0.59368   0.56270   0.41980   0.00000  Uiso   1.00
H391   H     0.62138   0.55207   0.36292   0.00000  Uiso   1.00
H392   H     0.65593   0.49032   0.15567   0.00000  Uiso   1.00
H393   H     0.37292   0.47489   0.15894   0.00000  Uiso   1.00
H394   H     0.37108   0.52075   0.13237   0.00000  Uiso   1.00
H395   H     0.62304   0.41686   0.09596   0.00000  Uiso   1.00
H396   H     0.35514   0.46506   0.34009   0.00000  Uiso   1.00
H397   H     0.34956   0.42254   0.29739   0.00000  Uiso   1.00
H398   H     0.64178   0.42828   0.34661   0.00000  Uiso   1.00
H399   H     0.56388   0.65568   0.18723   0.00000  Uiso   1.00
H400   H     0.43453   0.35024   0.31371   0.00000  Uiso   1.00
H401   H     0.54689   0.41855   0.37130   0.00000  Uiso   1.00
O402   O     0.50000   0.50000   0.25000   0.00000  Uiso   1.00
O403   O     0.48784   0.45970   0.15459   0.00000  Uiso   1.00
O404   O     0.46274   0.53724   0.34968   0.00000  Uiso   1.00
O405   O     0.54157   0.51092   0.14606   0.00000  Uiso   1.00
O406   O     0.50785   0.49213   0.34968   0.00000  Uiso   1.00
O407   O     0.56536   0.41697   0.08086   0.00000  Uiso   1.00
O408   O     0.64630   0.47136   0.30169   0.00000  Uiso   1.00
O409   O     0.54558   0.34287   0.20518   0.00000  Uiso   1.00
O410   O     0.45140   0.66128   0.29715   0.00000  Uiso   1.00
O411   O     0.58349   0.44095   0.41661   0.00000  Uiso   1.00
O412   O     0.58764   0.41186   0.48945   0.00000  Uiso   1.00
O413   O     0.51264   0.41352   0.28214   0.00000  Uiso   1.00
O414   O     0.49492   0.53877   0.07656   0.00000  Uiso   1.00
O415   O     0.41473   0.56149   0.42119   0.00000  Uiso   1.00
O416   O     0.42278   0.49899   0.05057   0.00000  Uiso   1.00
O417   O     0.38694   0.55617   0.01511   0.00000  Uiso   1.00
O418   O     0.56699   0.51226   0.38422   0.00000  Uiso   1.00
O419   O     0.35457   0.52695   0.20036   0.00000  Uiso   1.00
O420   O     0.47965   0.59418   0.27014   0.00000  Uiso   1.00
O421   O     0.40745   0.46625   0.23413   0.00000  Uiso   1.00
O422   O     0.60026   0.52605   0.21361   0.00000  Uiso   1.00
O423   O     0.40405   0.52211   0.28213   0.00000  Uiso   1.00
O424   O     0.58824   0.48559   0.27014   0.00000  Uiso   1.00
O425   O     0.47093   0.40277   0.23413   0.00000  Uiso   1.00
O426   O     0.53678   0.58953   0.21361   0.00000  Uiso   1.00
Zn427  Zn    0.52672   0.47327   0.28734   0.00000  Uiso   1.00
Zn428  Zn    0.46713   0.45791   0.21876   0.00000  Uiso   1.00
Zn429  Zn    0.54389   0.53109   0.20657   0.00000  Uiso   1.00
Zn430  Zn    0.46226   0.53773   0.28734   0.00000  Uiso   1.00
C431   C     0.71997   0.49360   0.25914   0.00000  Uiso   1.00
C432   C     0.83987   0.49952   0.05918   0.00000  Uiso   1.00
C433   C     0.88402   0.44436   0.05877   0.00000  Uiso   1.00
C434   C     0.94723   0.50675   0.24018   0.00000  Uiso   1.00
C435   C     0.80907   0.52676   0.42003   0.00000  Uiso   1.00
C436   C     0.99298   0.50702   0.23517   0.00000  Uiso   1.00
C437   C     0.67429   0.48980   0.26506   0.00000  Uiso   1.00
C438   C     0.84656   0.65623   0.23685   0.00000  Uiso   1.00
C439   C     0.81801   0.34551   0.26479   0.00000  Uiso   1.00
C440   C     0.82268   0.38950   0.26043   0.00000  Uiso   1.00
C441   C     0.84313   0.61123   0.24025   0.00000  Uiso   1.00
C442   C     0.75623   0.53945   0.49006   0.00000  Uiso   1.00
C443   C     0.85180   0.48158   0.12974   0.00000  Uiso   1.00
C444   C     0.81666   0.51919   0.37078   0.00000  Uiso   1.00
C445   C     0.89406   0.44050   0.01216   0.00000  Uiso   1.00
C446   C     0.85847   0.47505   0.08199   0.00000  Uiso   1.00
C447   C     0.77140   0.54382   0.44397   0.00000  Uiso   1.00
C448   C     0.93112   0.43753   0.10085   0.00000  Uiso   1.00
C449   C     0.99964   0.44590   0.32197   0.00000  Uiso   1.00
C450   C     0.89334   0.40764   0.39706   0.00000  Uiso   1.00
C451   C     0.96368   0.43037   0.48335   0.00000  Uiso   1.00
C452   C     0.79688   0.53833   0.11724   0.00000  Uiso   1.00
C453   C     0.77712   0.51610   0.01110   0.00000  Uiso   1.00
C454   C     0.93636   0.53733   0.39360   0.00000  Uiso   1.00
C455   C     0.68830   0.50174   0.16050   0.00000  Uiso   1.00
C456   C     0.81881   0.50682   0.49005   0.00000  Uiso   1.00
C457   C     0.83475   0.51116   0.44387   0.00000  Uiso   1.00
C458   C     0.84380   0.48981   0.01330   0.00000  Uiso   1.00
C459   C     0.87503   0.46442   0.48914   0.00000  Uiso   1.00
C460   C     0.88820   0.46623   0.44273   0.00000  Uiso   1.00
C461   C     0.87480   0.49706   0.42325   0.00000  Uiso   1.00
H462   H     0.91804   0.44283   0.13726   0.00000  Uiso   1.00
H463   H     0.86723   0.39156   0.42235   0.00000  Uiso   1.00
H464   H     0.91491   0.38418   0.38054   0.00000  Uiso   1.00
H465   H     0.96858   0.46262   0.47266   0.00000  Uiso   1.00
H466   H     0.98403   0.41154   0.45672   0.00000  Uiso   1.00
H467   H     0.97491   0.43022   0.01396   0.00000  Uiso   1.00
H468   H     0.81163   0.55054   0.14511   0.00000  Uiso   1.00
H469   H     0.77860   0.50724   0.12385   0.00000  Uiso   1.00
H470   H     0.77393   0.55998   0.11627   0.00000  Uiso   1.00
H471   H     0.71732   0.55569   0.43569   0.00000  Uiso   1.00
H472   H     0.72519   0.50091   0.05635   0.00000  Uiso   1.00
H473   H     0.94664   0.46759   0.08686   0.00000  Uiso   1.00
H474   H     0.71769   0.58173   0.00201   0.00000  Uiso   1.00
H475   H     0.95781   0.51847   0.40340   0.00000  Uiso   1.00
H476   H     0.92701   0.56270   0.41980   0.00000  Uiso   1.00
H477   H     0.95472   0.55207   0.36292   0.00000  Uiso   1.00
H478   H     0.98926   0.49032   0.15567   0.00000  Uiso   1.00
H479   H     0.70626   0.47489   0.15894   0.00000  Uiso   1.00
H480   H     0.70441   0.52075   0.13237   0.00000  Uiso   1.00
H481   H     0.95637   0.41686   0.09596   0.00000  Uiso   1.00
H482   H     0.68847   0.46506   0.34009   0.00000  Uiso   1.00
H483   H     0.68289   0.42254   0.29739   0.00000  Uiso   1.00
H484   H     0.97512   0.42828   0.34661   0.00000  Uiso   1.00
H485   H     0.89721   0.65568   0.18723   0.00000  Uiso   1.00
H486   H     0.76787   0.35024   0.31371   0.00000  Uiso   1.00
H487   H     0.88022   0.41855   0.37130   0.00000  Uiso   1.00
O488   O     0.83333   0.50000   0.25000   0.00000  Uiso   1.00
O489   O     0.82118   0.45970   0.15459   0.00000  Uiso   1.00
O490   O     0.79607   0.53724   0.34968   0.00000  Uiso   1.00
O491   O     0.87491   0.51092   0.14606   0.00000  Uiso   1.00
O492   O     0.84118   0.49213   0.34968   0.00000  Uiso   1.00
O493   O     0.89870   0.41697   0.08086   0.00000  Uiso   1.00
O494   O     0.97963   0.47136   0.30169   0.00000  Uiso   1.00
O495   O     0.87891   0.34287   0.20518   0.00000  Uiso   1.00
O496   O     0.78473   0.66128   0.29715   0.00000  Uiso   1.00
O497   O     0.91682   0.44095   0.41661   0.00000  Uiso   1.00
O498   O     0.92097   0.41186   0.48945   0.00000  Uiso   1.00
O499   O     0.84597   0.41352   0.28214   0.00000  Uiso   1.00
O500   O     0.82826   0.53877   0.07656   0.00000  Uiso   1.00
O501   O     0.74806   0.56149   0.42119   0.00000  Uiso   1.00
O502   O     0.75612   0.49899   0.05057   0.00000  Uiso   1.00
O503   O     0.72027   0.55617   0.01511   0.00000  Uiso   1.00
O504   O     0.90033   0.51226   0.38422   0.00000  Uiso   1.00
O505   O     0.68790   0.52695   0.20036   0.00000  Uiso   1.00
O506   O     0.81298   0.59418   0.27014   0.00000  Uiso   1.00
O507   O     0.74078   0.46625   0.23413   0.00000  Uiso   1.00
O508   O     0.93360   0.52605   0.21361   0.00000  Uiso   1.00
O509   O     0.73738   0.52211   0.28213   0.00000  Uiso   1.00
O510   O     0.92158   0.48559   0.27014   0.00000  Uiso   1.00
O511   O     0.80426   0.40277   0.23413   0.00000  Uiso   1.00
O512   O     0.87012   0.58953   0.21361   0.00000  Uiso   1.00
Zn513  Zn    0.86005   0.47327   0.28734   0.00000  Uiso   1.00
Zn514  Zn    0.80046   0.45791   0.21876   0.00000  Uiso   1.00
Zn515  Zn    0.87723   0.53109   0.20657   0.00000  Uiso   1.00
Zn516  Zn    0.79560   0.53773   0.28734   0.00000  Uiso   1.00
C517   C     0.05331   0.82694   0.25914   0.00000  Uiso   1.00
C518   C     0.17320   0.83285   0.05918   0.00000  Uiso   1.00
C519   C     0.21735   0.77769   0.05877   0.00000  Uiso   1.00
C520   C     0.28056   0.84008   0.24018   0.00000  Uiso   1.00
C521   C     0.14240   0.86009   0.42003   0.00000  Uiso   1.00
C522   C     0.32632   0.84035   0.23517   0.00000  Uiso   1.00
C523   C     0.00763   0.82314   0.26506   0.00000  Uiso   1.00
C524   C     0.17990   0.98957   0.23685   0.00000  Uiso   1.00
C525   C     0.15135   0.67885   0.26479   0.00000  Uiso   1.00
C526   C     0.15602   0.72284   0.26043   0.00000  Uiso   1.00
C527   C     0.17647   0.94456   0.24025   0.00000  Uiso   1.00
C528   C     0.08956   0.87278   0.49006   0.00000  Uiso   1.00
C529   C     0.18514   0.81491   0.12974   0.00000  Uiso   1.00
C530   C     0.14999   0.85253   0.37078   0.00000  Uiso   1.00
C531   C     0.22739   0.77383   0.01216   0.00000  Uiso   1.00
C532   C     0.19180   0.80838   0.08199   0.00000  Uiso   1.00
C533   C     0.10474   0.87715   0.44397   0.00000  Uiso   1.00
C534   C     0.26445   0.77087   0.10085   0.00000  Uiso   1.00
C535   C     0.33297   0.77924   0.32197   0.00000  Uiso   1.00
C536   C     0.22667   0.74097   0.39706   0.00000  Uiso   1.00
C537   C     0.29702   0.76370   0.48335   0.00000  Uiso   1.00
C538   C     0.13021   0.87166   0.11724   0.00000  Uiso   1.00
C539   C     0.11045   0.84943   0.01110   0.00000  Uiso   1.00
C540   C     0.26970   0.87066   0.39360   0.00000  Uiso   1.00
C541   C     0.02163   0.83507   0.16050   0.00000  Uiso   1.00
C542   C     0.15214   0.84015   0.49005   0.00000  Uiso   1.00
C543   C     0.16809   0.84450   0.44387   0.00000  Uiso   1.00
C544   C     0.17713   0.82314   0.01330   0.00000  Uiso   1.00
C545   C     0.20836   0.79776   0.48914   0.00000  Uiso   1.00
C546   C     0.22153   0.79957   0.44273   0.00000  Uiso   1.00
C547   C     0.20813   0.83040   0.42325   0.00000  Uiso   1.00
H548   H     0.25137   0.77616   0.13726   0.00000  Uiso   1.00
H549   H     0.20057   0.72489   0.42235   0.00000  Uiso   1.00
H550   H     0.24824   0.71751   0.38054   0.00000  Uiso   1.00
H551   H     0.30191   0.79595   0.47266   0.00000  Uiso   1.00
H552   H     0.31736   0.74487   0.45672   0.00000  Uiso   1.00
H553   H     0.30825   0.76356   0.01396   0.00000  Uiso   1.00
H554   H     0.14497   0.88388   0.14511   0.00000  Uiso   1.00
H555   H     0.11193   0.84058   0.12385   0.00000  Uiso   1.00
H556   H     0.10726   0.89332   0.11627   0.00000  Uiso   1.00
H557   H     0.05065   0.88902   0.43569   0.00000  Uiso   1.00
H558   H     0.05852   0.83425   0.05635   0.00000  Uiso   1.00
H559   H     0.27998   0.80093   0.08686   0.00000  Uiso   1.00
H560   H     0.05102   0.91507   0.00201   0.00000  Uiso   1.00
H561   H     0.29114   0.85180   0.40340   0.00000  Uiso   1.00
H562   H     0.26034   0.89603   0.41980   0.00000  Uiso   1.00
H563   H     0.28805   0.88540   0.36292   0.00000  Uiso   1.00
H564   H     0.32259   0.82365   0.15567   0.00000  Uiso   1.00
H565   H     0.03959   0.80823   0.15894   0.00000  Uiso   1.00
H566   H     0.03774   0.85408   0.13237   0.00000  Uiso   1.00
H567   H     0.28970   0.75020   0.09596   0.00000  Uiso   1.00
H568   H     0.02180   0.79839   0.34009   0.00000  Uiso   1.00
H569   H     0.01623   0.75588   0.29739   0.00000  Uiso   1.00
H570   H     0.30845   0.76162   0.34661   0.00000  Uiso   1.00
H571   H     0.23055   0.98901   0.18723   0.00000  Uiso   1.00
H572   H     0.10120   0.68357   0.31371   0.00000  Uiso   1.00
H573   H     0.21356   0.75188   0.37130   0.00000  Uiso   1.00
O574   O     0.16667   0.83333   0.25000   0.00000  Uiso   1.00
O575   O     0.15451   0.79304   0.15459   0.00000  Uiso   1.00
O576   O     0.12940   0.87058   0.34968   0.00000  Uiso   1.00
O577   O     0.20824   0.84425   0.14606   0.00000  Uiso   1.00
O578   O     0.17451   0.82546   0.34968   0.00000  Uiso   1.00
O579   O     0.23203   0.75030   0.08086   0.00000  Uiso   1.00
O580   O     0.31297   0.80469   0.30169   0.00000  Uiso   1.00
O581   O     0.21224   0.67620   0.20518   0.00000  Uiso   1.00
O582   O     0.11807   0.99461   0.29715   0.00000  Uiso   1.00
O583   O     0.25016   0.77428   0.41661   0.00000  Uiso   1.00
O584   O     0.25430   0.74520   0.48945   0.00000  Uiso   1.00
O585   O     0.17930   0.74686   0.28214   0.00000  Uiso   1.00
O586   O     0.16159   0.87210   0.07656   0.00000  Uiso   1.00
O587   O     0.08139   0.89483   0.42119   0.00000  Uiso   1.00
O588   O     0.08945   0.83232   0.05057   0.00000  Uiso   1.00
O589   O     0.05360   0.88950   0.01511   0.00000  Uiso   1.00
O590   O     0.23366   0.84559   0.38422   0.00000  Uiso   1.00
O591   O     0.02124   0.86029   0.20036   0.00000  Uiso   1.00
O592   O     0.14632   0.92751   0.27014   0.00000  Uiso   1.00
O593   O     0.07412   0.79958   0.23413   0.00000  Uiso   1.00
O594   O     0.26693   0.85939   0.21361   0.00000  Uiso   1.00
O595   O     0.07071   0.85544   0.28213   0.00000  Uiso   1.00
O596   O     0.25491   0.81892   0.27014   0.00000  Uiso   1.00
O597   O     0.13760   0.73610   0.23413   0.00000  Uiso   1.00
O598   O     0.20345   0.92286   0.21361   0.00000  Uiso   1.00
Zn599  Zn    0.19338   0.80661   0.28734   0.00000  Uiso   1.00
Zn600  Zn    0.13379   0.79124   0.21876   0.00000  Uiso   1.00
Zn601  Zn    0.21056   0.86442   0.20657   0.00000  Uiso   1.00
Zn602  Zn    0.12893   0.87106   0.28734   0.00000  Uiso   1.00
C603   C     0.38664   0.82694   0.25914   0.00000  Uiso   1.00
C604   C     0.50653   0.83285   0.05918   0.00000  Uiso   1.00
C605   C     0.55068   0.77769   0.05877   0.00000  Uiso   1.00
C606   C     0.61389   0.84008   0.24018   0.00000  Uiso   1.00
C607   C     0.47574   0.86009   0.42003   0.00000  Uiso   1.00
C608   C     0.65965   0.84035   0.23517   0.00000  Uiso   1.00
C609   C     0.34096   0.82314   0.26506   0.00000  Uiso   1.00
C610   C     0.51323   0.98957   0.23685   0.00000  Uiso   1.00
C611   C     0.48468   0.67885   0.26479   0.00000  Uiso   1.00
C612   C     0.48935   0.72284   0.26043   0.00000  Uiso   1.00
C613   C     0.50980   0.94456   0.24025   0.00000  Uiso   1.00
C614   C     0.42290   0.87278   0.49006   0.00000  Uiso   1.00
C615   C     0.51847   0.81491   0.12974   0.00000  Uiso   1.00
C616   C     0.48333   0.85253   0.37078   0.00000  Uiso   1.00
C617   C     0.56073   0.77383   0.01216   0.00000  Uiso   1.00
C618   C     0.52514   0.80838   0.08199   0.00000  Uiso   1.00
C619   C     0.43807   0.87715   0.44397   0.00000  Uiso   1.00
C620   C     0.59778   0.77087   0.10085   0.00000  Uiso   1.00
C621   C     0.66630   0.77924   0.32197   0.00000  Uiso   1.00
C622   C     0.56001   0.74097   0.39706   0.00000  Uiso   1.00
C623   C     0.63035   0.76370   0.48335   0.00000  Uiso   1.00
C624   C     0.46354   0.87166   0.11724   0.00000  Uiso   1.00
C625   C     0.44379   0.84943   0.01110   0.00000  Uiso   1.00
C626   C     0.60303   0.87066   0.39360   0.00000  Uiso   1.00
C627   C     0.35496   0.83507   0.16050   0.00000  Uiso   1.00
C628   C     0.48548   0.84015   0.49005   0.00000  Uiso   1.00
C629   C     0.50142   0.84450   0.44387   0.00000  Uiso   1.00
C630   C     0.51047   0.82314   0.01330   0.00000  Uiso   1.00
C631   C     0.54169   0.79776   0.48914   0.00000  Uiso   1.00
C632   C     0.55486   0.79957   0.44273   0.00000  Uiso   1.00
C633   C     0.54147   0.83040   0.42325   0.00000  Uiso   1.00
H634   H     0.58471   0.77616   0.13726   0.00000  Uiso   1.00
H635   H     0.53390   0.72489   0.42235   0.00000  Uiso   1.00
H636   H     0.58158   0.71751   0.38054   0.00000  Uiso   1.00
H637   H     0.63525   0.79595   0.47266   0.00000  Uiso   1.00
H638   H     0.65069   0.74487   0.45672   0.00000  Uiso   1.00
H639   H     0.64158   0.76356   0.01396   0.00000  Uiso   1.00
H640   H     0.47830   0.88388   0.14511   0.00000  Uiso   1.00
H641   H     0.44526   0.84058   0.12385   0.00000  Uiso   1.00
H642   H     0.44059   0.89332   0.11627   0.00000  Uiso   1.00
H643   H     0.38399   0.88902   0.43569   0.00000  Uiso   1.00
H644   H     0.39185   0.83425   0.05635   0.00000  Uiso   1.00
H645   H     0.61331   0.80093   0.08686   0.00000  Uiso   1.00
H646   H     0.38436   0.91507   0.00201   0.00000  Uiso   1.00
H647   H     0.62448   0.85180   0.40340   0.00000  Uiso   1.00
H648   H     0.59368   0.89603   0.41980   0.00000  Uiso   1.00
H649   H     0.62138   0.88540   0.36292   0.00000  Uiso   1.00
H650   H     0.65593   0.82365   0.15567   0.00000  Uiso   1.00
H651   H     0.37292   0.80823   0.15894   0.00000  Uiso   1.00
H652   H     0.37108   0.85408   0.13237   0.00000  Uiso   1.00
H653   H     0.62304   0.75020   0.09596   0.00000  Uiso   1.00
H654   H     0.35514   0.79839   0.34009   0.00000  Uiso   1.00
H655   H     0.34956   0.75588   0.29739   0.00000  Uiso   1.00
H656   H     0.64178   0.76162   0.34661   0.00000  Uiso   1.00
H657   H     0.56388   0.98901   0.18723   0.00000  Uiso   1.00
H658   H     0.43453   0.68357   0.31371   0.00000  Uiso   1.00
H659   H     0.54689   0.75188   0.37130   0.00000  Uiso   1.00
O660   O     0.50000   0.83333   0.25000   0.00000  Uiso   1.00
O661   O     0.48784   0.79304   0.15459   0.00000  Uiso   1.00
O662   O     0.46274   0.87058   0.34968   0.00000  Uiso   1.00
O663   O     0.54157   0.84425   0.14606   0.00000  Uiso   1.00
O664   O     0.50785   0.82546   0.34968   0.00000  Uiso   1.00
O665   O     0.56536   0.75030   0.08086   0.00000  Uiso   1.00
O666   O     0.64630   0.80469   0.30169   0.00000  Uiso   1.00
O667   O     0.54558   0.67620   0.20518   0.00000  Uiso   1.00
O668   O     0.45140   0.99461   0.29715   0.00000  Uiso   1.00
O669   O     0.58349   0.77428   0.41661   0.00000  Uiso   1.00
O670   O     0.58764   0.74520   0.48945   0.00000  Uiso   1.00
O671   O     0.51264   0.74686   0.28214   0.00000  Uiso   1.00
O672   O     0.49492   0.87210   0.07656   0.00000  Uiso   1.00
O673   O     0.41473   0.89483   0.42119   0.00000  Uiso   1.00
O674   O     0.42278   0.83232   0.05057   0.00000  Uiso   1.00
O675   O     0.38694   0.88950   0.01511   0.00000  Uiso   1.00
O676   O     0.56699   0.84559   0.38422   0.00000  Uiso   1.00
O677   O     0.35457   0.86029   0.20036   0.00000  Uiso   1.00
O678   O     0.47965   0.92751   0.27014   0.00000  Uiso   1.00
O679   O     0.40745   0.79958   0.23413   0.00000  Uiso   1.00
O680   O     0.60026   0.85939   0.21361   0.00000  Uiso   1.00
O681   O     0.40405   0.85544   0.28213   0.00000  Uiso   1.00
O682   O     0.58824   0.81892   0.27014   0.00000  Uiso   1.00
O683   O     0.47093   0.73610   0.23413   0.00000  Uiso   1.00
O684   O     0.53678   0.92286   0.21361   0.00000  Uiso   1.00
Zn685  Zn    0.52672   0.80661   0.28734   0.00000  Uiso   1.00
Zn686  Zn    0.46713   0.79124   0.21876   0.00000  Uiso   1.00
Zn687  Zn    0.54389   0.86442   0.20657   0.00000  Uiso   1.00
Zn688  Zn    0.46226   0.87106   0.28734   0.00000  Uiso   1.00
C689   C     0.71997   0.82694   0.25914   0.00000  Uiso   1.00
C690   C     0.83987   0.83285   0.05918   0.00000  Uiso   1.00
C691   C     0.88402   0.77769   0.05877   0.00000  Uiso   1.00
C692   C     0.94723   0.84008   0.24018   0.00000  Uiso   1.00
C693   C     0.80907   0.86009   0.42003   0.00000  Uiso   1.00
C694   C     0.99298   0.84035   0.23517   0.00000  Uiso   1.00
C695   C     0.67429   0.82314   0.26506   0.00000  Uiso   1.00
C696   C     0.84656   0.98957   0.23685   0.00000  Uiso   1.00
C697   C     0.81801   0.67885   0.26479   0.00000  Uiso   1.00
C698   C     0.82268   0.72284   0.26043   0.00000  Uiso   1.00
C699   C     0.84313   0.94456   0.24025   0.00000  Uiso   1.00
C700   C     0.75623   0.87278   0.49006   0.00000  Uiso   1.00
C701   C     0.85180   0.81491   0.12974   0.00000  Uiso   1.00
C702   C     0.81666   0.85253   0.37078   0.00000  Uiso   1.00
C703   C     0.89406   0.77383   0.01216   0.00000  Uiso   1.00
C704   C     0.85847   0.80838   0.08199   0.00000  Uiso   1.00
C705   C     0.77140   0.87715   0.44397   0.00000  Uiso   1.00
C706   C     0.93112   0.77087   0.10085   0.00000  Uiso   1.00
C707   C     0.99964   0.77924   0.32197   0.00000  Uiso   1.00
C708   C     0.89334   0.74097   0.39706   0.00000  Uiso   1.00
C709   C     0.96368   0.76370   0.48335   0.00000  Uiso   1.00
C710   C     0.79688   0.87166   0.11724   0.00000  Uiso   1.00
C711   C     0.77712   0.84943   0.01110   0.00000  Uiso   1.00
C712   C     0.93636   0.87066   0.39360   0.00000  Uiso   1.00
C713   C     0.68830   0.83507   0.16050   0.00000  Uiso   1.00
C714   C     0.81881   0.84015   0.49005   0.00000  Uiso   1.00
C715   C     0.83475   0.84450   0.44387   0.00000  Uiso   1.00
C716   C     0.84380   0.82314   0.01330   0.00000  Uiso   1.00
C717   C     0.87503   0.79776   0.48914   0.00000  Uiso   1.00
C718   C     0.88820   0.79957   0.44273   0.00000  Uiso   1.00
C719   C     0.87480   0.83040   0.42325   0.00000  Uiso   1.00
H720   H     0.91804   0.77616   0.13726   0.00000  Uiso   1.00
H721   H     0.86723   0.72489   0.42235   0.00000  Uiso   1.00
H722   H     0.91491   0.71751   0.38054   0.00000  Uiso   1.00
H723   H     0.96858   0.79595   0.47266   0.00000  Uiso   1.00
H724   H     0.98403   0.74487   0.45672   0.00000  Uiso   1.00
H725   H     0.97491   0.76356   0.01396   0.00000  Uiso   1.00
H726   H     0.81163   0.88388   0.14511   0.00000  Uiso   1.00
H727   H     0.77860   0.84058   0.12385   0.00000  Uiso   1.00
H728   H     0.77393   0.89332   0.11627   0.00000  Uiso   1.00
H729   H     0.71732   0.88902   0.43569   0.00000  Uiso   1.00
H730   H     0.72519   0.83425   0.05635   0.00000  Uiso   1.00
H731   H     0.94664   0.80093   0.08686   0.00000  Uiso   1.00
H732   H     0.71769   0.91507   0.00201   0.00000  Uiso   1.00
H733   H     0.95781   0.85180   0.40340   0.00000  Uiso   1.00
H734   H     0.92701   0.89603   0.41980   0.00000  Uiso   1.00
H735   H     0.95472   0.88540   0.36292   0.00000  Uiso   1.00
H736   H     0.98926   0.82365   0.15567   0.00000  Uiso   1.00
H737   H     0.70626   0.80823   0.15894   0.00000  Uiso   1.00
H738   H     0.70441   0.85408   0.13237   0.00000  Uiso   1.00
H739   H     0.95637   0.75020   0.09596   0.00000  Uiso   1.00
H740   H     0.68847   0.79839   0.34009   0.00000  Uiso   1.00
H741   H     0.68289   0.75588   0.29739   0.00000  Uiso   1.00
H742   H     0.97512   0.76162   0.34661   0.00000  Uiso   1.00
H743   H     0.89721   0.98901   0.18723   0.00000  Uiso   1.00
H744   H     0.76787   0.68357   0.31371   0.00000  Uiso   1.00
H745   H     0.88022   0.75188   0.37130   0.00000  Uiso   1.00
O746   O     0.83333   0.83333   0.25000   0.00000  Uiso   1.00
O747   O     0.82118   0.79304   0.15459   0.00000  Uiso   1.00
O748   O     0.79607   0.87058   0.34968   0.00000  Uiso   1.00
O749   O     0.87491   0.84425   0.14606   0.00000  Uiso   1.00
O750   O     0.84118   0.82546   0.34968   0.00000  Uiso   1.00
O751   O     0.89870   0.75030   0.08086   0.00000  Uiso   1.00
O752   O     0.97963   0.80469   0.30169   0.00000  Uiso   1.00
O753   O     0.87891   0.67620   0.20518   0.00000  Uiso   1.00
O754   O     0.78473   0.99461   0.29715   0.00000  Uiso   1.00
O755   O     0.91682   0.77428   0.41661   0.00000  Uiso   1.00
O756   O     0.92097   0.74520   0.48945   0.00000  Uiso   1.00
O757   O     0.84597   0.74686   0.28214   0.00000  Uiso   1.00
O758   O     0.82826   0.87210   0.07656   0.00000  Uiso   1.00
O759   O     0.74806   0.89483   0.42119   0.00000  Uiso   1.00
O760   O     0.75612   0.83232   0.05057   0.00000  Uiso   1.00
O761   O     0.72027   0.88950   0.01511   0.00000  Uiso   1.00
O762   O     0.90033   0.84559   0.38422   0.00000  Uiso   1.00
O763   O     0.68790   0.86029   0.20036   0.00000  Uiso   1.00
O764   O     0.81298   0.92751   0.27014   0.00000  Uiso   1.00
O765   O     0.74078   0.79958   0.23413   0.00000  Uiso   1.00
O766   O     0.93360   0.85939   0.21361   0.00000  Uiso   1.00
O767   O     0.73738   0.85544   0.28213   0.00000  Uiso   1.00
O768   O     0.92158   0.81892   0.27014   0.00000  Uiso   1.00
O769   O     0.80426   0.73610   0.23413   0.00000  Uiso   1.00
O770   O     0.87012   0.92286   0.21361   0.00000  Uiso   1.00
Zn771  Zn    0.86005   0.80661   0.28734   0.00000  Uiso   1.00
Zn772  Zn    0.80046   0.79124   0.21876   0.00000  Uiso   1.00
Zn773  Zn    0.87723   0.86442   0.20657   0.00000  Uiso   1.00
Zn774  Zn    0.79560   0.87106   0.28734   0.00000  Uiso   1.00
C775   C     0.05331   0.16027   0.75914   0.00000  Uiso   1.00
C776   C     0.17320   0.16619   0.55918   0.00000  Uiso   1.00
C777   C     0.21735   0.11102   0.55877   0.00000  Uiso   1.00
C778   C     0.28056   0.17341   0.74018   0.00000  Uiso   1.00
C779   C     0.14240   0.19342   0.92003   0.00000  Uiso   1.00
C780   C     0.32632   0.17369   0.73517   0.00000  Uiso   1.00
C781   C     0.00763   0.15647   0.76506   0.00000  Uiso   1.00
C782   C     0.17990   0.32290   0.73685   0.00000  Uiso   1.00
C783   C     0.15135   0.01218   0.76479   0.00000  Uiso   1.00
C784   C     0.15602   0.05617   0.76043   0.00000  Uiso   1.00
C785   C     0.17647   0.27789   0.74025   0.00000  Uiso   1.00
C786   C     0.08956   0.20611   0.99006   0.00000  Uiso   1.00
C787   C     0.18514   0.14824   0.62974   0.00000  Uiso   1.00
C788   C     0.14999   0.18586   0.87078   0.00000  Uiso   1.00
C789   C     0.22739   0.10716   0.51216   0.00000  Uiso   1.00
C790   C     0.19180   0.14171   0.58199   0.00000  Uiso   1.00
C791   C     0.10474   0.21049   0.94397   0.00000  Uiso   1.00
C792   C     0.26445   0.10420   0.60085   0.00000  Uiso   1.00
C793   C     0.33297   0.11257   0.82197   0.00000  Uiso   1.00
C794   C     0.22667   0.07431   0.89706   0.00000  Uiso   1.00
C795   C     0.29702   0.09703   0.98335   0.00000  Uiso   1.00
C796   C     0.13021   0.20499   0.61724   0.00000  Uiso   1.00
C797   C     0.11045   0.18276   0.51110   0.00000  Uiso   1.00
C798   C     0.26970   0.20400   0.89360   0.00000  Uiso   1.00
C799   C     0.02163   0.16840   0.66050   0.00000  Uiso   1.00
C800   C     0.15214   0.17349   0.99005   0.00000  Uiso   1.00
C801   C     0.16809   0.17783   0.94387   0.00000  Uiso   1.00
C802   C     0.17713   0.15648   0.51330   0.00000  Uiso   1.00
C803   C     0.20836   0.13109   0.98914   0.00000  Uiso   1.00
C804   C     0.22153   0.13290   0.94273   0.00000  Uiso   1.00
C805   C     0.20813   0.16373   0.92325   0.00000  Uiso   1.00
H806   H     0.25137   0.10949   0.63726   0.00000  Uiso   1.00
H807   H     0.20057   0.05822   0.92235   0.00000  Uiso   1.00
H808   H     0.24824   0.05084   0.88054   0.00000  Uiso   1.00
H809   H     0.30191   0.12929   0.97266   0.00000  Uiso   1.00
H810   H     0.31736   0.07821   0.95672   0.00000  Uiso   1.00
H811   H     0.30825   0.09689   0.51396   0.00000  Uiso   1.00
H812   H     0.14497   0.21721   0.64511   0.00000  Uiso   1.00
H813   H     0.11193   0.17391   0.62385   0.00000  Uiso   1.00
H814   H     0.10726   0.22665   0.61627   0.00000  Uiso   1.00
H815   H     0.05065   0.22236   0.93569   0.00000  Uiso   1.00
H816   H     0.05852   0.16758   0.55635   0.00000  Uiso   1.00
H817   H     0.27998   0.13426   0.58686   0.00000  Uiso   1.00
H818   H     0.05102   0.24840   0.50201   0.00000  Uiso   1.00
H819   H     0.29114   0.18513   0.90340   0.00000  Uiso   1.00
H820   H     0.26034   0.22937   0.91980   0.00000  Uiso   1.00
H821   H     0.28805   0.21873   0.86292   0.00000  Uiso   1.00
H822   H     0.32259   0.15699   0.65567   0.00000  Uiso   1.00
H823   H     0.03959   0.14156   0.65894   0.00000  Uiso   1.00
H824   H     0.03774   0.18741   0.63237   0.00000  Uiso   1.00
H825   H     0.28970   0.08353   0.59596   0.00000  Uiso   1.00
H826   H     0.02180   0.13173   0.84009   0.00000  Uiso   1.00
H827   H     0.01623   0.08921   0.79739   0.00000  Uiso   1.00
H828   H     0.30845   0.09495   0.84661   0.00000  Uiso   1.00
H829   H     0.23055   0.32234   0.68723   0.00000  Uiso   1.00
H830   H     0.10120   0.01691   0.81371   0.00000  Uiso   1.00
H831   H     0.21356   0.08521   0.87130   0.00000  Uiso   1.00
O832   O     0.16667   0.16667   0.75000   0.00000  Uiso   1.00
O833   O     0.15451   0.12637   0.65459   0.00000  Uiso   1.00
O834   O     0.12940   0.20391   0.84968   0.00000  Uiso   1.00
O835   O     0.20824   0.17759   0.64606   0.00000  Uiso   1.00
O836   O     0.17451   0.15880   0.84968   0.00000  Uiso   1.00
O837   O     0.23203   0.08363   0.58086   0.00000  Uiso   1.00
O838   O     0.31297   0.13803   0.80169   0.00000  Uiso   1.00
O839   O     0.21224   0.00953   0.70518   0.00000  Uiso   1.00
O840   O     0.11807   0.32795   0.79715   0.00000  Uiso   1.00
O841   O     0.25016   0.10761   0.91661   0.00000  Uiso   1.00
O842   O     0.25430   0.07853   0.98945   0.00000  Uiso   1.00
O843   O     0.17930   0.08019   0.78214   0.00000  Uiso   1.00
O844   O     0.16159   0.20544   0.57656   0.00000  Uiso   1.00
O845   O     0.08139   0.22816   0.92119   0.00000  Uiso   1.00
O846   O     0.08945   0.16566   0.55057   0.00000  Uiso   1.00
O847   O     0.05360   0.22283   0.51511   0.00000  Uiso   1.00
O848   O     0.23366   0.17892   0.88422   0.00000  Uiso   1.00
O849   O     0.02124   0.19362   0.70036   0.00000  Uiso   1.00
O850   O     0.14632   0.26085   0.77014   0.00000  Uiso   1.00
O851   O     0.07412   0.13291   0.73413   0.00000  Uiso   1.00
O852   O     0.26693   0.19272   0.71361   0.00000  Uiso   1.00
O853   O     0.07071   0.18878   0.78213   0.00000  Uiso   1.00
O854   O     0.25491   0.15226   0.77014   0.00000  Uiso   1.00
O855   O     0.13760   0.06944   0.73413   0.00000  Uiso   1.00
O856   O     0.20345   0.25620   0.71361   0.00000  Uiso   1.00
Zn857  Zn    0.19338   0.13994   0.78734   0.00000  Uiso   1.00
Zn858  Zn    0.13379   0.12458   0.71876   0.00000  Uiso   1.00
Zn859  Zn    0.21056   0.19775   0.70657   0.00000  Uiso   1.00
Zn860  Zn    0.12893   0.20439   0.78734   0.00000  Uiso   1.00
C861   C     0.38664   0.16027   0.75914   0.00000  Uiso   1.00
C862   C     0.50653   0.16619   0.55918   0.00000  Uiso   1.00
C863   C     0.55068   0.11102   0.55877   0.00000  Uiso   1.00
C864   C     0.61389   0.17341   0.74018   0.00000  Uiso   1.00
C865   C     0.47574   0.19342   0.92003   0.00000  Uiso   1.00
C866   C     0.65965   0.17369   0.73517   0.00000  Uiso   1.00
C867   C     0.34096   0.15647   0.76506   0.00000  Uiso   1.00
C868   C     0.51323   0.32290   0.73685   0.00000  Uiso   1.00
C869   C     0.48468   0.01218   0.76479   0.00000  Uiso   1.00
C870   C     0.48935   0.05617   0.76043   0.00000  Uiso   1.00
C871   C     0.50980   0.27789   0.74025   0.00000  Uiso   1.00
C872   C     0.42290   0.20611   0.99006   0.00000  Uiso   1.00
C873   C     0.51847   0.14824   0.62974   0.00000  Uiso   1.00
C874   C     0.48333   0.18586   0.87078   0.00000  Uiso   1.00
C875   C     0.56073   0.10716   0.51216   0.00000  Uiso   1.00
C876   C     0.52514   0.14171   0.58199   0.00000  Uiso   1.00
C877   C     0.43807   0.21049   0.94397   0.00000  Uiso   1.00
C878   C     0.59778   0.10420   0.60085   0.00000  Uiso   1.00
C879   C     0.66630   0.11257   0.82197   0.00000  Uiso   1.00
C880   C     0.56001   0.07431   0.89706   0.00000  Uiso   1.00
C881   C     0.63035   0.09703   0.98335   0.00000  Uiso   1.00
C882   C     0.46354   0.20499   0.61724   0.00000  Uiso   1.00
C883   C     0.44379   0.18276   0.51110   0.00000  Uiso   1.00
C884   C     0.60303   0.20400   0.89360   0.00000  Uiso   1.00
C885   C     0.35496   0.16840   0.66050   0.00000  Uiso   1.00
C886   C     0.48548   0.17349   0.99005   0.00000  Uiso   1.00
C887   C     0.50142   0.17783   0.94387   0.00000  Uiso   1.00
C888   C     0.51047   0.15648   0.51330   0.00000  Uiso   1.00
C889   C     0.54169   0.13109   0.98914   0.00000  Uiso   1.00
C890   C     0.55486   0.13290   0.94273   0.00000  Uiso   1.00
C891   C     0.54147   0.16373   0.92325   0.00000  Uiso   1.00
H892   H     0.58471   0.10949   0.63726   0.00000  Uiso   1.00
H893   H     0.53390   0.05822   0.92235   0.00000  Uiso   1.00
H894   H     0.58158   0.05084   0.88054   0.00000  Uiso   1.00
H895   H     0.63525   0.12929   0.97266   0.00000  Uiso   1.00
H896   H     0.65069   0.07821   0.95672   0.00000  Uiso   1.00
H897   H     0.64158   0.09689   0.51396   0.00000  Uiso   1.00
H898   H     0.47830   0.21721   0.64511   0.00000  Uiso   1.00
H899   H     0.44526   0.17391   0.62385   0.00000  Uiso   1.00
H900   H     0.44059   0.22665   0.61627   0.00000  Uiso   1.00
H901   H     0.38399   0.22236   0.93569   0.00000  Uiso   1.00
H902   H     0.39185   0.16758   0.55635   0.00000  Uiso   1.00
H903   H     0.61331   0.13426   0.58686   0.00000  Uiso   1.00
H904   H     0.38436   0.24840   0.50201   0.00000  Uiso   1.00
H905   H     0.62448   0.18513   0.90340   0.00000  Uiso   1.00
H906   H     0.59368   0.22937   0.91980   0.00000  Uiso   1.00
H907   H     0.62138   0.21873   0.86292   0.00000  Uiso   1.00
H908   H     0.65593   0.15699   0.65567   0.00000  Uiso   1.00
H909   H     0.37292   0.14156   0.65894   0.00000  Uiso   1.00
H910   H     0.37108   0.18741   0.63237   0.00000  Uiso   1.00
H911   H     0.62304   0.08353   0.59596   0.00000  Uiso   1.00
H912   H     0.35514   0.13173   0.84009   0.00000  Uiso   1.00
H913   H     0.34956   0.08921   0.79739   0.00000  Uiso   1.00
H914   H     0.64178   0.09495   0.84661   0.00000  Uiso   1.00
H915   H     0.56388   0.32234   0.68723   0.00000  Uiso   1.00
H916   H     0.43453   0.01691   0.81371   0.00000  Uiso   1.00
H917   H     0.54689   0.08521   0.87130   0.00000  Uiso   1.00
O918   O     0.50000   0.16667   0.75000   0.00000  Uiso   1.00
O919   O     0.48784   0.12637   0.65459   0.00000  Uiso   1.00
O920   O     0.46274   0.20391   0.84968   0.00000  Uiso   1.00
O921   O     0.54157   0.17759   0.64606   0.00000  Uiso   1.00
O922   O     0.50785   0.15880   0.84968   0.00000  Uiso   1.00
O923   O     0.56536   0.08363   0.58086   0.00000  Uiso   1.00
O924   O     0.64630   0.13803   0.80169   0.00000  Uiso   1.00
O925   O     0.54558   0.00953   0.70518   0.00000  Uiso   1.00
O926   O     0.45140   0.32795   0.79715   0.00000  Uiso   1.00
O927   O     0.58349   0.10761   0.91661   0.00000  Uiso   1.00
O928   O     0.58764   0.07853   0.98945   0.00000  Uiso   1.00
O929   O     0.51264   0.08019   0.78214   0.00000  Uiso   1.00
O930   O     0.49492   0.20544   0.57656   0.00000  Uiso   1.00
O931   O     0.41473   0.22816   0.92119   0.00000  Uiso   1.00
O932   O     0.42278   0.16566   0.55057   0.00000  Uiso   1.00
O933   O     0.38694   0.22283   0.51511   0.00000  Uiso   1.00
O934   O     0.56699   0.17892   0.88422   0.00000  Uiso   1.00
O935   O     0.35457   0.19362   0.70036   0.00000  Uiso   1.00
O936   O     0.47965   0.26085   0.77014   0.00000  Uiso   1.00
O937   O     0.40745   0.13291   0.73413   0.00000  Uiso   1.00
O938   O     0.60026   0.19272   0.71361   0.00000  Uiso   1.00
O939   O     0.40405   0.18878   0.78213   0.00000  Uiso   1.00
O940   O     0.58824   0.15226   0.77014   0.00000  Uiso   1.00
O941   O     0.47093   0.06944   0.73413   0.00000  Uiso   1.00
O942   O     0.53678   0.25620   0.71361   0.00000  Uiso   1.00
Zn943  Zn    0.52672   0.13994   0.78734   0.00000  Uiso   1.00
Zn944  Zn    0.46713   0.12458   0.71876   0.00000  Uiso   1.00
Zn945  Zn    0.54389   0.19775   0.70657   0.00000  Uiso   1.00
Zn946  Zn    0.46226   0.20439   0.78734   0.00000  Uiso   1.00
C947   C     0.71997   0.16027   0.75914   0.00000  Uiso   1.00
C948   C     0.83987   0.16619   0.55918   0.00000  Uiso   1.00
C949   C     0.88402   0.11102   0.55877   0.00000  Uiso   1.00
C950   C     0.94723   0.17341   0.74018   0.00000  Uiso   1.00
C951   C     0.80907   0.19342   0.92003   0.00000  Uiso   1.00
C952   C     0.99298   0.17369   0.73517   0.00000  Uiso   1.00
C953   C     0.67429   0.15647   0.76506   0.00000  Uiso   1.00
C954   C     0.84656   0.32290   0.73685   0.00000  Uiso   1.00
C955   C     0.81801   0.01218   0.76479   0.00000  Uiso   1.00
C956   C     0.82268   0.05617   0.76043   0.00000  Uiso   1.00
C957   C     0.84313   0.27789   0.74025   0.00000  Uiso   1.00
C958   C     0.75623   0.20611   0.99006   0.00000  Uiso   1.00
C959   C     0.85180   0.14824   0.62974   0.00000  Uiso   1.00
C960   C     0.81666   0.18586   0.87078   0.00000  Uiso   1.00
C961   C     0.89406   0.10716   0.51216   0.00000  Uiso   1.00
C962   C     0.85847   0.14171   0.58199   0.00000  Uiso   1.00
C963   C     0.77140   0.21049   0.94397   0.00000  Uiso   1.00
C964   C     0.93112   0.10420   0.60085   0.00000  Uiso   1.00
C965   C     0.99964   0.11257   0.82197   0.00000  Uiso   1.00
C966   C     0.89334   0.07431   0.89706   0.00000  Uiso   1.00
C967   C     0.96368   0.09703   0.98335   0.00000  Uiso   1.00
C968   C     0.79688   0.20499   0.61724   0.00000  Uiso   1.00
C969   C     0.77712   0.18276   0.51110   0.00000  Uiso   1.00
C970   C     0.93636   0.20400   0.89360   0.00000  Uiso   1.00
C971   C     0.68830   0.16840   0.66050   0.00000  Uiso   1.00
C972   C     0.81881   0.17349   0.99005   0.00000  Uiso   1.00
C973   C     0.83475   0.17783   0.94387   0.00000  Uiso   1.00
C974   C     0.84380   0.15648   0.51330   0.00000  Uiso   1.00
C975   C     0.87503   0.13109   0.98914   0.00000  Uiso   1.00
C976   C     0.88820   0.13290   0.94273   0.00000  Uiso   1.00
C977   C     0.87480   0.16373   0.92325   0.00000  Uiso   1.00
H978   H     0.91804   0.10949   0.63726   0.00000  Uiso   1.00
H979   H     0.86723   0.05822   0.92235   0.00000  Uiso   1.00
H980   H     0.91491   0.05084   0.88054   0.00000  Uiso   1.00
H981   H     0.96858   0.12929   0.97266   0.00000  Uiso   1.00
H982   H     0.98403   0.07821   0.95672   0.00000  Uiso   1.00
H983   H     0.97491   0.09689   0.51396   0.00000  Uiso   1.00
H984   H     0.81163   0.21721   0.64511   0.00000  Uiso   1.00
H985   H     0.77860   0.17391   0.62385   0.00000  Uiso   1.00
H986   H     0.77393   0.22665   0.61627   0.00000  Uiso   1.00
H987   H     0.71732   0.22236   0.93569   0.00000  Uiso   1.00
H988   H     0.72519   0.16758   0.55635   0.00000  Uiso   1.00
H989   H     0.94664   0.13426   0.58686   0.00000  Uiso   1.00
H990   H     0.71769   0.24840   0.50201   0.00000  Uiso   1.00
H991   H     0.95781   0.18513   0.90340   0.00000  Uiso   1.00
H992   H     0.92701   0.22937   0.91980   0.00000  Uiso   1.00
H993   H     0.95472   0.21873   0.86292   0.00000  Uiso   1.00
H994   H     0.98926   0.15699   0.65567   0.00000  Uiso   1.00
H995   H     0.70626   0.14156   0.65894   0.00000  Uiso   1.00
H996   H     0.70441   0.18741   0.63237   0.00000  Uiso   1.00
H997   H     0.95637   0.08353   0.59596   0.00000  Uiso   1.00
H998   H     0.68847   0.13173   0.84009   0.00000  Uiso   1.00
H999   H     0.68289   0.08921   0.79739   0.00000  Uiso   1.00
H1000  H     0.97512   0.09495   0.84661   0.00000  Uiso   1.00
H1001  H     0.89721   0.32234   0.68723   0.00000  Uiso   1.00
H1002  H     0.76787   0.01691   0.81371   0.00000  Uiso   1.00
H1003  H     0.88022   0.08521   0.87130   0.00000  Uiso   1.00
O1004  O     0.83333   0.16667   0.75000   0.00000  Uiso   1.00
O1005  O     0.82118   0.12637   0.65459   0.00000  Uiso   1.00
O1006  O     0.79607   0.20391   0.84968   0.00000  Uiso   1.00
O1007  O     0.87491   0.17759   0.64606   0.00000  Uiso   1.00
O1008  O     0.84118   0.15880   0.84968   0.00000  Uiso   1.00
O1009  O     0.89870   0.08363   0.58086   0.00000  Uiso   1.00
O1010  O     0.97963   0.13803   0.80169   0.00000  Uiso   1.00
O1011  O     0.87891   0.00953   0.70518   0.00000  Uiso   1.00
O1012  O     0.78473   0.32795   0.79715   0.00000  Uiso   1.00
O1013  O     0.91682   0.10761   0.91661   0.00000  Uiso   1.00
O1014  O     0.92097   0.07853   0.98945   0.00000  Uiso   1.00
O1015  O     0.84597   0.08019   0.78214   0.00000  Uiso   1.00
O1016  O     0.82826   0.20544   0.57656   0.00000  Uiso   1.00
O1017  O     0.74806   0.22816   0.92119   0.00000  Uiso   1.00
O1018  O     0.75612   0.16566   0.55057   0.00000  Uiso   1.00
O1019  O     0.72027   0.22283   0.51511   0.00000  Uiso   1.00
O1020  O     0.90033   0.17892   0.88422   0.00000  Uiso   1.00
O1021  O     0.68790   0.19362   0.70036   0.00000  Uiso   1.00
O1022  O     0.81298   0.26085   0.77014   0.00000  Uiso   1.00
O1023  O     0.74078   0.13291   0.73413   0.00000  Uiso   1.00
O1024  O     0.93360   0.19272   0.71361   0.00000  Uiso   1.00
O1025  O     0.73738   0.18878   0.78213   0.00000  Uiso   1.00
O1026  O     0.92158   0.15226   0.77014   0.00000  Uiso   1.00
O1027  O     0.80426   0.06944   0.73413   0.00000  Uiso   1.00
O1028  O     0.87012   0.25620   0.71361   0.00000  Uiso   1.00
Zn1029 Zn    0.86005   0.13994   0.78734   0.00000  Uiso   1.00
Zn1030 Zn    0.80046   0.12458   0.71876   0.00000  Uiso   1.00
Zn1031 Zn    0.87723   0.19775   0.70657   0.00000  Uiso   1.00
Zn1032 Zn    0.79560   0.20439   0.78734   0.00000  Uiso   1.00
C1033  C     0.05331   0.49360   0.75914   0.00000  Uiso   1.00
C1034  C     0.17320   0.49952   0.55918   0.00000  Uiso   1.00
C1035  C     0.21735   0.44436   0.55877   0.00000  Uiso   1.00
C1036  C     0.28056   0.50675   0.74018   0.00000  Uiso   1.00
C1037  C     0.14240   0.52676   0.92003   0.00000  Uiso   1.00
C1038  C     0.32632   0.50702   0.73517   0.00000  Uiso   1.00
C1039  C     0.00763   0.48980   0.76506   0.00000  Uiso   1.00
C1040  C     0.17990   0.65623   0.73685   0.00000  Uiso   1.00
C1041  C     0.15135   0.34551   0.76479   0.00000  Uiso   1.00
C1042  C     0.15602   0.38950   0.76043   0.00000  Uiso   1.00
C1043  C     0.17647   0.61123   0.74025   0.00000  Uiso   1.00
C1044  C     0.08956   0.53945   0.99006   0.00000  Uiso   1.00
C1045  C     0.18514   0.48158   0.62974   0.00000  Uiso   1.00
C1046  C     0.14999   0.51919   0.87078   0.00000  Uiso   1.00
C1047  C     0.22739   0.44050   0.51216   0.00000  Uiso   1.00
C1048  C     0.19180   0.47505   0.58199   0.00000  Uiso   1.00
C1049  C     0.10474   0.54382   0.94397   0.00000  Uiso   1.00
C1050  C     0.26445   0.43753   0.60085   0.00000  Uiso   1.00
C1051  C     0.33297   0.44590   0.82197   0.00000  Uiso   1.00
C1052  C     0.22667   0.40764   0.89706   0.00000  Uiso   1.00
C1053  C     0.29702   0.43037   0.98335   0.00000  Uiso   1.00
C1054  C     0.13021   0.53833   0.61724   0.00000  Uiso   1.00
C1055  C     0.11045   0.51610   0.51110   0.00000  Uiso   1.00
C1056  C     0.26970   0.53733   0.89360   0.00000  Uiso   1.00
C1057  C     0.02163   0.50174   0.66050   0.00000  Uiso   1.00
C1058  C     0.15214   0.50682   0.99005   0.00000  Uiso   1.00
C1059  C     0.16809   0.51116   0.94387   0.00000  Uiso   1.00
C1060  C     0.17713   0.48981   0.51330   0.00000  Uiso   1.00
C1061  C     0.20836   0.46442   0.98914   0.00000  Uiso   1.00
C1062  C     0.22153   0.46623   0.94273   0.00000  Uiso   1.00
C1063  C     0.20813   0.49706   0.92325   0.00000  Uiso   1.00
H1064  H     0.25137   0.44283   0.63726   0.00000  Uiso   1.00
H1065  H     0.20057   0.39156   0.92235   0.00000  Uiso   1.00
H1066  H     0.24824   0.38418   0.88054   0.00000  Uiso   1.00
H1067  H     0.30191   0.46262   0.97266   0.00000  Uiso   1.00
H1068  H     0.31736   0.41154   0.95672   0.00000  Uiso   1.00
H1069  H     0.30825   0.43022   0.51396   0.00000  Uiso   1.00
H1070  H     0.14497   0.55054   0.64511   0.00000  Uiso   1.00
H1071  H     0.11193   0.50724   0.62385   0.00000  Uiso   1.00
H1072  H     0.10726   0.55998   0.61627   0.00000  Uiso   1.00
H1073  H     0.05065   0.55569   0.93569   0.00000  Uiso   1.00
H1074  H     0.05852   0.50091   0.55635   0.00000  Uiso   1.00
H1075  H     0.27998   0.46759   0.58686   0.00000  Uiso   1.00
H1076  H     0.05102   0.58173   0.50201   0.00000  Uiso   1.00
H1077  H     0.29114   0.51847   0.90340   0.00000  Uiso   1.00
H1078  H     0.26034   0.56270   0.91980   0.00000  Uiso   1.00
H1079  H     0.28805   0.55207   0.86292   0.00000  Uiso   1.00
H1080  H     0.32259   0.49032   0.65567   0.00000  Uiso   1.00
H1081  H     0.03959   0.47489   0.65894   0.00000  Uiso   1.00
H1082  H     0.03774   0.52075   0.63237   0.00000  Uiso   1.00
H1083  H     0.28970   0.41686   0.59596   0.00000  Uiso   1.00
H1084  H     0.02180   0.46506   0.84009   0.00000  Uiso   1.00
H1085  H     0.01623   0.42254   0.79739   0.00000  Uiso   1.00
H1086  H     0.30845   0.42828   0.84661   0.00000  Uiso   1.00
H1087  H     0.23055   0.65568   0.68723   0.00000  Uiso   1.00
H1088  H     0.10120   0.35024   0.81371   0.00000  Uiso   1.00
H1089  H     0.21356   0.41855   0.87130   0.00000  Uiso   1.00
O1090  O     0.16667   0.50000   0.75000   0.00000  Uiso   1.00
O1091  O     0.15451   0.45970   0.65459   0.00000  Uiso   1.00
O1092  O     0.12940   0.53724   0.84968   0.00000  Uiso   1.00
O1093  O     0.20824   0.51092   0.64606   0.00000  Uiso   1.00
O1094  O     0.17451   0.49213   0.84968   0.00000  Uiso   1.00
O1095  O     0.23203   0.41697   0.58086   0.00000  Uiso   1.00
O1096  O     0.31297   0.47136   0.80169   0.00000  Uiso   1.00
O1097  O     0.21224   0.34287   0.70518   0.00000  Uiso   1.00
O1098  O     0.11807   0.66128   0.79715   0.00000  Uiso   1.00
O1099  O     0.25016   0.44095   0.91661   0.00000  Uiso   1.00
O1100  O     0.25430   0.41186   0.98945   0.00000  Uiso   1.00
O1101  O     0.17930   0.41352   0.78214   0.00000  Uiso   1.00
O1102  O     0.16159   0.53877   0.57656   0.00000  Uiso   1.00
O1103  O     0.08139   0.56149   0.92119   0.00000  Uiso   1.00
O1104  O     0.08945   0.49899   0.55057   0.00000  Uiso   1.00
O1105  O     0.05360   0.55617   0.51511   0.00000  Uiso   1.00
O1106  O     0.23366   0.51226   0.88422   0.00000  Uiso   1.00
O1107  O     0.02124   0.52695   0.70036   0.00000  Uiso   1.00
O1108  O     0.14632   0.59418   0.77014   0.00000  Uiso   1.00
O1109  O     0.07412   0.46625   0.73413   0.00000  Uiso   1.00
O1110  O     0.26693   0.52605   0.71361   0.00000  Uiso   1.00
O1111  O     0.07071   0.52211   0.78213   0.00000  Uiso   1.00
O1112  O     0.25491   0.48559   0.77014   0.00000  Uiso   1.00
O1113  O     0.13760   0.40277   0.73413   0.00000  Uiso   1.00
O1114  O     0.20345   0.58953   0.71361   0.00000  Uiso   1.00
Zn1115 Zn    0.19338   0.47327   0.78734   0.00000  Uiso   1.00
Zn1116 Zn    0.13379   0.45791   0.71876   0.00000  Uiso   1.00
Zn1117 Zn    0.21056   0.53109   0.70657   0.00000  Uiso   1.00
Zn1118 Zn    0.12893   0.53773   0.78734   0.00000  Uiso   1.00
C1119  C     0.38664   0.49360   0.75914   0.00000  Uiso   1.00
C1120  C     0.50653   0.49952   0.55918   0.00000  Uiso   1.00
C1121  C     0.55068   0.44436   0.55877   0.00000  Uiso   1.00
C1122  C     0.61389   0.50675   0.74018   0.00000  Uiso   1.00
C1123  C     0.47574   0.52676   0.92003   0.00000  Uiso   1.00
C1124  C     0.65965   0.50702   0.73517   0.00000  Uiso   1.00
C1125  C     0.34096   0.48980   0.76506   0.00000  Uiso   1.00
C1126  C     0.51323   0.65623   0.73685   0.00000  Uiso   1.00
C1127  C     0.48468   0.34551   0.76479   0.00000  Uiso   1.00
C1128  C     0.48935   0.38950   0.76043   0.00000  Uiso   1.00
C1129  C     0.50980   0.61123   0.74025   0.00000  Uiso   1.00
C1130  C     0.42290   0.53945   0.99006   0.00000  Uiso   1.00
C1131  C     0.51847   0.48158   0.62974   0.00000  Uiso   1.00
C1132  C     0.48333   0.51919   0.87078   0.00000  Uiso   1.00
C1133  C     0.56073   0.44050   0.51216   0.00000  Uiso   1.00
C1134  C     0.52514   0.47505   0.58199   0.00000  Uiso   1.00
C1135  C     0.43807   0.54382   0.94397   0.00000  Uiso   1.00
C1136  C     0.59778   0.43753   0.60085   0.00000  Uiso   1.00
C1137  C     0.66630   0.44590   0.82197   0.00000  Uiso   1.00
C1138  C     0.56001   0.40764   0.89706   0.00000  Uiso   1.00
C1139  C     0.63035   0.43037   0.98335   0.00000  Uiso   1.00
C1140  C     0.46354   0.53833   0.61724   0.00000  Uiso   1.00
C1141  C     0.44379   0.51610   0.51110   0.00000  Uiso   1.00
C1142  C     0.60303   0.53733   0.89360   0.00000  Uiso   1.00
C1143  C     0.35496   0.50174   0.66050   0.00000  Uiso   1.00
C1144  C     0.48548   0.50682   0.99005   0.00000  Uiso   1.00
C1145  C     0.50142   0.51116   0.94387   0.00000  Uiso   1.00
C1146  C     0.51047   0.48981   0.51330   0.00000  Uiso   1.00
C1147  C     0.54169   0.46442   0.98914   0.00000  Uiso   1.00
C1148  C     0.55486   0.46623   0.94273   0.00000  Uiso   1.00
C1149  C     0.54147   0.49706   0.92325   0.00000  Uiso   1.00
H1150  H     0.58471   0.44283   0.63726   0.00000  Uiso   1.00
H1151  H     0.53390   0.39156   0.92235   0.00000  Uiso   1.00
H1152  H     0.58158   0.38418   0.88054   0.00000  Uiso   1.00
H1153  H     0.63525   0.46262   0.97266   0.00000  Uiso   1.00
H1154  H     0.65069   0.41154   0.95672   0.00000  Uiso   1.00
H1155  H     0.64158   0.43022   0.51396   0.00000  Uiso   1.00
H1156  H     0.47830   0.55054   0.64511   0.00000  Uiso   1.00
H1157  H     0.44526   0.50724   0.62385   0.00000  Uiso   1.00
H1158  H     0.44059   0.55998   0.61627   0.00000  Uiso   1.00
H1159  H     0.38399   0.55569   0.93569   0.00000  Uiso   1.00
H1160  H     0.39185   0.50091   0.55635   0.00000  Uiso   1.00
H1161  H     0.61331   0.46759   0.58686   0.00000  Uiso   1.00
H1162  H     0.38436   0.58173   0.50201   0.00000  Uiso   1.00
H1163  H     0.62448   0.51847   0.90340   0.00000  Uiso   1.00
H1164  H     0.59368   0.56270   0.91980   0.00000  Uiso   1.00
H1165  H     0.62138   0.55207   0.86292   0.00000  Uiso   1.00
H1166  H     0.65593   0.49032   0.65567   0.00000  Uiso   1.00
H1167  H     0.37292   0.47489   0.65894   0.00000  Uiso   1.00
H1168  H     0.37108   0.52075   0.63237   0.00000  Uiso   1.00
H1169  H     0.62304   0.41686   0.59596   0.00000  Uiso   1.00
H1170  H     0.35514   0.46506   0.84009   0.00000  Uiso   1.00
H1171  H     0.34956   0.42254   0.79739   0.00000  Uiso   1.00
H1172  H     0.64178   0.42828   0.84661   0.00000  Uiso   1.00
H1173  H     0.56388   0.65568   0.68723   0.00000  Uiso   1.00
H1174  H     0.43453   0.35024   0.81371   0.00000  Uiso   1.00
H1175  H     0.54689   0.41855   0.87130   0.00000  Uiso   1.00
O1176  O     0.50000   0.50000   0.75000   0.00000  Uiso   1.00
O1177  O     0.48784   0.45970   0.65459   0.00000  Uiso   1.00
O1178  O     0.46274   0.53724   0.84968   0.00000  Uiso   1.00
O1179  O     0.54157   0.51092   0.64606   0.00000  Uiso   1.00
O1180  O     0.50785   0.49213   0.84968   0.00000  Uiso   1.00
O1181  O     0.56536   0.41697   0.58086   0.00000  Uiso   1.00
O1182  O     0.64630   0.47136   0.80169   0.00000  Uiso   1.00
O1183  O     0.54558   0.34287   0.70518   0.00000  Uiso   1.00
O1184  O     0.45140   0.66128   0.79715   0.00000  Uiso   1.00
O1185  O     0.58349   0.44095   0.91661   0.00000  Uiso   1.00
O1186  O     0.58764   0.41186   0.98945   0.00000  Uiso   1.00
O1187  O     0.51264   0.41352   0.78214   0.00000  Uiso   1.00
O1188  O     0.49492   0.53877   0.57656   0.00000  Uiso   1.00
O1189  O     0.41473   0.56149   0.92119   0.00000  Uiso   1.00
O1190  O     0.42278   0.49899   0.55057   0.00000  Uiso   1.00
O1191  O     0.38694   0.55617   0.51511   0.00000  Uiso   1.00
O1192  O     0.56699   0.51226   0.88422   0.00000  Uiso   1.00
O1193  O     0.35457   0.52695   0.70036   0.00000  Uiso   1.00
O1194  O     0.47965   0.59418   0.77014   0.00000  Uiso   1.00
O1195  O     0.40745   0.46625   0.73413   0.00000  Uiso   1.00
O1196  O     0.60026   0.52605   0.71361   0.00000  Uiso   1.00
O1197  O     0.40405   0.52211   0.78213   0.00000  Uiso   1.00
O1198  O     0.58824   0.48559   0.77014   0.00000  Uiso   1.00
O1199  O     0.47093   0.40277   0.73413   0.00000  Uiso   1.00
O1200  O     0.53678   0.58953   0.71361   0.00000  Uiso   1.00
Zn1201 Zn    0.52672   0.47327   0.78734   0.00000  Uiso   1.00
Zn1202 Zn    0.46713   0.45791   0.71876   0.00000  Uiso   1.00
Zn1203 Zn    0.54389   0.53109   0.70657   0.00000  Uiso   1.00
Zn1204 Zn    0.46226   0.53773   0.78734   0.00000  Uiso   1.00
C1205  C     0.71997   0.49360   0.75914   0.00000  Uiso   1.00
C1206  C     0.83987   0.49952   0.55918   0.00000  Uiso   1.00
C1207  C     0.88402   0.44436   0.55877   0.00000  Uiso   1.00
C1208  C     0.94723   0.50675   0.74018   0.00000  Uiso   1.00
C1209  C     0.80907   0.52676   0.92003   0.00000  Uiso   1.00
C1210  C     0.99298   0.50702   0.73517   0.00000  Uiso   1.00
C1211  C     0.67429   0.48980   0.76506   0.00000  Uiso   1.00
C1212  C     0.84656   0.65623   0.73685   0.00000  Uiso   1.00
C1213  C     0.81801   0.34551   0.76479   0.00000  Uiso   1.00
C1214  C     0.82268   0.38950   0.76043   0.00000  Uiso   1.00
C1215  C     0.84313   0.61123   0.74025   0.00000  Uiso   1.00
C1216  C     0.75623   0.53945   0.99006   0.00000  Uiso   1.00
C1217  C     0.85180   0.48158   0.62974   0.00000  Uiso   1.00
C1218  C     0.81666   0.51919   0.87078   0.00000  Uiso   1.00
C1219  C     0.89406   0.44050   0.51216   0.00000  Uiso   1.00
C1220  C     0.85847   0.47505   0.58199   0.00000  Uiso   1.00
C1221  C     0.77140   0.54382   0.94397   0.00000  Uiso   1.00
C1222  C     0.93112   0.43753   0.60085   0.00000  Uiso   1.00
C1223  C     0.99964   0.44590   0.82197   0.00000  Uiso   1.00
C1224  C     0.89334   0.40764   0.89706   0.00000  Uiso   1.00
C1225  C     0.96368   0.43037   0.98335   0.00000  Uiso   1.00
C1226  C     0.79688   0.53833   0.61724   0.00000  Uiso   1.00
C1227  C     0.77712   0.51610   0.51110   0.00000  Uiso   1.00
C1228  C     0.93636   0.53733   0.89360   0.00000  Uiso   1.00
C1229  C     0.68830   0.50174   0.66050   0.00000  Uiso   1.00
C1230  C     0.81881   0.50682   0.99005   0.00000  Uiso   1.00
C1231  C     0.83475   0.51116   0.94387   0.00000  Uiso   1.00
C1232  C     0.84380   0.48981   0.51330   0.00000  Uiso   1.00
C1233  C     0.87503   0.46442   0.98914   0.00000  Uiso   1.00
C1234  C     0.88820   0.46623   0.94273   0.00000  Uiso   1.00
C1235  C     0.87480   0.49706   0.92325   0.00000  Uiso   1.00
H1236  H     0.91804   0.44283   0.63726   0.00000  Uiso   1.00
H1237  H     0.86723   0.39156   0.92235   0.00000  Uiso   1.00
H1238  H     0.91491   0.38418   0.88054   0.00000  Uiso   1.00
H1239  H     0.96858   0.46262   0.97266   0.00000  Uiso   1.00
H1240  H     0.98403   0.41154   0.95672   0.00000  Uiso   1.00
H1241  H     0.97491   0.43022   0.51396   0.00000  Uiso   1.00
H1242  H     0.81163   0.55054   0.64511   0.00000  Uiso   1.00
H1243  H     0.77860   0.50724   0.62385   0.00000  Uiso   1.00
H1244  H     0.77393   0.55998   0.61627   0.00000  Uiso   1.00
H1245  H     0.71732   0.55569   0.93569   0.00000  Uiso   1.00
H1246  H     0.72519   0.50091   0.55635   0.00000  Uiso   1.00
H1247  H     0.94664   0.46759   0.58686   0.00000  Uiso   1.00
H1248  H     0.71769   0.58173   0.50201   0.00000  Uiso   1.00
H1249  H     0.95781   0.51847   0.90340   0.00000  Uiso   1.00
H1250  H     0.92701   0.56270   0.91980   0.00000  Uiso   1.00
H1251  H     0.95472   0.55207   0.86292   0.00000  Uiso   1.00
H1252  H     0.98926   0.49032   0.65567   0.00000  Uiso   1.00
H1253  H     0.70626   0.47489   0.65894   0.00000  Uiso   1.00
H1254  H     0.70441   0.52075   0.63237   0.00000  Uiso   1.00
H1255  H     0.95637   0.41686   0.59596   0.00000  Uiso   1.00
H1256  H     0.68847   0.46506   0.84009   0.00000  Uiso   1.00
H1257  H     0.68289   0.42254   0.79739   0.00000  Uiso   1.00
H1258  H     0.97512   0.42828   0.84661   0.00000  Uiso   1.00
H1259  H     0.89721   0.65568   0.68723   0.00000  Uiso   1.00
H1260  H     0.76787   0.35024   0.81371   0.00000  Uiso   1.00
H1261  H     0.88022   0.41855   0.87130   0.00000  Uiso   1.00
O1262  O     0.83333   0.50000   0.75000   0.00000  Uiso   1.00
O1263  O     0.82118   0.45970   0.65459   0.00000  Uiso   1.00
O1264  O     0.79607   0.53724   0.84968   0.00000  Uiso   1.00
O1265  O     0.87491   0.51092   0.64606   0.00000  Uiso   1.00
O1266  O     0.84118   0.49213   0.84968   0.00000  Uiso   1.00
O1267  O     0.89870   0.41697   0.58086   0.00000  Uiso   1.00
O1268  O     0.97963   0.47136   0.80169   0.00000  Uiso   1.00
O1269  O     0.87891   0.34287   0.70518   0.00000  Uiso   1.00
O1270  O     0.78473   0.66128   0.79715   0.00000  Uiso   1.00
O1271  O     0.91682   0.44095   0.91661   0.00000  Uiso   1.00
O1272  O     0.92097   0.41186   0.98945   0.00000  Uiso   1.00
O1273  O     0.84597   0.41352   0.78214   0.00000  Uiso   1.00
O1274  O     0.82826   0.53877   0.57656   0.00000  Uiso   1.00
O1275  O     0.74806   0.56149   0.92119   0.00000  Uiso   1.00
O1276  O     0.75612   0.49899   0.55057   0.00000  Uiso   1.00
O1277  O     0.72027   0.55617   0.51511   0.00000  Uiso   1.00
O1278  O     0.90033   0.51226   0.88422   0.00000  Uiso   1.00
O1279  O     0.68790   0.52695   0.70036   0.00000  Uiso   1.00
O1280  O     0.81298   0.59418   0.77014   0.00000  Uiso   1.00
O1281  O     0.74078   0.46625   0.73413   0.00000  Uiso   1.00
O1282  O     0.93360   0.52605   0.71361   0.00000  Uiso   1.00
O1283  O     0.73738   0.52211   0.78213   0.00000  Uiso   1.00
O1284  O     0.92158   0.48559   0.77014   0.00000  Uiso   1.00
O1285  O     0.80426   0.40277   0.73413   0.00000  Uiso   1.00
O1286  O     0.87012   0.58953   0.71361   0.00000  Uiso   1.00
Zn1287 Zn    0.86005   0.47327   0.78734   0.00000  Uiso   1.00
Zn1288 Zn    0.80046   0.45791   0.71876   0.00000  Uiso   1.00
Zn1289 Zn    0.87723   0.53109   0.70657   0.00000  Uiso   1.00
Zn1290 Zn    0.79560   0.53773   0.78734   0.00000  Uiso   1.00
C1291  C     0.05331   0.82694   0.75914   0.00000  Uiso   1.00
C1292  C     0.17320   0.83285   0.55918   0.00000  Uiso   1.00
C1293  C     0.21735   0.77769   0.55877   0.00000  Uiso   1.00
C1294  C     0.28056   0.84008   0.74018   0.00000  Uiso   1.00
C1295  C     0.14240   0.86009   0.92003   0.00000  Uiso   1.00
C1296  C     0.32632   0.84035   0.73517   0.00000  Uiso   1.00
C1297  C     0.00763   0.82314   0.76506   0.00000  Uiso   1.00
C1298  C     0.17990   0.98957   0.73685   0.00000  Uiso   1.00
C1299  C     0.15135   0.67885   0.76479   0.00000  Uiso   1.00
C1300  C     0.15602   0.72284   0.76043   0.00000  Uiso   1.00
C1301  C     0.17647   0.94456   0.74025   0.00000  Uiso   1.00
C1302  C     0.08956   0.87278   0.99006   0.00000  Uiso   1.00
C1303  C     0.18514   0.81491   0.62974   0.00000  Uiso   1.00
C1304  C     0.14999   0.85253   0.87078   0.00000  Uiso   1.00
C1305  C     0.22739   0.77383   0.51216   0.00000  Uiso   1.00
C1306  C     0.19180   0.80838   0.58199   0.00000  Uiso   1.00
C1307  C     0.10474   0.87715   0.94397   0.00000  Uiso   1.00
C1308  C     0.26445   0.77087   0.60085   0.00000  Uiso   1.00
C1309  C     0.33297   0.77924   0.82197   0.00000  Uiso   1.00
C1310  C     0.22667   0.74097   0.89706   0.00000  Uiso   1.00
C1311  C     0.29702   0.76370   0.98335   0.00000  Uiso   1.00
C1312  C     0.13021   0.87166   0.61724   0.00000  Uiso   1.00
C1313  C     0.11045   0.84943   0.51110   0.00000  Uiso   1.00
C1314  C     0.26970   0.87066   0.89360   0.00000  Uiso   1.00
C1315  C     0.02163   0.83507   0.66050   0.00000  Uiso   1.00
C1316  C     0.15214   0.84015   0.99005   0.00000  Uiso   1.00
C1317  C     0.16809   0.84450   0.94387   0.00000  Uiso   1.00
C1318  C     0.17713   0.82314   0.51330   0.00000  Uiso   1.00
C1319  C     0.20836   0.79776   0.98914   0.00000  Uiso   1.00
C1320  C     0.22153   0.79957   0.94273   0.00000  Uiso   1.00
C1321  C     0.20813   0.83040   0.92325   0.00000  Uiso   1.00
H1322  H     0.25137   0.77616   0.63726   0.00000  Uiso   1.00
H1323  H     0.20057   0.72489   0.92235   0.00000  Uiso   1.00
H1324  H     0.24824   0.71751   0.88054   0.00000  Uiso   1.00
H1325  H     0.30191   0.79595   0.97266   0.00000  Uiso   1.00
H1326  H     0.31736   0.74487   0.95672   0.00000  Uiso   1.00
H1327  H     0.30825   0.76356   0.51396   0.00000  Uiso   1.00
H1328  H     0.14497   0.88388   0.64511   0.00000  Uiso   1.00
H1329  H     0.11193   0.84058   0.62385   0.00000  Uiso   1.00
H1330  H     0.10726   0.89332   0.61627   0.00000  Uiso   1.00
H1331  H     0.05065   0.88902   0.93569   0.00000  Uiso   1.00
H1332  H     0.05852   0.83425   0.55635   0.00000  Uiso   1.00
H1333  H     0.27998   0.80093   0.58686   0.00000  Uiso   1.00
H1334  H     0.05102   0.91507   0.50201   0.00000  Uiso   1.00
H1335  H     0.29114   0.85180   0.90340   0.00000  Uiso   1.00
H1336  H     0.26034   0.89603   0.91980   0.00000  Uiso   1.00
H1337  H     0.28805   0.88540   0.86292   0.00000  Uiso   1.00
H1338  H     0.32259   0.82365   0.65567   0.00000  Uiso   1.00
H1339  H     0.03959   0.80823   0.65894   0.00000  Uiso   1.00
H1340  H     0.03774   0.85408   0.63237   0.00000  Uiso   1.00
H1341  H     0.28970   0.75020   0.59596   0.00000  Uiso   1.00
H1342  H     0.02180   0.79839   0.84009   0.00000  Uiso   1.00
H1343  H     0.01623   0.75588   0.79739   0.00000  Uiso   1.00
H1344  H     0.30845   0.76162   0.84661   0.00000  Uiso   1.00
H1345  H     0.23055   0.98901   0.68723   0.00000  Uiso   1.00
H1346  H     0.10120   0.68357   0.81371   0.00000  Uiso   1.00
H1347  H     0.21356   0.75188   0.87130   0.00000  Uiso   1.00
O1348  O     0.16667   0.83333   0.75000   0.00000  Uiso   1.00
O1349  O     0.15451   0.79304   0.65459   0.00000  Uiso   1.00
O1350  O     0.12940   0.87058   0.84968   0.00000  Uiso   1.00
O1351  O     0.20824   0.84425   0.64606   0.00000  Uiso   1.00
O1352  O     0.17451   0.82546   0.84968   0.00000  Uiso   1.00
O1353  O     0.23203   0.75030   0.58086   0.00000  Uiso   1.00
O1354  O     0.31297   0.80469   0.80169   0.00000  Uiso   1.00
O1355  O     0.21224   0.67620   0.70518   0.00000  Uiso   1.00
O1356  O     0.11807   0.99461   0.79715   0.00000  Uiso   1.00
O1357  O     0.25016   0.77428   0.91661   0.00000  Uiso   1.00
O1358  O     0.25430   0.74520   0.98945   0.00000  Uiso   1.00
O1359  O     0.17930   0.74686   0.78214   0.00000  Uiso   1.00
O1360  O     0.16159   0.87210   0.57656   0.00000  Uiso   1.00
O1361  O     0.08139   0.89483   0.92119   0.00000  Uiso   1.00
O1362  O     0.08945   0.83232   0.55057   0.00000  Uiso   1.00
O1363  O     0.05360   0.88950   0.51511   0.00000  Uiso   1.00
O1364  O     0.23366   0.84559   0.88422   0.00000  Uiso   1.00
O1365  O     0.02124   0.86029   0.70036   0.00000  Uiso   1.00
O1366  O     0.14632   0.92751   0.77014   0.00000  Uiso   1.00
O1367  O     0.07412   0.79958   0.73413   0.00000  Uiso   1.00
O1368  O     0.26693   0.85939   0.71361   0.00000  Uiso   1.00
O1369  O     0.07071   0.85544   0.78213   0.00000  Uiso   1.00
O1370  O     0.25491   0.81892   0.77014   0.00000  Uiso   1.00
O1371  O     0.13760   0.73610   0.73413   0.00000  Uiso   1.00
O1372  O     0.20345   0.92286   0.71361   0.00000  Uiso   1.00
Zn1373 Zn    0.19338   0.80661   0.78734   0.00000  Uiso   1.00
Zn1374 Zn    0.13379   0.79124   0.71876   0.00000  Uiso   1.00
Zn1375 Zn    0.21056   0.86442   0.70657   0.00000  Uiso   1.00
Zn1376 Zn    0.12893   0.87106   0.78734   0.00000  Uiso   1.00
C1377  C     0.38664   0.82694   0.75914   0.00000  Uiso   1.00
C1378  C     0.50653   0.83285   0.55918   0.00000  Uiso   1.00
C1379  C     0.55068   0.77769   0.55877   0.00000  Uiso   1.00
C1380  C     0.61389   0.84008   0.74018   0.00000  Uiso   1.00
C1381  C     0.47574   0.86009   0.92003   0.00000  Uiso   1.00
C1382  C     0.65965   0.84035   0.73517   0.00000  Uiso   1.00
C1383  C     0.34096   0.82314   0.76506   0.00000  Uiso   1.00
C1384  C     0.51323   0.98957   0.73685   0.00000  Uiso   1.00
C1385  C     0.48468   0.67885   0.76479   0.00000  Uiso   1.00
C1386  C     0.48935   0.72284   0.76043   0.00000  Uiso   1.00
C1387  C     0.50980   0.94456   0.74025   0.00000  Uiso   1.00
C1388  C     0.42290   0.87278   0.99006   0.00000  Uiso   1.00
C1389  C     0.51847   0.81491   0.62974   0.00000  Uiso   1.00
C1390  C     0.48333   0.85253   0.87078   0.00000  Uiso   1.00
C1391  C     0.56073   0.77383   0.51216   0.00000  Uiso   1.00
C1392  C     0.52514   0.80838   0.58199   0.00000  Uiso   1.00
C1393  C     0.43807   0.87715   0.94397   0.00000  Uiso   1.00
C1394  C     0.59778   0.77087   0.60085   0.00000  Uiso   1.00
C1395  C     0.66630   0.77924   0.82197   0.00000  Uiso   1.00
C1396  C     0.56001   0.74097   0.89706   0.00000  Uiso   1.00
C1397  C     0.63035   0.76370   0.98335   0.00000  Uiso   1.00
C1398  C     0.46354   0.87166   0.61724   0.00000  Uiso   1.00
C1399  C     0.44379   0.84943   0.51110   0.00000  Uiso   1.00
C1400  C     0.60303   0.87066   0.89360   0.00000  Uiso   1.00
C1401  C     0.35496   0.83507   0.66050   0.00000  Uiso   1.00
C1402  C     0.48548   0.84015   0.99005   0.00000  Uiso   1.00
C1403  C     0.50142   0.84450   0.94387   0.00000  Uiso   1.00
C1404  C     0.51047   0.82314   0.51330   0.00000  Uiso   1.00
C1405  C     0.54169   0.79776   0.98914   0.00000  Uiso   1.00
C1406  C     0.55486   0.79957   0.94273   0.00000  Uiso   1.00
C1407  C     0.54147   0.83040   0.92325   0.00000  Uiso   1.00
H1408  H     0.58471   0.77616   0.63726   0.00000  Uiso   1.00
H1409  H     0.53390   0.72489   0.92235   0.00000  Uiso   1.00
H1410  H     0.58158   0.71751   0.88054   0.00000  Uiso   1.00
H1411  H     0.63525   0.79595   0.97266   0.00000  Uiso   1.00
H1412  H     0.65069   0.74487   0.95672   0.00000  Uiso   1.00
H1413  H     0.64158   0.76356   0.51396   0.00000  Uiso   1.00
H1414  H     0.47830   0.88388   0.64511   0.00000  Uiso   1.00
H1415  H     0.44526   0.84058   0.62385   0.00000  Uiso   1.00
H1416  H     0.44059   0.89332   0.61627   0.00000  Uiso   1.00
H1417  H     0.38399   0.88902   0.93569   0.00000  Uiso   1.00
H1418  H     0.39185   0.83425   0.55635   0.00000  Uiso   1.00
H1419  H     0.61331   0.80093   0.58686   0.00000  Uiso   1.00
H1420  H     0.38436   0.91507   0.50201   0.00000  Uiso   1.00
H1421  H     0.62448   0.85180   0.90340   0.00000  Uiso   1.00
H1422  H     0.59368   0.89603   0.91980   0.00000  Uiso   1.00
H1423  H     0.62138   0.88540   0.86292   0.00000  Uiso   1.00
H1424  H     0.65593   0.82365   0.65567   0.00000  Uiso   1.00
H1425  H     0.37292   0.80823   0.65894   0.00000  Uiso   1.00
H1426  H     0.37108   0.85408   0.63237   0.00000  Uiso   1.00
H1427  H     0.62304   0.75020   0.59596   0.00000  Uiso   1.00
H1428  H     0.35514   0.79839   0.84009   0.00000  Uiso   1.00
H1429  H     0.34956   0.75588   0.79739   0.00000  Uiso   1.00
H1430  H     0.64178   0.76162   0.84661   0.00000  Uiso   1.00
H1431  H     0.56388   0.98901   0.68723   0.00000  Uiso   1.00
H1432  H     0.43453   0.68357   0.81371   0.00000  Uiso   1.00
H1433  H     0.54689   0.75188   0.87130   0.00000  Uiso   1.00
O1434  O     0.50000   0.83333   0.75000   0.00000  Uiso   1.00
O1435  O     0.48784   0.79304   0.65459   0.00000  Uiso   1.00
O1436  O     0.46274   0.87058   0.84968   0.00000  Uiso   1.00
O1437  O     0.54157   0.84425   0.64606   0.00000  Uiso   1.00
O1438  O     0.50785   0.82546   0.84968   0.00000  Uiso   1.00
O1439  O     0.56536   0.75030   0.58086   0.00000  Uiso   1.00
O1440  O     0.64630   0.80469   0.80169   0.00000  Uiso   1.00
O1441  O     0.54558   0.67620   0.70518   0.00000  Uiso   1.00
O1442  O     0.45140   0.99461   0.79715   0.00000  Uiso   1.00
O1443  O     0.58349   0.77428   0.91661   0.00000  Uiso   1.00
O1444  O     0.58764   0.74520   0.98945   0.00000  Uiso   1.00
O1445  O     0.51264   0.74686   0.78214   0.00000  Uiso   1.00
O1446  O     0.49492   0.87210   0.57656   0.00000  Uiso   1.00
O1447  O     0.41473   0.89483   0.92119   0.00000  Uiso   1.00
O1448  O     0.42278   0.83232   0.55057   0.00000  Uiso   1.00
O1449  O     0.38694   0.88950   0.51511   0.00000  Uiso   1.00
O1450  O     0.56699   0.84559   0.88422   0.00000  Uiso   1.00
O1451  O     0.35457   0.86029   0.70036   0.00000  Uiso   1.00
O1452  O     0.47965   0.92751   0.77014   0.00000  Uiso   1.00
O1453  O     0.40745   0.79958   0.73413   0.00000  Uiso   1.00
O1454  O     0.60026   0.85939   0.71361   0.00000  Uiso   1.00
O1455  O     0.40405   0.85544   0.78213   0.00000  Uiso   1.00
O1456  O     0.58824   0.81892   0.77014   0.00000  Uiso   1.00
O1457  O     0.47093   0.73610   0.73413   0.00000  Uiso   1.00
O1458  O     0.53678   0.92286   0.71361   0.00000  Uiso   1.00
Zn1459 Zn    0.52672   0.80661   0.78734   0.00000  Uiso   1.00
Zn1460 Zn    0.46713   0.79124   0.71876   0.00000  Uiso   1.00
Zn1461 Zn    0.54389   0.86442   0.70657   0.00000  Uiso   1.00
Zn1462 Zn    0.46226   0.87106   0.78734   0.00000  Uiso   1.00
C1463  C     0.71997   0.82694   0.75914   0.00000  Uiso   1.00
C1464  C     0.83987   0.83285   0.55918   0.00000  Uiso   1.00
C1465  C     0.88402   0.77769   0.55877   0.00000  Uiso   1.00
C1466  C     0.94723   0.84008   0.74018   0.00000  Uiso   1.00
C1467  C     0.80907   0.86009   0.92003   0.00000  Uiso   1.00
C1468  C     0.99298   0.84035   0.73517   0.00000  Uiso   1.00
C1469  C     0.67429   0.82314   0.76506   0.00000  Uiso   1.00
C1470  C     0.84656   0.98957   0.73685   0.00000  Uiso   1.00
C1471  C     0.81801   0.67885   0.76479   0.00000  Uiso   1.00
C1472  C     0.82268   0.72284   0.76043   0.00000  Uiso   1.00
C1473  C     0.84313   0.94456   0.74025   0.00000  Uiso   1.00
C1474  C     0.75623   0.87278   0.99006   0.00000  Uiso   1.00
C1475  C     0.85180   0.81491   0.62974   0.00000  Uiso   1.00
C1476  C     0.81666   0.85253   0.87078   0.00000  Uiso   1.00
C1477  C     0.89406   0.77383   0.51216   0.00000  Uiso   1.00
C1478  C     0.85847   0.80838   0.58199   0.00000  Uiso   1.00
C1479  C     0.77140   0.87715   0.94397   0.00000  Uiso   1.00
C1480  C     0.93112   0.77087   0.60085   0.00000  Uiso   1.00
C1481  C     0.99964   0.77924   0.82197   0.00000  Uiso   1.00
C1482  C     0.89334   0.74097   0.89706   0.00000  Uiso   1.00
C1483  C     0.96368   0.76370   0.98335   0.00000  Uiso   1.00
C1484  C     0.79688   0.87166   0.61724   0.00000  Uiso   1.00
C1485  C     0.77712   0.84943   0.51110   0.00000  Uiso   1.00
C1486  C     0.93636   0.87066   0.89360   0.00000  Uiso   1.00
C1487  C     0.68830   0.83507   0.66050   0.00000  Uiso   1.00
C1488  C     0.81881   0.84015   0.99005   0.00000  Uiso   1.00
C1489  C     0.83475   0.84450   0.94387   0.00000  Uiso   1.00
C1490  C     0.84380   0.82314   0.51330   0.00000  Uiso   1.00
C1491  C     0.87503   0.79776   0.98914   0.00000  Uiso   1.00
C1492  C     0.88820   0.79957   0.94273   0.00000  Uiso   1.00
C1493  C     0.87480   0.83040   0.92325   0.00000  Uiso   1.00
H1494  H     0.91804   0.77616   0.63726   0.00000  Uiso   1.00
H1495  H     0.86723   0.72489   0.92235   0.00000  Uiso   1.00
H1496  H     0.91491   0.71751   0.88054   0.00000  Uiso   1.00
H1497  H     0.96858   0.79595   0.97266   0.00000  Uiso   1.00
H1498  H     0.98403   0.74487   0.95672   0.00000  Uiso   1.00
H1499  H     0.97491   0.76356   0.51396   0.00000  Uiso   1.00
H1500  H     0.81163   0.88388   0.64511   0.00000  Uiso   1.00
H1501  H     0.77860   0.84058   0.62385   0.00000  Uiso   1.00
H1502  H     0.77393   0.89332   0.61627   0.00000  Uiso   1.00
H1503  H     0.71732   0.88902   0.93569   0.00000  Uiso   1.00
H1504  H     0.72519   0.83425   0.55635   0.00000  Uiso   1.00
H1505  H     0.94664   0.80093   0.58686   0.00000  Uiso   1.00
H1506  H     0.71769   0.91507   0.50201   0.00000  Uiso   1.00
H1507  H     0.95781   0.85180   0.90340   0.00000  Uiso   1.00
H1508  H     0.92701   0.89603   0.91980   0.00000  Uiso   1.00
H1509  H     0.95472   0.88540   0.86292   0.00000  Uiso   1.00
H1510  H     0.98926   0.82365   0.65567   0.00000  Uiso   1.00
H1511  H     0.70626   0.80823   0.65894   0.00000  Uiso   1.00
H1512  H     0.70441   0.85408   0.63237   0.00000  Uiso   1.00
H1513  H     0.95637   0.75020   0.59596   0.00000  Uiso   1.00
H1514  H     0.68847   0.79839   0.84009   0.00000  Uiso   1.00
H1515  H     0.68289   0.75588   0.79739   0.00000  Uiso   1.00
H1516  H     0.97512   0.76162   0.84661   0.00000  Uiso   1.00
H1517  H     0.89721   0.98901   0.68723   0.00000  Uiso   1.00
H1518  H     0.76787   0.68357   0.81371   0.00000  Uiso   1.00
H1519  H     0.88022   0.75188   0.87130   0.00000  Uiso   1.00
O1520  O     0.83333   0.83333   0.75000   0.00000  Uiso   1.00
O1521  O     0.82118   0.79304   0.65459   0.00000  Uiso   1.00
O1522  O     0.79607   0.87058   0.84968   0.00000  Uiso   1.00
O1523  O     0.87491   0.84425   0.64606   0.00000  Uiso   1.00
O1524  O     0.84118   0.82546   0.84968   0.00000  Uiso   1.00
O1525  O     0.89870   0.75030   0.58086   0.00000  Uiso   1.00
O1526  O     0.97963   0.80469   0.80169   0.00000  Uiso   1.00
O1527  O     0.87891   0.67620   0.70518   0.00000  Uiso   1.00
O1528  O     0.78473   0.99461   0.79715   0.00000  Uiso   1.00
O1529  O     0.91682   0.77428   0.91661   0.00000  Uiso   1.00
O1530  O     0.92097   0.74520   0.98945   0.00000  Uiso   1.00
O1531  O     0.84597   0.74686   0.78214   0.00000  Uiso   1.00
O1532  O     0.82826   0.87210   0.57656   0.00000  Uiso   1.00
O1533  O     0.74806   0.89483   0.92119   0.00000  Uiso   1.00
O1534  O     0.75612   0.83232   0.55057   0.00000  Uiso   1.00
O1535  O     0.72027   0.88950   0.51511   0.00000  Uiso   1.00
O1536  O     0.90033   0.84559   0.88422   0.00000  Uiso   1.00
O1537  O     0.68790   0.86029   0.70036   0.00000  Uiso   1.00
O1538  O     0.81298   0.92751   0.77014   0.00000  Uiso   1.00
O1539  O     0.74078   0.79958   0.73413   0.00000  Uiso   1.00
O1540  O     0.93360   0.85939   0.71361   0.00000  Uiso   1.00
O1541  O     0.73738   0.85544   0.78213   0.00000  Uiso   1.00
O1542  O     0.92158   0.81892   0.77014   0.00000  Uiso   1.00
O1543  O     0.80426   0.73610   0.73413   0.00000  Uiso   1.00
O1544  O     0.87012   0.92286   0.71361   0.00000  Uiso   1.00
Zn1545 Zn    0.86005   0.80661   0.78734   0.00000  Uiso   1.00
Zn1546 Zn    0.80046   0.79124   0.71876   0.00000  Uiso   1.00
Zn1547 Zn    0.87723   0.86442   0.70657   0.00000  Uiso   1.00
Zn1548 Zn    0.79560   0.87106   0.78734   0.00000  Uiso   1.00
loop_
_geom_bond_atom_site_label_1
_geom_bond_atom_site_label_2
_geom_bond_distance
_geom_bond_site_symmetry_2
_ccdc_geom_bond_type
C1     O77     1.271   .     A
C1     O79     1.270   .     A
C1     C7      1.445   .     S
C2     C16     1.413   .     A
C2     O70     1.398   .     S
C2     C28     1.408   .     A
C3     C15     1.401   .     A
C3     O63     1.389   .     S
C3     C16     1.412   .     A
C4     O80     1.275   .     A
C4     C6      1.462   .     S
C4     O78     1.290   .     A
C5     C17     1.420   .     A
C5     C27     1.428   .     A
C5     C14     1.490   .     S
C6     C93     1.354   .     S
C6     O161    1.387   .     S
C7     C178    1.354   1_455 S
C7     O236    1.401   1_455 S
C8     C11     1.469   .     S
C8     C267    1.346   .     S
C8     O323    1.388   .     S
C9     C10     1.438   .     S
C9     C524    1.346   1_545 S
C9     O582    1.385   1_545 S
C10    O81     1.276   .     A
C10    O69     1.275   .     A
C11    O76     1.279   .     A
C11    O82     1.282   .     A
C12    C17     1.412   .     A
C12    C797    1.401   .     S
C12    O847    1.382   .     S
C13    O61     1.275   .     A
C13    O59     1.277   .     A
C13    C16     1.445   .     S
C14    O60     1.287   .     A
C14    O62     1.288   .     A
C15    C803    1.414   1_554 S
C15    O842    1.384   1_554 S
C17    O71     1.383   .     S
C18    O63     1.415   .     S
C18    H51     1.109   .     S
C18    H32     1.110   .     S
C18    H43     1.116   .     S
C19    O64     1.414   .     S
C19    H54     1.101   .     S
C19    H138    1.112   .     S
C19    H139    1.113   .     S
C20    O67     1.412   .     S
C20    H34     1.109   .     S
C20    H33     1.115   .     S
C20    H57     1.113   .     S
C21    H36     1.109   .     S
C21    O68     1.413   .     S
C21    H35     1.115   .     S
C21    H811    1.108   .     S
C22    H38     1.109   .     S
C22    H40     1.109   .     S
C22    H39     1.112   .     S
C22    O70     1.413   .     S
C23    O72     1.381   .     S
C23    C786    1.401   1_554 S
C23    C800    1.413   1_554 S
C24    H45     1.112   .     S
C24    H47     1.109   .     S
C24    H46     1.114   .     S
C24    O74     1.410   .     S
C25    H50     1.105   .     S
C25    O75     1.411   .     S
C25    H49     1.112   .     S
C25    H220    1.112   1_455 S
C26    C27     1.416   .     A
C26    C797    1.413   .     S
C26    C802    1.422   .     S
C27    C31     1.419   .     A
C28    C800    1.422   1_554 S
C28    C803    1.416   1_554 S
C29    C30     1.406   .     A
C29    C802    1.416   .     S
C29    C789    1.414   .     S
C30    C31     1.402   .     A
C30    O67     1.379   .     S
C31    O74     1.385   .     S
H37    C795    1.108   1_554 S
H41    O71     0.991   .     S
H42    O72     0.990   .     S
H44    O73     0.991   .     S
H48    C111    1.112   .     S
H52    C191    1.112   1_455 S
H53    C191    1.113   1_455 S
H55    O323    0.990   .     S
H56    O582    0.993   1_545 S
O58    Zn86    1.943   .     S
O58    Zn84    1.951   .     S
O58    Zn85    1.952   .     S
O58    Zn83    1.959   .     S
O59    Zn84    1.946   .     S
O60    Zn86    1.950   .     S
O61    Zn85    1.945   .     S
O62    Zn83    1.942   .     S
O64    C93     1.401   .     S
O65    H571    0.990   1_545 S
O65    C524    1.388   1_545 S
O66    H314    0.993   .     S
O66    C267    1.385   .     S
O68    C789    1.384   .     S
O69    Zn83    1.935   .     S
O73    C786    1.382   1_554 S
O75    C178    1.387   1_455 S
O76    Zn86    1.939   .     S
O77    Zn84    1.937   .     S
O78    Zn85    1.942   .     S
O79    Zn86    1.941   .     S
O80    Zn83    1.938   .     S
O81    Zn84    1.939   .     S
O82    Zn85    1.934   .     S
C87    O163    1.271   .     A
C87    O165    1.270   .     A
C87    C93     1.445   .     S
C88    C102    1.413   .     A
C88    O156    1.398   .     S
C88    C114    1.408   .     A
C89    C101    1.401   .     A
C89    O149    1.389   .     S
C89    C102    1.412   .     A
C90    O166    1.275   .     A
C90    C92     1.462   .     S
C90    O164    1.290   .     A
C91    C103    1.420   .     A
C91    C113    1.428   .     A
C91    C100    1.490   .     S
C92    C179    1.354   .     S
C92    O247    1.387   .     S
C94    C97     1.469   .     S
C94    C353    1.346   .     S
C94    O409    1.388   .     S
C95    C96     1.438   .     S
C95    C610    1.346   1_545 S
C95    O668    1.385   1_545 S
C96    O167    1.276   .     A
C96    O155    1.275   .     A
C97    O162    1.279   .     A
C97    O168    1.282   .     A
C98    C103    1.412   .     A
C98    C883    1.401   .     S
C98    O933    1.382   .     S
C99    O147    1.275   .     A
C99    O145    1.277   .     A
C99    C102    1.445   .     S
C100   O146    1.287   .     A
C100   O148    1.288   .     A
C101   C889    1.414   1_554 S
C101   O928    1.384   1_554 S
C103   O157    1.383   .     S
C104   O149    1.415   .     S
C104   H137    1.109   .     S
C104   H118    1.110   .     S
C104   H129    1.116   .     S
C105   O150    1.414   .     S
C105   H140    1.101   .     S
C105   H224    1.112   .     S
C105   H225    1.113   .     S
C106   O153    1.412   .     S
C106   H120    1.109   .     S
C106   H119    1.115   .     S
C106   H143    1.113   .     S
C107   H122    1.109   .     S
C107   O154    1.413   .     S
C107   H121    1.115   .     S
C107   H897    1.108   .     S
C108   H124    1.109   .     S
C108   H126    1.109   .     S
C108   H125    1.112   .     S
C108   O156    1.413   .     S
C109   O158    1.381   .     S
C109   C872    1.401   1_554 S
C109   C886    1.413   1_554 S
C110   H131    1.112   .     S
C110   H133    1.109   .     S
C110   H132    1.114   .     S
C110   O160    1.410   .     S
C111   H136    1.105   .     S
C111   O161    1.411   .     S
C111   H135    1.112   .     S
C112   C113    1.416   .     A
C112   C883    1.413   .     S
C112   C888    1.422   .     S
C113   C117    1.419   .     A
C114   C886    1.422   1_554 S
C114   C889    1.416   1_554 S
C115   C116    1.406   .     A
C115   C888    1.416   .     S
C115   C875    1.414   .     S
C116   C117    1.402   .     A
C116   O153    1.379   .     S
C117   O160    1.385   .     S
H123   C881    1.108   1_554 S
H127   O157    0.991   .     S
H128   O158    0.990   .     S
H130   O159    0.991   .     S
H134   C197    1.112   .     S
H141   O409    0.990   .     S
H142   O668    0.993   1_545 S
O144   Zn172   1.943   .     S
O144   Zn170   1.951   .     S
O144   Zn171   1.952   .     S
O144   Zn169   1.959   .     S
O145   Zn170   1.946   .     S
O146   Zn172   1.950   .     S
O147   Zn171   1.945   .     S
O148   Zn169   1.942   .     S
O150   C179    1.401   .     S
O151   H657    0.990   1_545 S
O151   C610    1.388   1_545 S
O152   H400    0.993   .     S
O152   C353    1.385   .     S
O154   C875    1.384   .     S
O155   Zn169   1.935   .     S
O159   C872    1.382   1_554 S
O162   Zn172   1.939   .     S
O163   Zn170   1.937   .     S
O164   Zn171   1.942   .     S
O165   Zn172   1.941   .     S
O166   Zn169   1.938   .     S
O167   Zn170   1.939   .     S
O168   Zn171   1.934   .     S
C173   O249    1.271   .     A
C173   O251    1.270   .     A
C173   C179    1.445   .     S
C174   C188    1.413   .     A
C174   O242    1.398   .     S
C174   C200    1.408   .     A
C175   C187    1.401   .     A
C175   O235    1.389   .     S
C175   C188    1.412   .     A
C176   O252    1.275   .     A
C176   C178    1.462   .     S
C176   O250    1.290   .     A
C177   C189    1.420   .     A
C177   C199    1.428   .     A
C177   C186    1.490   .     S
C178   C7      1.354   1_655 S
C178   O75     1.387   1_655 S
C180   C183    1.469   .     S
C180   C439    1.346   .     S
C180   O495    1.388   .     S
C181   C182    1.438   .     S
C181   C696    1.346   1_545 S
C181   O754    1.385   1_545 S
C182   O253    1.276   .     A
C182   O241    1.275   .     A
C183   O248    1.279   .     A
C183   O254    1.282   .     A
C184   C189    1.412   .     A
C184   C969    1.401   .     S
C184   O1019   1.382   .     S
C185   O233    1.275   .     A
C185   O231    1.277   .     A
C185   C188    1.445   .     S
C186   O232    1.287   .     A
C186   O234    1.288   .     A
C187   C975    1.414   1_554 S
C187   O1014   1.384   1_554 S
C189   O243    1.383   .     S
C190   O235    1.415   .     S
C190   H223    1.109   .     S
C190   H204    1.110   .     S
C190   H215    1.116   .     S
C191   O236    1.414   .     S
C191   H226    1.101   .     S
C191   H52     1.112   1_655 S
C191   H53     1.113   1_655 S
C192   O239    1.412   .     S
C192   H206    1.109   .     S
C192   H205    1.115   .     S
C192   H229    1.113   .     S
C193   H208    1.109   .     S
C193   O240    1.413   .     S
C193   H207    1.115   .     S
C193   H983    1.108   .     S
C194   H210    1.109   .     S
C194   H212    1.109   .     S
C194   H211    1.112   .     S
C194   O242    1.413   .     S
C195   O244    1.381   .     S
C195   C958    1.401   1_554 S
C195   C972    1.413   1_554 S
C196   H217    1.112   .     S
C196   H219    1.109   .     S
C196   H218    1.114   .     S
C196   O246    1.410   .     S
C197   H222    1.105   .     S
C197   O247    1.411   .     S
C197   H221    1.112   .     S
C198   C199    1.416   .     A
C198   C969    1.413   .     S
C198   C974    1.422   .     S
C199   C203    1.419   .     A
C200   C972    1.422   1_554 S
C200   C975    1.416   1_554 S
C201   C202    1.406   .     A
C201   C974    1.416   .     S
C201   C961    1.414   .     S
C202   C203    1.402   .     A
C202   O239    1.379   .     S
C203   O246    1.385   .     S
H209   C967    1.108   1_554 S
H213   O243    0.991   .     S
H214   O244    0.990   .     S
H216   O245    0.991   .     S
H220   C25     1.112   1_655 S
H227   O495    0.990   .     S
H228   O754    0.993   1_545 S
O230   Zn258   1.943   .     S
O230   Zn256   1.951   .     S
O230   Zn257   1.952   .     S
O230   Zn255   1.959   .     S
O231   Zn256   1.946   .     S
O232   Zn258   1.950   .     S
O233   Zn257   1.945   .     S
O234   Zn255   1.942   .     S
O236   C7      1.401   1_655 S
O237   H743    0.990   1_545 S
O237   C696    1.388   1_545 S
O238   H486    0.993   .     S
O238   C439    1.385   .     S
O240   C961    1.384   .     S
O241   Zn255   1.935   .     S
O245   C958    1.382   1_554 S
O248   Zn258   1.939   .     S
O249   Zn256   1.937   .     S
O250   Zn257   1.942   .     S
O251   Zn258   1.941   .     S
O252   Zn255   1.938   .     S
O253   Zn256   1.939   .     S
O254   Zn257   1.934   .     S
C259   O335    1.271   .     A
C259   O337    1.270   .     A
C259   C265    1.445   .     S
C260   C274    1.413   .     A
C260   O328    1.398   .     S
C260   C286    1.408   .     A
C261   C273    1.401   .     A
C261   O321    1.389   .     S
C261   C274    1.412   .     A
C262   O338    1.275   .     A
C262   C264    1.462   .     S
C262   O336    1.290   .     A
C263   C275    1.420   .     A
C263   C285    1.428   .     A
C263   C272    1.490   .     S
C264   C351    1.354   .     S
C264   O419    1.387   .     S
C265   C436    1.354   1_455 S
C265   O494    1.401   1_455 S
C266   C269    1.469   .     S
C266   C525    1.346   .     S
C266   O581    1.388   .     S
C267   C268    1.438   .     S
C268   O339    1.276   .     A
C268   O327    1.275   .     A
C269   O334    1.279   .     A
C269   O340    1.282   .     A
C270   C275    1.412   .     A
C270   C1055   1.401   .     S
C270   O1105   1.382   .     S
C271   O319    1.275   .     A
C271   O317    1.277   .     A
C271   C274    1.445   .     S
C272   O318    1.287   .     A
C272   O320    1.288   .     A
C273   C1061   1.414   1_554 S
C273   O1100   1.384   1_554 S
C275   O329    1.383   .     S
C276   O321    1.415   .     S
C276   H309    1.109   .     S
C276   H290    1.110   .     S
C276   H301    1.116   .     S
C277   O322    1.414   .     S
C277   H312    1.101   .     S
C277   H396    1.112   .     S
C277   H397    1.113   .     S
C278   O325    1.412   .     S
C278   H292    1.109   .     S
C278   H291    1.115   .     S
C278   H315    1.113   .     S
C279   H294    1.109   .     S
C279   O326    1.413   .     S
C279   H293    1.115   .     S
C279   H1069   1.108   .     S
C280   H296    1.109   .     S
C280   H298    1.109   .     S
C280   H297    1.112   .     S
C280   O328    1.413   .     S
C281   O330    1.381   .     S
C281   C1044   1.401   1_554 S
C281   C1058   1.413   1_554 S
C282   H303    1.112   .     S
C282   H305    1.109   .     S
C282   H304    1.114   .     S
C282   O332    1.410   .     S
C283   H308    1.105   .     S
C283   O333    1.411   .     S
C283   H307    1.112   .     S
C283   H478    1.112   1_455 S
C284   C285    1.416   .     A
C284   C1055   1.413   .     S
C284   C1060   1.422   .     S
C285   C289    1.419   .     A
C286   C1058   1.422   1_554 S
C286   C1061   1.416   1_554 S
C287   C288    1.406   .     A
C287   C1060   1.416   .     S
C287   C1047   1.414   .     S
C288   C289    1.402   .     A
C288   O325    1.379   .     S
C289   O332    1.385   .     S
H295   C1053   1.108   1_554 S
H299   O329    0.991   .     S
H300   O330    0.990   .     S
H302   O331    0.991   .     S
H306   C369    1.112   .     S
H310   C449    1.112   1_455 S
H311   C449    1.113   1_455 S
H313   O581    0.990   .     S
O316   Zn344   1.943   .     S
O316   Zn342   1.951   .     S
O316   Zn343   1.952   .     S
O316   Zn341   1.959   .     S
O317   Zn342   1.946   .     S
O318   Zn344   1.950   .     S
O319   Zn343   1.945   .     S
O320   Zn341   1.942   .     S
O322   C351    1.401   .     S
O324   H572    0.993   .     S
O324   C525    1.385   .     S
O326   C1047   1.384   .     S
O327   Zn341   1.935   .     S
O331   C1044   1.382   1_554 S
O333   C436    1.387   1_455 S
O334   Zn344   1.939   .     S
O335   Zn342   1.937   .     S
O336   Zn343   1.942   .     S
O337   Zn344   1.941   .     S
O338   Zn341   1.938   .     S
O339   Zn342   1.939   .     S
O340   Zn343   1.934   .     S
C345   O421    1.271   .     A
C345   O423    1.270   .     A
C345   C351    1.445   .     S
C346   C360    1.413   .     A
C346   O414    1.398   .     S
C346   C372    1.408   .     A
C347   C359    1.401   .     A
C347   O407    1.389   .     S
C347   C360    1.412   .     A
C348   O424    1.275   .     A
C348   C350    1.462   .     S
C348   O422    1.290   .     A
C349   C361    1.420   .     A
C349   C371    1.428   .     A
C349   C358    1.490   .     S
C350   C437    1.354   .     S
C350   O505    1.387   .     S
C352   C355    1.469   .     S
C352   C611    1.346   .     S
C352   O667    1.388   .     S
C353   C354    1.438   .     S
C354   O425    1.276   .     A
C354   O413    1.275   .     A
C355   O420    1.279   .     A
C355   O426    1.282   .     A
C356   C361    1.412   .     A
C356   C1141   1.401   .     S
C356   O1191   1.382   .     S
C357   O405    1.275   .     A
C357   O403    1.277   .     A
C357   C360    1.445   .     S
C358   O404    1.287   .     A
C358   O406    1.288   .     A
C359   C1147   1.414   1_554 S
C359   O1186   1.384   1_554 S
C361   O415    1.383   .     S
C362   O407    1.415   .     S
C362   H395    1.109   .     S
C362   H376    1.110   .     S
C362   H387    1.116   .     S
C363   O408    1.414   .     S
C363   H398    1.101   .     S
C363   H482    1.112   .     S
C363   H483    1.113   .     S
C364   O411    1.412   .     S
C364   H378    1.109   .     S
C364   H377    1.115   .     S
C364   H401    1.113   .     S
C365   H380    1.109   .     S
C365   O412    1.413   .     S
C365   H379    1.115   .     S
C365   H1155   1.108   .     S
C366   H382    1.109   .     S
C366   H384    1.109   .     S
C366   H383    1.112   .     S
C366   O414    1.413   .     S
C367   O416    1.381   .     S
C367   C1130   1.401   1_554 S
C367   C1144   1.413   1_554 S
C368   H389    1.112   .     S
C368   H391    1.109   .     S
C368   H390    1.114   .     S
C368   O418    1.410   .     S
C369   H394    1.105   .     S
C369   O419    1.411   .     S
C369   H393    1.112   .     S
C370   C371    1.416   .     A
C370   C1141   1.413   .     S
C370   C1146   1.422   .     S
C371   C375    1.419   .     A
C372   C1144   1.422   1_554 S
C372   C1147   1.416   1_554 S
C373   C374    1.406   .     A
C373   C1146   1.416   .     S
C373   C1133   1.414   .     S
C374   C375    1.402   .     A
C374   O411    1.379   .     S
C375   O418    1.385   .     S
H381   C1139   1.108   1_554 S
H385   O415    0.991   .     S
H386   O416    0.990   .     S
H388   O417    0.991   .     S
H392   C455    1.112   .     S
H399   O667    0.990   .     S
O402   Zn430   1.943   .     S
O402   Zn428   1.951   .     S
O402   Zn429   1.952   .     S
O402   Zn427   1.959   .     S
O403   Zn428   1.946   .     S
O404   Zn430   1.950   .     S
O405   Zn429   1.945   .     S
O406   Zn427   1.942   .     S
O408   C437    1.401   .     S
O410   H658    0.993   .     S
O410   C611    1.385   .     S
O412   C1133   1.384   .     S
O413   Zn427   1.935   .     S
O417   C1130   1.382   1_554 S
O420   Zn430   1.939   .     S
O421   Zn428   1.937   .     S
O422   Zn429   1.942   .     S
O423   Zn430   1.941   .     S
O424   Zn427   1.938   .     S
O425   Zn428   1.939   .     S
O426   Zn429   1.934   .     S
C431   O507    1.271   .     A
C431   O509    1.270   .     A
C431   C437    1.445   .     S
C432   C446    1.413   .     A
C432   O500    1.398   .     S
C432   C458    1.408   .     A
C433   C445    1.401   .     A
C433   O493    1.389   .     S
C433   C446    1.412   .     A
C434   O510    1.275   .     A
C434   C436    1.462   .     S
C434   O508    1.290   .     A
C435   C447    1.420   .     A
C435   C457    1.428   .     A
C435   C444    1.490   .     S
C436   C265    1.354   1_655 S
C436   O333    1.387   1_655 S
C438   C441    1.469   .     S
C438   C697    1.346   .     S
C438   O753    1.388   .     S
C439   C440    1.438   .     S
C440   O511    1.276   .     A
C440   O499    1.275   .     A
C441   O506    1.279   .     A
C441   O512    1.282   .     A
C442   C447    1.412   .     A
C442   C1227   1.401   .     S
C442   O1277   1.382   .     S
C443   O491    1.275   .     A
C443   O489    1.277   .     A
C443   C446    1.445   .     S
C444   O490    1.287   .     A
C444   O492    1.288   .     A
C445   C1233   1.414   1_554 S
C445   O1272   1.384   1_554 S
C447   O501    1.383   .     S
C448   O493    1.415   .     S
C448   H481    1.109   .     S
C448   H462    1.110   .     S
C448   H473    1.116   .     S
C449   O494    1.414   .     S
C449   H484    1.101   .     S
C449   H310    1.112   1_655 S
C449   H311    1.113   1_655 S
C450   O497    1.412   .     S
C450   H464    1.109   .     S
C450   H463    1.115   .     S
C450   H487    1.113   .     S
C451   H466    1.109   .     S
C451   O498    1.413   .     S
C451   H465    1.115   .     S
C451   H1241   1.108   .     S
C452   H468    1.109   .     S
C452   H470    1.109   .     S
C452   H469    1.112   .     S
C452   O500    1.413   .     S
C453   O502    1.381   .     S
C453   C1216   1.401   1_554 S
C453   C1230   1.413   1_554 S
C454   H475    1.112   .     S
C454   H477    1.109   .     S
C454   H476    1.114   .     S
C454   O504    1.410   .     S
C455   H480    1.105   .     S
C455   O505    1.411   .     S
C455   H479    1.112   .     S
C456   C457    1.416   .     A
C456   C1227   1.413   .     S
C456   C1232   1.422   .     S
C457   C461    1.419   .     A
C458   C1230   1.422   1_554 S
C458   C1233   1.416   1_554 S
C459   C460    1.406   .     A
C459   C1232   1.416   .     S
C459   C1219   1.414   .     S
C460   C461    1.402   .     A
C460   O497    1.379   .     S
C461   O504    1.385   .     S
H467   C1225   1.108   1_554 S
H471   O501    0.991   .     S
H472   O502    0.990   .     S
H474   O503    0.991   .     S
H478   C283    1.112   1_655 S
H485   O753    0.990   .     S
O488   Zn516   1.943   .     S
O488   Zn514   1.951   .     S
O488   Zn515   1.952   .     S
O488   Zn513   1.959   .     S
O489   Zn514   1.946   .     S
O490   Zn516   1.950   .     S
O491   Zn515   1.945   .     S
O492   Zn513   1.942   .     S
O494   C265    1.401   1_655 S
O496   H744    0.993   .     S
O496   C697    1.385   .     S
O498   C1219   1.384   .     S
O499   Zn513   1.935   .     S
O503   C1216   1.382   1_554 S
O506   Zn516   1.939   .     S
O507   Zn514   1.937   .     S
O508   Zn515   1.942   .     S
O509   Zn516   1.941   .     S
O510   Zn513   1.938   .     S
O511   Zn514   1.939   .     S
O512   Zn515   1.934   .     S
C517   O593    1.271   .     A
C517   O595    1.270   .     A
C517   C523    1.445   .     S
C518   C532    1.413   .     A
C518   O586    1.398   .     S
C518   C544    1.408   .     A
C519   C531    1.401   .     A
C519   O579    1.389   .     S
C519   C532    1.412   .     A
C520   O596    1.275   .     A
C520   C522    1.462   .     S
C520   O594    1.290   .     A
C521   C533    1.420   .     A
C521   C543    1.428   .     A
C521   C530    1.490   .     S
C522   C609    1.354   .     S
C522   O677    1.387   .     S
C523   C694    1.354   1_455 S
C523   O752    1.401   1_455 S
C524   C527    1.469   .     S
C524   C9      1.346   1_565 S
C524   O65     1.388   1_565 S
C525   C526    1.438   .     S
C526   O597    1.276   .     A
C526   O585    1.275   .     A
C527   O592    1.279   .     A
C527   O598    1.282   .     A
C528   C533    1.412   .     A
C528   C1313   1.401   .     S
C528   O1363   1.382   .     S
C529   O577    1.275   .     A
C529   O575    1.277   .     A
C529   C532    1.445   .     S
C530   O576    1.287   .     A
C530   O578    1.288   .     A
C531   C1319   1.414   1_554 S
C531   O1358   1.384   1_554 S
C533   O587    1.383   .     S
C534   O579    1.415   .     S
C534   H567    1.109   .     S
C534   H548    1.110   .     S
C534   H559    1.116   .     S
C535   O580    1.414   .     S
C535   H570    1.101   .     S
C535   H654    1.112   .     S
C535   H655    1.113   .     S
C536   O583    1.412   .     S
C536   H550    1.109   .     S
C536   H549    1.115   .     S
C536   H573    1.113   .     S
C537   H552    1.109   .     S
C537   O584    1.413   .     S
C537   H551    1.115   .     S
C537   H1327   1.108   .     S
C538   H554    1.109   .     S
C538   H556    1.109   .     S
C538   H555    1.112   .     S
C538   O586    1.413   .     S
C539   O588    1.381   .     S
C539   C1302   1.401   1_554 S
C539   C1316   1.413   1_554 S
C540   H561    1.112   .     S
C540   H563    1.109   .     S
C540   H562    1.114   .     S
C540   O590    1.410   .     S
C541   H566    1.105   .     S
C541   O591    1.411   .     S
C541   H565    1.112   .     S
C541   H736    1.112   1_455 S
C542   C543    1.416   .     A
C542   C1313   1.413   .     S
C542   C1318   1.422   .     S
C543   C547    1.419   .     A
C544   C1316   1.422   1_554 S
C544   C1319   1.416   1_554 S
C545   C546    1.406   .     A
C545   C1318   1.416   .     S
C545   C1305   1.414   .     S
C546   C547    1.402   .     A
C546   O583    1.379   .     S
C547   O590    1.385   .     S
H553   C1311   1.108   1_554 S
H557   O587    0.991   .     S
H558   O588    0.990   .     S
H560   O589    0.991   .     S
H564   C627    1.112   .     S
H568   C707    1.112   1_455 S
H569   C707    1.113   1_455 S
H571   O65     0.990   1_565 S
O574   Zn602   1.943   .     S
O574   Zn600   1.951   .     S
O574   Zn601   1.952   .     S
O574   Zn599   1.959   .     S
O575   Zn600   1.946   .     S
O576   Zn602   1.950   .     S
O577   Zn601   1.945   .     S
O578   Zn599   1.942   .     S
O580   C609    1.401   .     S
O582   H56     0.993   1_565 S
O582   C9      1.385   1_565 S
O584   C1305   1.384   .     S
O585   Zn599   1.935   .     S
O589   C1302   1.382   1_554 S
O591   C694    1.387   1_455 S
O592   Zn602   1.939   .     S
O593   Zn600   1.937   .     S
O594   Zn601   1.942   .     S
O595   Zn602   1.941   .     S
O596   Zn599   1.938   .     S
O597   Zn600   1.939   .     S
O598   Zn601   1.934   .     S
C603   O679    1.271   .     A
C603   O681    1.270   .     A
C603   C609    1.445   .     S
C604   C618    1.413   .     A
C604   O672    1.398   .     S
C604   C630    1.408   .     A
C605   C617    1.401   .     A
C605   O665    1.389   .     S
C605   C618    1.412   .     A
C606   O682    1.275   .     A
C606   C608    1.462   .     S
C606   O680    1.290   .     A
C607   C619    1.420   .     A
C607   C629    1.428   .     A
C607   C616    1.490   .     S
C608   C695    1.354   .     S
C608   O763    1.387   .     S
C610   C613    1.469   .     S
C610   C95     1.346   1_565 S
C610   O151    1.388   1_565 S
C611   C612    1.438   .     S
C612   O683    1.276   .     A
C612   O671    1.275   .     A
C613   O678    1.279   .     A
C613   O684    1.282   .     A
C614   C619    1.412   .     A
C614   C1399   1.401   .     S
C614   O1449   1.382   .     S
C615   O663    1.275   .     A
C615   O661    1.277   .     A
C615   C618    1.445   .     S
C616   O662    1.287   .     A
C616   O664    1.288   .     A
C617   C1405   1.414   1_554 S
C617   O1444   1.384   1_554 S
C619   O673    1.383   .     S
C620   O665    1.415   .     S
C620   H653    1.109   .     S
C620   H634    1.110   .     S
C620   H645    1.116   .     S
C621   O666    1.414   .     S
C621   H656    1.101   .     S
C621   H740    1.112   .     S
C621   H741    1.113   .     S
C622   O669    1.412   .     S
C622   H636    1.109   .     S
C622   H635    1.115   .     S
C622   H659    1.113   .     S
C623   H638    1.109   .     S
C623   O670    1.413   .     S
C623   H637    1.115   .     S
C623   H1413   1.108   .     S
C624   H640    1.109   .     S
C624   H642    1.109   .     S
C624   H641    1.112   .     S
C624   O672    1.413   .     S
C625   O674    1.381   .     S
C625   C1388   1.401   1_554 S
C625   C1402   1.413   1_554 S
C626   H647    1.112   .     S
C626   H649    1.109   .     S
C626   H648    1.114   .     S
C626   O676    1.410   .     S
C627   H652    1.105   .     S
C627   O677    1.411   .     S
C627   H651    1.112   .     S
C628   C629    1.416   .     A
C628   C1399   1.413   .     S
C628   C1404   1.422   .     S
C629   C633    1.419   .     A
C630   C1402   1.422   1_554 S
C630   C1405   1.416   1_554 S
C631   C632    1.406   .     A
C631   C1404   1.416   .     S
C631   C1391   1.414   .     S
C632   C633    1.402   .     A
C632   O669    1.379   .     S
C633   O676    1.385   .     S
H639   C1397   1.108   1_554 S
H643   O673    0.991   .     S
H644   O674    0.990   .     S
H646   O675    0.991   .     S
H650   C713    1.112   .     S
H657   O151    0.990   1_565 S
O660   Zn688   1.943   .     S
O660   Zn686   1.951   .     S
O660   Zn687   1.952   .     S
O660   Zn685   1.959   .     S
O661   Zn686   1.946   .     S
O662   Zn688   1.950   .     S
O663   Zn687   1.945   .     S
O664   Zn685   1.942   .     S
O666   C695    1.401   .     S
O668   H142    0.993   1_565 S
O668   C95     1.385   1_565 S
O670   C1391   1.384   .     S
O671   Zn685   1.935   .     S
O675   C1388   1.382   1_554 S
O678   Zn688   1.939   .     S
O679   Zn686   1.937   .     S
O680   Zn687   1.942   .     S
O681   Zn688   1.941   .     S
O682   Zn685   1.938   .     S
O683   Zn686   1.939   .     S
O684   Zn687   1.934   .     S
C689   O765    1.271   .     A
C689   O767    1.270   .     A
C689   C695    1.445   .     S
C690   C704    1.413   .     A
C690   O758    1.398   .     S
C690   C716    1.408   .     A
C691   C703    1.401   .     A
C691   O751    1.389   .     S
C691   C704    1.412   .     A
C692   O768    1.275   .     A
C692   C694    1.462   .     S
C692   O766    1.290   .     A
C693   C705    1.420   .     A
C693   C715    1.428   .     A
C693   C702    1.490   .     S
C694   C523    1.354   1_655 S
C694   O591    1.387   1_655 S
C696   C699    1.469   .     S
C696   C181    1.346   1_565 S
C696   O237    1.388   1_565 S
C697   C698    1.438   .     S
C698   O769    1.276   .     A
C698   O757    1.275   .     A
C699   O764    1.279   .     A
C699   O770    1.282   .     A
C700   C705    1.412   .     A
C700   C1485   1.401   .     S
C700   O1535   1.382   .     S
C701   O749    1.275   .     A
C701   O747    1.277   .     A
C701   C704    1.445   .     S
C702   O748    1.287   .     A
C702   O750    1.288   .     A
C703   C1491   1.414   1_554 S
C703   O1530   1.384   1_554 S
C705   O759    1.383   .     S
C706   O751    1.415   .     S
C706   H739    1.109   .     S
C706   H720    1.110   .     S
C706   H731    1.116   .     S
C707   O752    1.414   .     S
C707   H742    1.101   .     S
C707   H568    1.112   1_655 S
C707   H569    1.113   1_655 S
C708   O755    1.412   .     S
C708   H722    1.109   .     S
C708   H721    1.115   .     S
C708   H745    1.113   .     S
C709   H724    1.109   .     S
C709   O756    1.413   .     S
C709   H723    1.115   .     S
C709   H1499   1.108   .     S
C710   H726    1.109   .     S
C710   H728    1.109   .     S
C710   H727    1.112   .     S
C710   O758    1.413   .     S
C711   O760    1.381   .     S
C711   C1474   1.401   1_554 S
C711   C1488   1.413   1_554 S
C712   H733    1.112   .     S
C712   H735    1.109   .     S
C712   H734    1.114   .     S
C712   O762    1.410   .     S
C713   H738    1.105   .     S
C713   O763    1.411   .     S
C713   H737    1.112   .     S
C714   C715    1.416   .     A
C714   C1485   1.413   .     S
C714   C1490   1.422   .     S
C715   C719    1.419   .     A
C716   C1488   1.422   1_554 S
C716   C1491   1.416   1_554 S
C717   C718    1.406   .     A
C717   C1490   1.416   .     S
C717   C1477   1.414   .     S
C718   C719    1.402   .     A
C718   O755    1.379   .     S
C719   O762    1.385   .     S
H725   C1483   1.108   1_554 S
H729   O759    0.991   .     S
H730   O760    0.990   .     S
H732   O761    0.991   .     S
H736   C541    1.112   1_655 S
H743   O237    0.990   1_565 S
O746   Zn774   1.943   .     S
O746   Zn772   1.951   .     S
O746   Zn773   1.952   .     S
O746   Zn771   1.959   .     S
O747   Zn772   1.946   .     S
O748   Zn774   1.950   .     S
O749   Zn773   1.945   .     S
O750   Zn771   1.942   .     S
O752   C523    1.401   1_655 S
O754   H228    0.993   1_565 S
O754   C181    1.385   1_565 S
O756   C1477   1.384   .     S
O757   Zn771   1.935   .     S
O761   C1474   1.382   1_554 S
O764   Zn774   1.939   .     S
O765   Zn772   1.937   .     S
O766   Zn773   1.942   .     S
O767   Zn774   1.941   .     S
O768   Zn771   1.938   .     S
O769   Zn772   1.939   .     S
O770   Zn773   1.934   .     S
C775   O851    1.271   .     A
C775   O853    1.270   .     A
C775   C781    1.445   .     S
C776   C790    1.413   .     A
C776   O844    1.398   .     S
C776   C802    1.408   .     A
C777   C789    1.401   .     A
C777   O837    1.389   .     S
C777   C790    1.412   .     A
C778   O854    1.275   .     A
C778   C780    1.462   .     S
C778   O852    1.290   .     A
C779   C791    1.420   .     A
C779   C801    1.428   .     A
C779   C788    1.490   .     S
C780   C867    1.354   .     S
C780   O935    1.387   .     S
C781   C952    1.354   1_455 S
C781   O1010   1.401   1_455 S
C782   C785    1.469   .     S
C782   C1041   1.346   .     S
C782   O1097   1.388   .     S
C783   C784    1.438   .     S
C783   C1298   1.346   1_545 S
C783   O1356   1.385   1_545 S
C784   O855    1.276   .     A
C784   O843    1.275   .     A
C785   O850    1.279   .     A
C785   O856    1.282   .     A
C786   C791    1.412   .     A
C786   C23     1.401   1_556 S
C786   O73     1.382   1_556 S
C787   O835    1.275   .     A
C787   O833    1.277   .     A
C787   C790    1.445   .     S
C788   O834    1.287   .     A
C788   O836    1.288   .     A
C791   O845    1.383   .     S
C792   O837    1.415   .     S
C792   H825    1.109   .     S
C792   H806    1.110   .     S
C792   H817    1.116   .     S
C793   O838    1.414   .     S
C793   H828    1.101   .     S
C793   H912    1.112   .     S
C793   H913    1.113   .     S
C794   O841    1.412   .     S
C794   H808    1.109   .     S
C794   H807    1.115   .     S
C794   H831    1.113   .     S
C795   H810    1.109   .     S
C795   O842    1.413   .     S
C795   H809    1.115   .     S
C795   H37     1.108   1_556 S
C796   H812    1.109   .     S
C796   H814    1.109   .     S
C796   H813    1.112   .     S
C796   O844    1.413   .     S
C797   O846    1.381   .     S
C798   H819    1.112   .     S
C798   H821    1.109   .     S
C798   H820    1.114   .     S
C798   O848    1.410   .     S
C799   H824    1.105   .     S
C799   O849    1.411   .     S
C799   H823    1.112   .     S
C799   H994    1.112   1_455 S
C800   C801    1.416   .     A
C800   C23     1.413   1_556 S
C800   C28     1.422   1_556 S
C801   C805    1.419   .     A
C803   C804    1.406   .     A
C803   C28     1.416   1_556 S
C803   C15     1.414   1_556 S
C804   C805    1.402   .     A
C804   O841    1.379   .     S
C805   O848    1.385   .     S
H815   O845    0.991   .     S
H816   O846    0.990   .     S
H818   O847    0.991   .     S
H822   C885    1.112   .     S
H826   C965    1.112   1_455 S
H827   C965    1.113   1_455 S
H829   O1097   0.990   .     S
H830   O1356   0.993   1_545 S
O832   Zn860   1.943   .     S
O832   Zn858   1.951   .     S
O832   Zn859   1.952   .     S
O832   Zn857   1.959   .     S
O833   Zn858   1.946   .     S
O834   Zn860   1.950   .     S
O835   Zn859   1.945   .     S
O836   Zn857   1.942   .     S
O838   C867    1.401   .     S
O839   H1345   0.990   1_545 S
O839   C1298   1.388   1_545 S
O840   H1088   0.993   .     S
O840   C1041   1.385   .     S
O842   C15     1.384   1_556 S
O843   Zn857   1.935   .     S
O849   C952    1.387   1_455 S
O850   Zn860   1.939   .     S
O851   Zn858   1.937   .     S
O852   Zn859   1.942   .     S
O853   Zn860   1.941   .     S
O854   Zn857   1.938   .     S
O855   Zn858   1.939   .     S
O856   Zn859   1.934   .     S
C861   O937    1.271   .     A
C861   O939    1.270   .     A
C861   C867    1.445   .     S
C862   C876    1.413   .     A
C862   O930    1.398   .     S
C862   C888    1.408   .     A
C863   C875    1.401   .     A
C863   O923    1.389   .     S
C863   C876    1.412   .     A
C864   O940    1.275   .     A
C864   C866    1.462   .     S
C864   O938    1.290   .     A
C865   C877    1.420   .     A
C865   C887    1.428   .     A
C865   C874    1.490   .     S
C866   C953    1.354   .     S
C866   O1021   1.387   .     S
C868   C871    1.469   .     S
C868   C1127   1.346   .     S
C868   O1183   1.388   .     S
C869   C870    1.438   .     S
C869   C1384   1.346   1_545 S
C869   O1442   1.385   1_545 S
C870   O941    1.276   .     A
C870   O929    1.275   .     A
C871   O936    1.279   .     A
C871   O942    1.282   .     A
C872   C877    1.412   .     A
C872   C109    1.401   1_556 S
C872   O159    1.382   1_556 S
C873   O921    1.275   .     A
C873   O919    1.277   .     A
C873   C876    1.445   .     S
C874   O920    1.287   .     A
C874   O922    1.288   .     A
C877   O931    1.383   .     S
C878   O923    1.415   .     S
C878   H911    1.109   .     S
C878   H892    1.110   .     S
C878   H903    1.116   .     S
C879   O924    1.414   .     S
C879   H914    1.101   .     S
C879   H998    1.112   .     S
C879   H999    1.113   .     S
C880   O927    1.412   .     S
C880   H894    1.109   .     S
C880   H893    1.115   .     S
C880   H917    1.113   .     S
C881   H896    1.109   .     S
C881   O928    1.413   .     S
C881   H895    1.115   .     S
C881   H123    1.108   1_556 S
C882   H898    1.109   .     S
C882   H900    1.109   .     S
C882   H899    1.112   .     S
C882   O930    1.413   .     S
C883   O932    1.381   .     S
C884   H905    1.112   .     S
C884   H907    1.109   .     S
C884   H906    1.114   .     S
C884   O934    1.410   .     S
C885   H910    1.105   .     S
C885   O935    1.411   .     S
C885   H909    1.112   .     S
C886   C887    1.416   .     A
C886   C109    1.413   1_556 S
C886   C114    1.422   1_556 S
C887   C891    1.419   .     A
C889   C890    1.406   .     A
C889   C114    1.416   1_556 S
C889   C101    1.414   1_556 S
C890   C891    1.402   .     A
C890   O927    1.379   .     S
C891   O934    1.385   .     S
H901   O931    0.991   .     S
H902   O932    0.990   .     S
H904   O933    0.991   .     S
H908   C971    1.112   .     S
H915   O1183   0.990   .     S
H916   O1442   0.993   1_545 S
O918   Zn946   1.943   .     S
O918   Zn944   1.951   .     S
O918   Zn945   1.952   .     S
O918   Zn943   1.959   .     S
O919   Zn944   1.946   .     S
O920   Zn946   1.950   .     S
O921   Zn945   1.945   .     S
O922   Zn943   1.942   .     S
O924   C953    1.401   .     S
O925   H1431   0.990   1_545 S
O925   C1384   1.388   1_545 S
O926   H1174   0.993   .     S
O926   C1127   1.385   .     S
O928   C101    1.384   1_556 S
O929   Zn943   1.935   .     S
O936   Zn946   1.939   .     S
O937   Zn944   1.937   .     S
O938   Zn945   1.942   .     S
O939   Zn946   1.941   .     S
O940   Zn943   1.938   .     S
O941   Zn944   1.939   .     S
O942   Zn945   1.934   .     S
C947   O1023   1.271   .     A
C947   O1025   1.270   .     A
C947   C953    1.445   .     S
C948   C962    1.413   .     A
C948   O1016   1.398   .     S
C948   C974    1.408   .     A
C949   C961    1.401   .     A
C949   O1009   1.389   .     S
C949   C962    1.412   .     A
C950   O1026   1.275   .     A
C950   C952    1.462   .     S
C950   O1024   1.290   .     A
C951   C963    1.420   .     A
C951   C973    1.428   .     A
C951   C960    1.490   .     S
C952   C781    1.354   1_655 S
C952   O849    1.387   1_655 S
C954   C957    1.469   .     S
C954   C1213   1.346   .     S
C954   O1269   1.388   .     S
C955   C956    1.438   .     S
C955   C1470   1.346   1_545 S
C955   O1528   1.385   1_545 S
C956   O1027   1.276   .     A
C956   O1015   1.275   .     A
C957   O1022   1.279   .     A
C957   O1028   1.282   .     A
C958   C963    1.412   .     A
C958   C195    1.401   1_556 S
C958   O245    1.382   1_556 S
C959   O1007   1.275   .     A
C959   O1005   1.277   .     A
C959   C962    1.445   .     S
C960   O1006   1.287   .     A
C960   O1008   1.288   .     A
C963   O1017   1.383   .     S
C964   O1009   1.415   .     S
C964   H997    1.109   .     S
C964   H978    1.110   .     S
C964   H989    1.116   .     S
C965   O1010   1.414   .     S
C965   H1000   1.101   .     S
C965   H826    1.112   1_655 S
C965   H827    1.113   1_655 S
C966   O1013   1.412   .     S
C966   H980    1.109   .     S
C966   H979    1.115   .     S
C966   H1003   1.113   .     S
C967   H982    1.109   .     S
C967   O1014   1.413   .     S
C967   H981    1.115   .     S
C967   H209    1.108   1_556 S
C968   H984    1.109   .     S
C968   H986    1.109   .     S
C968   H985    1.112   .     S
C968   O1016   1.413   .     S
C969   O1018   1.381   .     S
C970   H991    1.112   .     S
C970   H993    1.109   .     S
C970   H992    1.114   .     S
C970   O1020   1.410   .     S
C971   H996    1.105   .     S
C971   O1021   1.411   .     S
C971   H995    1.112   .     S
C972   C973    1.416   .     A
C972   C195    1.413   1_556 S
C972   C200    1.422   1_556 S
C973   C977    1.419   .     A
C975   C976    1.406   .     A
C975   C200    1.416   1_556 S
C975   C187    1.414   1_556 S
C976   C977    1.402   .     A
C976   O1013   1.379   .     S
C977   O1020   1.385   .     S
H987   O1017   0.991   .     S
H988   O1018   0.990   .     S
H990   O1019   0.991   .     S
H994   C799    1.112   1_655 S
H1001  O1269   0.990   .     S
H1002  O1528   0.993   1_545 S
O1004  Zn1032  1.943   .     S
O1004  Zn1030  1.951   .     S
O1004  Zn1031  1.952   .     S
O1004  Zn1029  1.959   .     S
O1005  Zn1030  1.946   .     S
O1006  Zn1032  1.950   .     S
O1007  Zn1031  1.945   .     S
O1008  Zn1029  1.942   .     S
O1010  C781    1.401   1_655 S
O1011  H1517   0.990   1_545 S
O1011  C1470   1.388   1_545 S
O1012  H1260   0.993   .     S
O1012  C1213   1.385   .     S
O1014  C187    1.384   1_556 S
O1015  Zn1029  1.935   .     S
O1022  Zn1032  1.939   .     S
O1023  Zn1030  1.937   .     S
O1024  Zn1031  1.942   .     S
O1025  Zn1032  1.941   .     S
O1026  Zn1029  1.938   .     S
O1027  Zn1030  1.939   .     S
O1028  Zn1031  1.934   .     S
C1033  O1109   1.271   .     A
C1033  O1111   1.270   .     A
C1033  C1039   1.445   .     S
C1034  C1048   1.413   .     A
C1034  O1102   1.398   .     S
C1034  C1060   1.408   .     A
C1035  C1047   1.401   .     A
C1035  O1095   1.389   .     S
C1035  C1048   1.412   .     A
C1036  O1112   1.275   .     A
C1036  C1038   1.462   .     S
C1036  O1110   1.290   .     A
C1037  C1049   1.420   .     A
C1037  C1059   1.428   .     A
C1037  C1046   1.490   .     S
C1038  C1125   1.354   .     S
C1038  O1193   1.387   .     S
C1039  C1210   1.354   1_455 S
C1039  O1268   1.401   1_455 S
C1040  C1043   1.469   .     S
C1040  C1299   1.346   .     S
C1040  O1355   1.388   .     S
C1041  C1042   1.438   .     S
C1042  O1113   1.276   .     A
C1042  O1101   1.275   .     A
C1043  O1108   1.279   .     A
C1043  O1114   1.282   .     A
C1044  C1049   1.412   .     A
C1044  C281    1.401   1_556 S
C1044  O331    1.382   1_556 S
C1045  O1093   1.275   .     A
C1045  O1091   1.277   .     A
C1045  C1048   1.445   .     S
C1046  O1092   1.287   .     A
C1046  O1094   1.288   .     A
C1049  O1103   1.383   .     S
C1050  O1095   1.415   .     S
C1050  H1083   1.109   .     S
C1050  H1064   1.110   .     S
C1050  H1075   1.116   .     S
C1051  O1096   1.414   .     S
C1051  H1086   1.101   .     S
C1051  H1170   1.112   .     S
C1051  H1171   1.113   .     S
C1052  O1099   1.412   .     S
C1052  H1066   1.109   .     S
C1052  H1065   1.115   .     S
C1052  H1089   1.113   .     S
C1053  H1068   1.109   .     S
C1053  O1100   1.413   .     S
C1053  H1067   1.115   .     S
C1053  H295    1.108   1_556 S
C1054  H1070   1.109   .     S
C1054  H1072   1.109   .     S
C1054  H1071   1.112   .     S
C1054  O1102   1.413   .     S
C1055  O1104   1.381   .     S
C1056  H1077   1.112   .     S
C1056  H1079   1.109   .     S
C1056  H1078   1.114   .     S
C1056  O1106   1.410   .     S
C1057  H1082   1.105   .     S
C1057  O1107   1.411   .     S
C1057  H1081   1.112   .     S
C1057  H1252   1.112   1_455 S
C1058  C1059   1.416   .     A
C1058  C281    1.413   1_556 S
C1058  C286    1.422   1_556 S
C1059  C1063   1.419   .     A
C1061  C1062   1.406   .     A
C1061  C286    1.416   1_556 S
C1061  C273    1.414   1_556 S
C1062  C1063   1.402   .     A
C1062  O1099   1.379   .     S
C1063  O1106   1.385   .     S
H1073  O1103   0.991   .     S
H1074  O1104   0.990   .     S
H1076  O1105   0.991   .     S
H1080  C1143   1.112   .     S
H1084  C1223   1.112   1_455 S
H1085  C1223   1.113   1_455 S
H1087  O1355   0.990   .     S
O1090  Zn1118  1.943   .     S
O1090  Zn1116  1.951   .     S
O1090  Zn1117  1.952   .     S
O1090  Zn1115  1.959   .     S
O1091  Zn1116  1.946   .     S
O1092  Zn1118  1.950   .     S
O1093  Zn1117  1.945   .     S
O1094  Zn1115  1.942   .     S
O1096  C1125   1.401   .     S
O1098  H1346   0.993   .     S
O1098  C1299   1.385   .     S
O1100  C273    1.384   1_556 S
O1101  Zn1115  1.935   .     S
O1107  C1210   1.387   1_455 S
O1108  Zn1118  1.939   .     S
O1109  Zn1116  1.937   .     S
O1110  Zn1117  1.942   .     S
O1111  Zn1118  1.941   .     S
O1112  Zn1115  1.938   .     S
O1113  Zn1116  1.939   .     S
O1114  Zn1117  1.934   .     S
C1119  O1195   1.271   .     A
C1119  O1197   1.270   .     A
C1119  C1125   1.445   .     S
C1120  C1134   1.413   .     A
C1120  O1188   1.398   .     S
C1120  C1146   1.408   .     A
C1121  C1133   1.401   .     A
C1121  O1181   1.389   .     S
C1121  C1134   1.412   .     A
C1122  O1198   1.275   .     A
C1122  C1124   1.462   .     S
C1122  O1196   1.290   .     A
C1123  C1135   1.420   .     A
C1123  C1145   1.428   .     A
C1123  C1132   1.490   .     S
C1124  C1211   1.354   .     S
C1124  O1279   1.387   .     S
C1126  C1129   1.469   .     S
C1126  C1385   1.346   .     S
C1126  O1441   1.388   .     S
C1127  C1128   1.438   .     S
C1128  O1199   1.276   .     A
C1128  O1187   1.275   .     A
C1129  O1194   1.279   .     A
C1129  O1200   1.282   .     A
C1130  C1135   1.412   .     A
C1130  C367    1.401   1_556 S
C1130  O417    1.382   1_556 S
C1131  O1179   1.275   .     A
C1131  O1177   1.277   .     A
C1131  C1134   1.445   .     S
C1132  O1178   1.287   .     A
C1132  O1180   1.288   .     A
C1135  O1189   1.383   .     S
C1136  O1181   1.415   .     S
C1136  H1169   1.109   .     S
C1136  H1150   1.110   .     S
C1136  H1161   1.116   .     S
C1137  O1182   1.414   .     S
C1137  H1172   1.101   .     S
C1137  H1256   1.112   .     S
C1137  H1257   1.113   .     S
C1138  O1185   1.412   .     S
C1138  H1152   1.109   .     S
C1138  H1151   1.115   .     S
C1138  H1175   1.113   .     S
C1139  H1154   1.109   .     S
C1139  O1186   1.413   .     S
C1139  H1153   1.115   .     S
C1139  H381    1.108   1_556 S
C1140  H1156   1.109   .     S
C1140  H1158   1.109   .     S
C1140  H1157   1.112   .     S
C1140  O1188   1.413   .     S
C1141  O1190   1.381   .     S
C1142  H1163   1.112   .     S
C1142  H1165   1.109   .     S
C1142  H1164   1.114   .     S
C1142  O1192   1.410   .     S
C1143  H1168   1.105   .     S
C1143  O1193   1.411   .     S
C1143  H1167   1.112   .     S
C1144  C1145   1.416   .     A
C1144  C367    1.413   1_556 S
C1144  C372    1.422   1_556 S
C1145  C1149   1.419   .     A
C1147  C1148   1.406   .     A
C1147  C372    1.416   1_556 S
C1147  C359    1.414   1_556 S
C1148  C1149   1.402   .     A
C1148  O1185   1.379   .     S
C1149  O1192   1.385   .     S
H1159  O1189   0.991   .     S
H1160  O1190   0.990   .     S
H1162  O1191   0.991   .     S
H1166  C1229   1.112   .     S
H1173  O1441   0.990   .     S
O1176  Zn1204  1.943   .     S
O1176  Zn1202  1.951   .     S
O1176  Zn1203  1.952   .     S
O1176  Zn1201  1.959   .     S
O1177  Zn1202  1.946   .     S
O1178  Zn1204  1.950   .     S
O1179  Zn1203  1.945   .     S
O1180  Zn1201  1.942   .     S
O1182  C1211   1.401   .     S
O1184  H1432   0.993   .     S
O1184  C1385   1.385   .     S
O1186  C359    1.384   1_556 S
O1187  Zn1201  1.935   .     S
O1194  Zn1204  1.939   .     S
O1195  Zn1202  1.937   .     S
O1196  Zn1203  1.942   .     S
O1197  Zn1204  1.941   .     S
O1198  Zn1201  1.938   .     S
O1199  Zn1202  1.939   .     S
O1200  Zn1203  1.934   .     S
C1205  O1281   1.271   .     A
C1205  O1283   1.270   .     A
C1205  C1211   1.445   .     S
C1206  C1220   1.413   .     A
C1206  O1274   1.398   .     S
C1206  C1232   1.408   .     A
C1207  C1219   1.401   .     A
C1207  O1267   1.389   .     S
C1207  C1220   1.412   .     A
C1208  O1284   1.275   .     A
C1208  C1210   1.462   .     S
C1208  O1282   1.290   .     A
C1209  C1221   1.420   .     A
C1209  C1231   1.428   .     A
C1209  C1218   1.490   .     S
C1210  C1039   1.354   1_655 S
C1210  O1107   1.387   1_655 S
C1212  C1215   1.469   .     S
C1212  C1471   1.346   .     S
C1212  O1527   1.388   .     S
C1213  C1214   1.438   .     S
C1214  O1285   1.276   .     A
C1214  O1273   1.275   .     A
C1215  O1280   1.279   .     A
C1215  O1286   1.282   .     A
C1216  C1221   1.412   .     A
C1216  C453    1.401   1_556 S
C1216  O503    1.382   1_556 S
C1217  O1265   1.275   .     A
C1217  O1263   1.277   .     A
C1217  C1220   1.445   .     S
C1218  O1264   1.287   .     A
C1218  O1266   1.288   .     A
C1221  O1275   1.383   .     S
C1222  O1267   1.415   .     S
C1222  H1255   1.109   .     S
C1222  H1236   1.110   .     S
C1222  H1247   1.116   .     S
C1223  O1268   1.414   .     S
C1223  H1258   1.101   .     S
C1223  H1084   1.112   1_655 S
C1223  H1085   1.113   1_655 S
C1224  O1271   1.412   .     S
C1224  H1238   1.109   .     S
C1224  H1237   1.115   .     S
C1224  H1261   1.113   .     S
C1225  H1240   1.109   .     S
C1225  O1272   1.413   .     S
C1225  H1239   1.115   .     S
C1225  H467    1.108   1_556 S
C1226  H1242   1.109   .     S
C1226  H1244   1.109   .     S
C1226  H1243   1.112   .     S
C1226  O1274   1.413   .     S
C1227  O1276   1.381   .     S
C1228  H1249   1.112   .     S
C1228  H1251   1.109   .     S
C1228  H1250   1.114   .     S
C1228  O1278   1.410   .     S
C1229  H1254   1.105   .     S
C1229  O1279   1.411   .     S
C1229  H1253   1.112   .     S
C1230  C1231   1.416   .     A
C1230  C453    1.413   1_556 S
C1230  C458    1.422   1_556 S
C1231  C1235   1.419   .     A
C1233  C1234   1.406   .     A
C1233  C458    1.416   1_556 S
C1233  C445    1.414   1_556 S
C1234  C1235   1.402   .     A
C1234  O1271   1.379   .     S
C1235  O1278   1.385   .     S
H1245  O1275   0.991   .     S
H1246  O1276   0.990   .     S
H1248  O1277   0.991   .     S
H1252  C1057   1.112   1_655 S
H1259  O1527   0.990   .     S
O1262  Zn1290  1.943   .     S
O1262  Zn1288  1.951   .     S
O1262  Zn1289  1.952   .     S
O1262  Zn1287  1.959   .     S
O1263  Zn1288  1.946   .     S
O1264  Zn1290  1.950   .     S
O1265  Zn1289  1.945   .     S
O1266  Zn1287  1.942   .     S
O1268  C1039   1.401   1_655 S
O1270  H1518   0.993   .     S
O1270  C1471   1.385   .     S
O1272  C445    1.384   1_556 S
O1273  Zn1287  1.935   .     S
O1280  Zn1290  1.939   .     S
O1281  Zn1288  1.937   .     S
O1282  Zn1289  1.942   .     S
O1283  Zn1290  1.941   .     S
O1284  Zn1287  1.938   .     S
O1285  Zn1288  1.939   .     S
O1286  Zn1289  1.934   .     S
C1291  O1367   1.271   .     A
C1291  O1369   1.270   .     A
C1291  C1297   1.445   .     S
C1292  C1306   1.413   .     A
C1292  O1360   1.398   .     S
C1292  C1318   1.408   .     A
C1293  C1305   1.401   .     A
C1293  O1353   1.389   .     S
C1293  C1306   1.412   .     A
C1294  O1370   1.275   .     A
C1294  C1296   1.462   .     S
C1294  O1368   1.290   .     A
C1295  C1307   1.420   .     A
C1295  C1317   1.428   .     A
C1295  C1304   1.490   .     S
C1296  C1383   1.354   .     S
C1296  O1451   1.387   .     S
C1297  C1468   1.354   1_455 S
C1297  O1526   1.401   1_455 S
C1298  C1301   1.469   .     S
C1298  C783    1.346   1_565 S
C1298  O839    1.388   1_565 S
C1299  C1300   1.438   .     S
C1300  O1371   1.276   .     A
C1300  O1359   1.275   .     A
C1301  O1366   1.279   .     A
C1301  O1372   1.282   .     A
C1302  C1307   1.412   .     A
C1302  C539    1.401   1_556 S
C1302  O589    1.382   1_556 S
C1303  O1351   1.275   .     A
C1303  O1349   1.277   .     A
C1303  C1306   1.445   .     S
C1304  O1350   1.287   .     A
C1304  O1352   1.288   .     A
C1307  O1361   1.383   .     S
C1308  O1353   1.415   .     S
C1308  H1341   1.109   .     S
C1308  H1322   1.110   .     S
C1308  H1333   1.116   .     S
C1309  O1354   1.414   .     S
C1309  H1344   1.101   .     S
C1309  H1428   1.112   .     S
C1309  H1429   1.113   .     S
C1310  O1357   1.412   .     S
C1310  H1324   1.109   .     S
C1310  H1323   1.115   .     S
C1310  H1347   1.113   .     S
C1311  H1326   1.109   .     S
C1311  O1358   1.413   .     S
C1311  H1325   1.115   .     S
C1311  H553    1.108   1_556 S
C1312  H1328   1.109   .     S
C1312  H1330   1.109   .     S
C1312  H1329   1.112   .     S
C1312  O1360   1.413   .     S
C1313  O1362   1.381   .     S
C1314  H1335   1.112   .     S
C1314  H1337   1.109   .     S
C1314  H1336   1.114   .     S
C1314  O1364   1.410   .     S
C1315  H1340   1.105   .     S
C1315  O1365   1.411   .     S
C1315  H1339   1.112   .     S
C1315  H1510   1.112   1_455 S
C1316  C1317   1.416   .     A
C1316  C539    1.413   1_556 S
C1316  C544    1.422   1_556 S
C1317  C1321   1.419   .     A
C1319  C1320   1.406   .     A
C1319  C544    1.416   1_556 S
C1319  C531    1.414   1_556 S
C1320  C1321   1.402   .     A
C1320  O1357   1.379   .     S
C1321  O1364   1.385   .     S
H1331  O1361   0.991   .     S
H1332  O1362   0.990   .     S
H1334  O1363   0.991   .     S
H1338  C1401   1.112   .     S
H1342  C1481   1.112   1_455 S
H1343  C1481   1.113   1_455 S
H1345  O839    0.990   1_565 S
O1348  Zn1376  1.943   .     S
O1348  Zn1374  1.951   .     S
O1348  Zn1375  1.952   .     S
O1348  Zn1373  1.959   .     S
O1349  Zn1374  1.946   .     S
O1350  Zn1376  1.950   .     S
O1351  Zn1375  1.945   .     S
O1352  Zn1373  1.942   .     S
O1354  C1383   1.401   .     S
O1356  H830    0.993   1_565 S
O1356  C783    1.385   1_565 S
O1358  C531    1.384   1_556 S
O1359  Zn1373  1.935   .     S
O1365  C1468   1.387   1_455 S
O1366  Zn1376  1.939   .     S
O1367  Zn1374  1.937   .     S
O1368  Zn1375  1.942   .     S
O1369  Zn1376  1.941   .     S
O1370  Zn1373  1.938   .     S
O1371  Zn1374  1.939   .     S
O1372  Zn1375  1.934   .     S
C1377  O1453   1.271   .     A
C1377  O1455   1.270   .     A
C1377  C1383   1.445   .     S
C1378  C1392   1.413   .     A
C1378  O1446   1.398   .     S
C1378  C1404   1.408   .     A
C1379  C1391   1.401   .     A
C1379  O1439   1.389   .     S
C1379  C1392   1.412   .     A
C1380  O1456   1.275   .     A
C1380  C1382   1.462   .     S
C1380  O1454   1.290   .     A
C1381  C1393   1.420   .     A
C1381  C1403   1.428   .     A
C1381  C1390   1.490   .     S
C1382  C1469   1.354   .     S
C1382  O1537   1.387   .     S
C1384  C1387   1.469   .     S
C1384  C869    1.346   1_565 S
C1384  O925    1.388   1_565 S
C1385  C1386   1.438   .     S
C1386  O1457   1.276   .     A
C1386  O1445   1.275   .     A
C1387  O1452   1.279   .     A
C1387  O1458   1.282   .     A
C1388  C1393   1.412   .     A
C1388  C625    1.401   1_556 S
C1388  O675    1.382   1_556 S
C1389  O1437   1.275   .     A
C1389  O1435   1.277   .     A
C1389  C1392   1.445   .     S
C1390  O1436   1.287   .     A
C1390  O1438   1.288   .     A
C1393  O1447   1.383   .     S
C1394  O1439   1.415   .     S
C1394  H1427   1.109   .     S
C1394  H1408   1.110   .     S
C1394  H1419   1.116   .     S
C1395  O1440   1.414   .     S
C1395  H1430   1.101   .     S
C1395  H1514   1.112   .     S
C1395  H1515   1.113   .     S
C1396  O1443   1.412   .     S
C1396  H1410   1.109   .     S
C1396  H1409   1.115   .     S
C1396  H1433   1.113   .     S
C1397  H1412   1.109   .     S
C1397  O1444   1.413   .     S
C1397  H1411   1.115   .     S
C1397  H639    1.108   1_556 S
C1398  H1414   1.109   .     S
C1398  H1416   1.109   .     S
C1398  H1415   1.112   .     S
C1398  O1446   1.413   .     S
C1399  O1448   1.381   .     S
C1400  H1421   1.112   .     S
C1400  H1423   1.109   .     S
C1400  H1422   1.114   .     S
C1400  O1450   1.410   .     S
C1401  H1426   1.105   .     S
C1401  O1451   1.411   .     S
C1401  H1425   1.112   .     S
C1402  C1403   1.416   .     A
C1402  C625    1.413   1_556 S
C1402  C630    1.422   1_556 S
C1403  C1407   1.419   .     A
C1405  C1406   1.406   .     A
C1405  C630    1.416   1_556 S
C1405  C617    1.414   1_556 S
C1406  C1407   1.402   .     A
C1406  O1443   1.379   .     S
C1407  O1450   1.385   .     S
H1417  O1447   0.991   .     S
H1418  O1448   0.990   .     S
H1420  O1449   0.991   .     S
H1424  C1487   1.112   .     S
H1431  O925    0.990   1_565 S
O1434  Zn1462  1.943   .     S
O1434  Zn1460  1.951   .     S
O1434  Zn1461  1.952   .     S
O1434  Zn1459  1.959   .     S
O1435  Zn1460  1.946   .     S
O1436  Zn1462  1.950   .     S
O1437  Zn1461  1.945   .     S
O1438  Zn1459  1.942   .     S
O1440  C1469   1.401   .     S
O1442  H916    0.993   1_565 S
O1442  C869    1.385   1_565 S
O1444  C617    1.384   1_556 S
O1445  Zn1459  1.935   .     S
O1452  Zn1462  1.939   .     S
O1453  Zn1460  1.937   .     S
O1454  Zn1461  1.942   .     S
O1455  Zn1462  1.941   .     S
O1456  Zn1459  1.938   .     S
O1457  Zn1460  1.939   .     S
O1458  Zn1461  1.934   .     S
C1463  O1539   1.271   .     A
C1463  O1541   1.270   .     A
C1463  C1469   1.445   .     S
C1464  C1478   1.413   .     A
C1464  O1532   1.398   .     S
C1464  C1490   1.408   .     A
C1465  C1477   1.401   .     A
C1465  O1525   1.389   .     S
C1465  C1478   1.412   .     A
C1466  O1542   1.275   .     A
C1466  C1468   1.462   .     S
C1466  O1540   1.290   .     A
C1467  C1479   1.420   .     A
C1467  C1489   1.428   .     A
C1467  C1476   1.490   .     S
C1468  C1297   1.354   1_655 S
C1468  O1365   1.387   1_655 S
C1470  C1473   1.469   .     S
C1470  C955    1.346   1_565 S
C1470  O1011   1.388   1_565 S
C1471  C1472   1.438   .     S
C1472  O1543   1.276   .     A
C1472  O1531   1.275   .     A
C1473  O1538   1.279   .     A
C1473  O1544   1.282   .     A
C1474  C1479   1.412   .     A
C1474  C711    1.401   1_556 S
C1474  O761    1.382   1_556 S
C1475  O1523   1.275   .     A
C1475  O1521   1.277   .     A
C1475  C1478   1.445   .     S
C1476  O1522   1.287   .     A
C1476  O1524   1.288   .     A
C1479  O1533   1.383   .     S
C1480  O1525   1.415   .     S
C1480  H1513   1.109   .     S
C1480  H1494   1.110   .     S
C1480  H1505   1.116   .     S
C1481  O1526   1.414   .     S
C1481  H1516   1.101   .     S
C1481  H1342   1.112   1_655 S
C1481  H1343   1.113   1_655 S
C1482  O1529   1.412   .     S
C1482  H1496   1.109   .     S
C1482  H1495   1.115   .     S
C1482  H1519   1.113   .     S
C1483  H1498   1.109   .     S
C1483  O1530   1.413   .     S
C1483  H1497   1.115   .     S
C1483  H725    1.108   1_556 S
C1484  H1500   1.109   .     S
C1484  H1502   1.109   .     S
C1484  H1501   1.112   .     S
C1484  O1532   1.413   .     S
C1485  O1534   1.381   .     S
C1486  H1507   1.112   .     S
C1486  H1509   1.109   .     S
C1486  H1508   1.114   .     S
C1486  O1536   1.410   .     S
C1487  H1512   1.105   .     S
C1487  O1537   1.411   .     S
C1487  H1511   1.112   .     S
C1488  C1489   1.416   .     A
C1488  C711    1.413   1_556 S
C1488  C716    1.422   1_556 S
C1489  C1493   1.419   .     A
C1491  C1492   1.406   .     A
C1491  C716    1.416   1_556 S
C1491  C703    1.414   1_556 S
C1492  C1493   1.402   .     A
C1492  O1529   1.379   .     S
C1493  O1536   1.385   .     S
H1503  O1533   0.991   .     S
H1504  O1534   0.990   .     S
H1506  O1535   0.991   .     S
H1510  C1315   1.112   1_655 S
H1517  O1011   0.990   1_565 S
O1520  Zn1548  1.943   .     S
O1520  Zn1546  1.951   .     S
O1520  Zn1547  1.952   .     S
O1520  Zn1545  1.959   .     S
O1521  Zn1546  1.946   .     S
O1522  Zn1548  1.950   .     S
O1523  Zn1547  1.945   .     S
O1524  Zn1545  1.942   .     S
O1526  C1297   1.401   1_655 S
O1528  H1002   0.993   1_565 S
O1528  C955    1.385   1_565 S
O1530  C703    1.384   1_556 S
O1531  Zn1545  1.935   .     S
O1538  Zn1548  1.939   .     S
O1539  Zn1546  1.937   .     S
O1540  Zn1547  1.942   .     S
O1541  Zn1548  1.941   .     S
O1542  Zn1545  1.938   .     S
O1543  Zn1546  1.939   .     S
O1544  Zn1547  1.934   .     S
