data_str_m3_o1_o2_pcu_sym.20
_audit_creation_date              2020-01-03
_audit_creation_method            'Materials Studio'
_symmetry_space_group_name_H-M    'P1'
_symmetry_Int_Tables_number       1
_symmetry_cell_setting            triclinic
loop_
_symmetry_equiv_pos_as_xyz
  x,y,z
_cell_length_a                    32.0790
_cell_length_b                    29.5351
_cell_length_c                    29.9127
_cell_angle_alpha                 89.9429
_cell_angle_beta                  90.1247
_cell_angle_gamma                 89.9833
loop_
_atom_site_label
_atom_site_type_symbol
_atom_site_fract_x
_atom_site_fract_y
_atom_site_fract_z
_atom_site_U_iso_or_equiv
_atom_site_adp_type
_atom_site_occupancy
C1     C     0.08665   0.16667   0.24997   0.00000  Uiso   1.00
C2     C     0.31200   0.20533   0.26437   0.00000  Uiso   1.00
C3     C     0.31196   0.12799   0.23567   0.00000  Uiso   1.00
C4     C     0.02139   0.20533   0.26435   0.00000  Uiso   1.00
C5     C     0.20081   0.18411   0.04701   0.00000  Uiso   1.00
C6     C     0.20080   0.14923   0.45317   0.00000  Uiso   1.00
C7     C     0.13206   0.18404   0.45284   0.00000  Uiso   1.00
C8     C     0.13201   0.14946   0.04698   0.00000  Uiso   1.00
C9     C     0.20134   0.18418   0.09336   0.00000  Uiso   1.00
C10    C     0.20134   0.14912   0.40682   0.00000  Uiso   1.00
C11    C     0.13167   0.18412   0.40648   0.00000  Uiso   1.00
C12    C     0.24669   0.16666   0.25003   0.00000  Uiso   1.00
C13    C     0.13162   0.14934   0.09334   0.00000  Uiso   1.00
C14    C     0.16652   0.16673   0.11630   0.00000  Uiso   1.00
C15    C     0.16655   0.16662   0.38370   0.00000  Uiso   1.00
C16    C     0.16639   0.16677   0.02412   0.00000  Uiso   1.00
C17    C     0.16640   0.16666   0.47589   0.00000  Uiso   1.00
C18    C     0.29083   0.16665   0.25004   0.00000  Uiso   1.00
C19    C     0.04251   0.16668   0.24996   0.00000  Uiso   1.00
C20    C     0.23928   0.20191   0.11768   0.00000  Uiso   1.00
C21    C     0.23925   0.13127   0.38271   0.00000  Uiso   1.00
C22    C     0.09385   0.20199   0.38199   0.00000  Uiso   1.00
C23    C     0.16662   0.16669   0.16412   0.00000  Uiso   1.00
C24    C     0.09378   0.13154   0.11763   0.00000  Uiso   1.00
C25    C     0.16665   0.16665   0.33588   0.00000  Uiso   1.00
C26    C     0.19419   0.02394   0.27597   0.00000  Uiso   1.00
C27    C     0.13915   0.30939   0.22402   0.00000  Uiso   1.00
C28    C     0.13914   0.02401   0.22403   0.00000  Uiso   1.00
C29    C     0.19419   0.30932   0.27598   0.00000  Uiso   1.00
C30    C     0.02135   0.12802   0.23560   0.00000  Uiso   1.00
H31    H     0.22704   0.19773   0.02859   0.00000  Uiso   1.00
H32    H     0.25197   0.17529   0.14016   0.00000  Uiso   1.00
H33    H     0.26436   0.21198   0.09413   0.00000  Uiso   1.00
H34    H     0.23074   0.10103   0.36269   0.00000  Uiso   1.00
H35    H     0.25195   0.15780   0.36020   0.00000  Uiso   1.00
H36    H     0.26434   0.12122   0.40638   0.00000  Uiso   1.00
H37    H     0.08119   0.17544   0.35948   0.00000  Uiso   1.00
H38    H     0.06870   0.21210   0.40542   0.00000  Uiso   1.00
H39    H     0.10244   0.23219   0.36192   0.00000  Uiso   1.00
H40    H     0.08118   0.15808   0.14016   0.00000  Uiso   1.00
H41    H     0.06860   0.12155   0.09408   0.00000  Uiso   1.00
H42    H     0.22701   0.13555   0.47173   0.00000  Uiso   1.00
H43    H     0.10232   0.10127   0.13766   0.00000  Uiso   1.00
H44    H     0.03771   0.09816   0.22398   0.00000  Uiso   1.00
H45    H     0.29564   0.23520   0.27593   0.00000  Uiso   1.00
H46    H     0.29557   0.09811   0.22415   0.00000  Uiso   1.00
H47    H     0.03779   0.23519   0.27593   0.00000  Uiso   1.00
H48    H     0.10580   0.19775   0.47115   0.00000  Uiso   1.00
H49    H     0.10574   0.13583   0.02854   0.00000  Uiso   1.00
H50    H     0.21621   0.04207   0.29673   0.00000  Uiso   1.00
H51    H     0.11715   0.29125   0.20324   0.00000  Uiso   1.00
H52    H     0.11712   0.04220   0.20328   0.00000  Uiso   1.00
H53    H     0.21619   0.29112   0.29675   0.00000  Uiso   1.00
H54    H     0.23081   0.23211   0.13775   0.00000  Uiso   1.00
N55    N     0.16667   0.28573   0.25000   0.00000  Uiso   1.00
N56    N     0.16667   0.04760   0.25000   0.00000  Uiso   1.00
O57    O     0.10559   0.20487   0.25000   0.00000  Uiso   1.00
O58    O     0.22774   0.12846   0.25001   0.00000  Uiso   1.00
O59    O     0.22774   0.20487   0.25001   0.00000  Uiso   1.00
O60    O     0.10559   0.12846   0.25000   0.00000  Uiso   1.00
O61    O     0.16666   0.20489   0.18453   0.00000  Uiso   1.00
O62    O     0.16667   0.12845   0.31547   0.00000  Uiso   1.00
O63    O     0.16667   0.20489   0.31547   0.00000  Uiso   1.00
O64    O     0.16666   0.12845   0.18453   0.00000  Uiso   1.00
Zn65   Zn    0.16667   0.21771   0.25000   0.00000  Uiso   1.00
Zn66   Zn    0.16667   0.11563   0.25000   0.00000  Uiso   1.00
C67    C     0.41998   0.16667   0.24997   0.00000  Uiso   1.00
C68    C     0.64533   0.20533   0.26437   0.00000  Uiso   1.00
C69    C     0.64529   0.12799   0.23567   0.00000  Uiso   1.00
C70    C     0.35472   0.20533   0.26435   0.00000  Uiso   1.00
C71    C     0.53414   0.18411   0.04701   0.00000  Uiso   1.00
C72    C     0.53413   0.14923   0.45317   0.00000  Uiso   1.00
C73    C     0.46539   0.18404   0.45284   0.00000  Uiso   1.00
C74    C     0.46535   0.14946   0.04698   0.00000  Uiso   1.00
C75    C     0.53468   0.18418   0.09336   0.00000  Uiso   1.00
C76    C     0.53468   0.14912   0.40682   0.00000  Uiso   1.00
C77    C     0.46500   0.18412   0.40648   0.00000  Uiso   1.00
C78    C     0.58002   0.16666   0.25003   0.00000  Uiso   1.00
C79    C     0.46495   0.14934   0.09334   0.00000  Uiso   1.00
C80    C     0.49986   0.16673   0.11630   0.00000  Uiso   1.00
C81    C     0.49988   0.16662   0.38370   0.00000  Uiso   1.00
C82    C     0.49972   0.16677   0.02412   0.00000  Uiso   1.00
C83    C     0.49974   0.16666   0.47589   0.00000  Uiso   1.00
C84    C     0.62416   0.16665   0.25004   0.00000  Uiso   1.00
C85    C     0.37584   0.16668   0.24996   0.00000  Uiso   1.00
C86    C     0.57261   0.20191   0.11768   0.00000  Uiso   1.00
C87    C     0.57258   0.13127   0.38271   0.00000  Uiso   1.00
C88    C     0.42719   0.20199   0.38199   0.00000  Uiso   1.00
C89    C     0.49995   0.16669   0.16412   0.00000  Uiso   1.00
C90    C     0.42711   0.13154   0.11763   0.00000  Uiso   1.00
C91    C     0.49999   0.16665   0.33588   0.00000  Uiso   1.00
C92    C     0.52753   0.02394   0.27597   0.00000  Uiso   1.00
C93    C     0.47248   0.30939   0.22402   0.00000  Uiso   1.00
C94    C     0.47247   0.02401   0.22403   0.00000  Uiso   1.00
C95    C     0.52752   0.30932   0.27598   0.00000  Uiso   1.00
C96    C     0.35468   0.12802   0.23560   0.00000  Uiso   1.00
H97    H     0.56038   0.19773   0.02859   0.00000  Uiso   1.00
H98    H     0.58530   0.17529   0.14016   0.00000  Uiso   1.00
H99    H     0.59769   0.21198   0.09413   0.00000  Uiso   1.00
H100   H     0.56408   0.10103   0.36269   0.00000  Uiso   1.00
H101   H     0.58528   0.15780   0.36020   0.00000  Uiso   1.00
H102   H     0.59767   0.12122   0.40638   0.00000  Uiso   1.00
H103   H     0.41453   0.17544   0.35948   0.00000  Uiso   1.00
H104   H     0.40204   0.21210   0.40542   0.00000  Uiso   1.00
H105   H     0.43577   0.23219   0.36192   0.00000  Uiso   1.00
H106   H     0.41452   0.15808   0.14016   0.00000  Uiso   1.00
H107   H     0.40193   0.12155   0.09408   0.00000  Uiso   1.00
H108   H     0.56034   0.13555   0.47173   0.00000  Uiso   1.00
H109   H     0.43565   0.10127   0.13766   0.00000  Uiso   1.00
H110   H     0.37105   0.09816   0.22398   0.00000  Uiso   1.00
H111   H     0.62897   0.23520   0.27593   0.00000  Uiso   1.00
H112   H     0.62890   0.09811   0.22415   0.00000  Uiso   1.00
H113   H     0.37112   0.23519   0.27593   0.00000  Uiso   1.00
H114   H     0.43913   0.19775   0.47115   0.00000  Uiso   1.00
H115   H     0.43907   0.13583   0.02854   0.00000  Uiso   1.00
H116   H     0.54954   0.04207   0.29673   0.00000  Uiso   1.00
H117   H     0.45048   0.29125   0.20324   0.00000  Uiso   1.00
H118   H     0.45045   0.04220   0.20328   0.00000  Uiso   1.00
H119   H     0.54952   0.29112   0.29675   0.00000  Uiso   1.00
H120   H     0.56414   0.23211   0.13775   0.00000  Uiso   1.00
N121   N     0.50000   0.28573   0.25000   0.00000  Uiso   1.00
N122   N     0.50000   0.04760   0.25000   0.00000  Uiso   1.00
O123   O     0.43892   0.20487   0.25000   0.00000  Uiso   1.00
O124   O     0.56108   0.12846   0.25001   0.00000  Uiso   1.00
O125   O     0.56108   0.20487   0.25001   0.00000  Uiso   1.00
O126   O     0.43892   0.12846   0.25000   0.00000  Uiso   1.00
O127   O     0.50000   0.20489   0.18453   0.00000  Uiso   1.00
O128   O     0.50000   0.12845   0.31547   0.00000  Uiso   1.00
O129   O     0.50000   0.20489   0.31547   0.00000  Uiso   1.00
O130   O     0.50000   0.12845   0.18453   0.00000  Uiso   1.00
Zn131  Zn    0.50000   0.21771   0.25000   0.00000  Uiso   1.00
Zn132  Zn    0.50000   0.11563   0.25000   0.00000  Uiso   1.00
C133   C     0.75331   0.16667   0.24997   0.00000  Uiso   1.00
C134   C     0.97867   0.20533   0.26437   0.00000  Uiso   1.00
C135   C     0.97863   0.12799   0.23567   0.00000  Uiso   1.00
C136   C     0.68805   0.20533   0.26435   0.00000  Uiso   1.00
C137   C     0.86747   0.18411   0.04701   0.00000  Uiso   1.00
C138   C     0.86746   0.14923   0.45317   0.00000  Uiso   1.00
C139   C     0.79873   0.18404   0.45284   0.00000  Uiso   1.00
C140   C     0.79868   0.14946   0.04698   0.00000  Uiso   1.00
C141   C     0.86801   0.18418   0.09336   0.00000  Uiso   1.00
C142   C     0.86801   0.14912   0.40682   0.00000  Uiso   1.00
C143   C     0.79834   0.18412   0.40648   0.00000  Uiso   1.00
C144   C     0.91336   0.16666   0.25003   0.00000  Uiso   1.00
C145   C     0.79829   0.14934   0.09334   0.00000  Uiso   1.00
C146   C     0.83319   0.16673   0.11630   0.00000  Uiso   1.00
C147   C     0.83322   0.16662   0.38370   0.00000  Uiso   1.00
C148   C     0.83306   0.16677   0.02412   0.00000  Uiso   1.00
C149   C     0.83307   0.16666   0.47589   0.00000  Uiso   1.00
C150   C     0.95750   0.16665   0.25004   0.00000  Uiso   1.00
C151   C     0.70918   0.16668   0.24996   0.00000  Uiso   1.00
C152   C     0.90595   0.20191   0.11768   0.00000  Uiso   1.00
C153   C     0.90592   0.13127   0.38271   0.00000  Uiso   1.00
C154   C     0.76052   0.20199   0.38199   0.00000  Uiso   1.00
C155   C     0.83328   0.16669   0.16412   0.00000  Uiso   1.00
C156   C     0.76044   0.13154   0.11763   0.00000  Uiso   1.00
C157   C     0.83332   0.16665   0.33588   0.00000  Uiso   1.00
C158   C     0.86086   0.02394   0.27597   0.00000  Uiso   1.00
C159   C     0.80581   0.30939   0.22402   0.00000  Uiso   1.00
C160   C     0.80581   0.02401   0.22403   0.00000  Uiso   1.00
C161   C     0.86085   0.30932   0.27598   0.00000  Uiso   1.00
C162   C     0.68801   0.12802   0.23560   0.00000  Uiso   1.00
H163   H     0.89371   0.19773   0.02859   0.00000  Uiso   1.00
H164   H     0.91864   0.17529   0.14016   0.00000  Uiso   1.00
H165   H     0.93103   0.21198   0.09413   0.00000  Uiso   1.00
H166   H     0.89741   0.10103   0.36269   0.00000  Uiso   1.00
H167   H     0.91861   0.15780   0.36020   0.00000  Uiso   1.00
H168   H     0.93101   0.12122   0.40638   0.00000  Uiso   1.00
H169   H     0.74786   0.17544   0.35948   0.00000  Uiso   1.00
H170   H     0.73537   0.21210   0.40542   0.00000  Uiso   1.00
H171   H     0.76911   0.23219   0.36192   0.00000  Uiso   1.00
H172   H     0.74785   0.15808   0.14016   0.00000  Uiso   1.00
H173   H     0.73526   0.12155   0.09408   0.00000  Uiso   1.00
H174   H     0.89368   0.13555   0.47173   0.00000  Uiso   1.00
H175   H     0.76899   0.10127   0.13766   0.00000  Uiso   1.00
H176   H     0.70438   0.09816   0.22398   0.00000  Uiso   1.00
H177   H     0.96230   0.23520   0.27593   0.00000  Uiso   1.00
H178   H     0.96223   0.09811   0.22415   0.00000  Uiso   1.00
H179   H     0.70445   0.23519   0.27593   0.00000  Uiso   1.00
H180   H     0.77247   0.19775   0.47115   0.00000  Uiso   1.00
H181   H     0.77241   0.13583   0.02854   0.00000  Uiso   1.00
H182   H     0.88288   0.04207   0.29673   0.00000  Uiso   1.00
H183   H     0.78381   0.29125   0.20324   0.00000  Uiso   1.00
H184   H     0.78378   0.04220   0.20328   0.00000  Uiso   1.00
H185   H     0.88286   0.29112   0.29675   0.00000  Uiso   1.00
H186   H     0.89747   0.23211   0.13775   0.00000  Uiso   1.00
N187   N     0.83333   0.28573   0.25000   0.00000  Uiso   1.00
N188   N     0.83333   0.04760   0.25000   0.00000  Uiso   1.00
O189   O     0.77226   0.20487   0.25000   0.00000  Uiso   1.00
O190   O     0.89441   0.12846   0.25001   0.00000  Uiso   1.00
O191   O     0.89441   0.20487   0.25001   0.00000  Uiso   1.00
O192   O     0.77226   0.12846   0.25000   0.00000  Uiso   1.00
O193   O     0.83333   0.20489   0.18453   0.00000  Uiso   1.00
O194   O     0.83334   0.12845   0.31547   0.00000  Uiso   1.00
O195   O     0.83334   0.20489   0.31547   0.00000  Uiso   1.00
O196   O     0.83333   0.12845   0.18453   0.00000  Uiso   1.00
Zn197  Zn    0.83333   0.21771   0.25000   0.00000  Uiso   1.00
Zn198  Zn    0.83333   0.11563   0.25000   0.00000  Uiso   1.00
C199   C     0.08665   0.50001   0.24997   0.00000  Uiso   1.00
C200   C     0.31200   0.53866   0.26437   0.00000  Uiso   1.00
C201   C     0.31196   0.46132   0.23567   0.00000  Uiso   1.00
C202   C     0.02139   0.53867   0.26435   0.00000  Uiso   1.00
C203   C     0.20081   0.51744   0.04701   0.00000  Uiso   1.00
C204   C     0.20080   0.48256   0.45317   0.00000  Uiso   1.00
C205   C     0.13206   0.51737   0.45284   0.00000  Uiso   1.00
C206   C     0.13201   0.48280   0.04698   0.00000  Uiso   1.00
C207   C     0.20134   0.51751   0.09336   0.00000  Uiso   1.00
C208   C     0.20134   0.48245   0.40682   0.00000  Uiso   1.00
C209   C     0.13167   0.51746   0.40648   0.00000  Uiso   1.00
C210   C     0.24669   0.49999   0.25003   0.00000  Uiso   1.00
C211   C     0.13162   0.48267   0.09334   0.00000  Uiso   1.00
C212   C     0.16652   0.50007   0.11630   0.00000  Uiso   1.00
C213   C     0.16655   0.49995   0.38370   0.00000  Uiso   1.00
C214   C     0.16639   0.50010   0.02412   0.00000  Uiso   1.00
C215   C     0.16640   0.50000   0.47589   0.00000  Uiso   1.00
C216   C     0.29083   0.49999   0.25004   0.00000  Uiso   1.00
C217   C     0.04251   0.50001   0.24996   0.00000  Uiso   1.00
C218   C     0.23928   0.53524   0.11768   0.00000  Uiso   1.00
C219   C     0.23925   0.46460   0.38271   0.00000  Uiso   1.00
C220   C     0.09385   0.53533   0.38199   0.00000  Uiso   1.00
C221   C     0.16662   0.50002   0.16412   0.00000  Uiso   1.00
C222   C     0.09378   0.46487   0.11763   0.00000  Uiso   1.00
C223   C     0.16665   0.49998   0.33588   0.00000  Uiso   1.00
C224   C     0.19419   0.35728   0.27597   0.00000  Uiso   1.00
C225   C     0.13915   0.64272   0.22402   0.00000  Uiso   1.00
C226   C     0.13914   0.35735   0.22403   0.00000  Uiso   1.00
C227   C     0.19419   0.64265   0.27598   0.00000  Uiso   1.00
C228   C     0.02135   0.46135   0.23560   0.00000  Uiso   1.00
H229   H     0.22704   0.53107   0.02859   0.00000  Uiso   1.00
H230   H     0.25197   0.50862   0.14016   0.00000  Uiso   1.00
H231   H     0.26436   0.54531   0.09413   0.00000  Uiso   1.00
H232   H     0.23074   0.43436   0.36269   0.00000  Uiso   1.00
H233   H     0.25195   0.49114   0.36020   0.00000  Uiso   1.00
H234   H     0.26434   0.45456   0.40638   0.00000  Uiso   1.00
H235   H     0.08119   0.50877   0.35948   0.00000  Uiso   1.00
H236   H     0.06870   0.54544   0.40542   0.00000  Uiso   1.00
H237   H     0.10244   0.56553   0.36192   0.00000  Uiso   1.00
H238   H     0.08118   0.49141   0.14016   0.00000  Uiso   1.00
H239   H     0.06860   0.45488   0.09408   0.00000  Uiso   1.00
H240   H     0.22701   0.46888   0.47173   0.00000  Uiso   1.00
H241   H     0.10232   0.43461   0.13766   0.00000  Uiso   1.00
H242   H     0.03771   0.43150   0.22398   0.00000  Uiso   1.00
H243   H     0.29564   0.56854   0.27593   0.00000  Uiso   1.00
H244   H     0.29557   0.43144   0.22415   0.00000  Uiso   1.00
H245   H     0.03779   0.56853   0.27593   0.00000  Uiso   1.00
H246   H     0.10580   0.53108   0.47115   0.00000  Uiso   1.00
H247   H     0.10574   0.46916   0.02854   0.00000  Uiso   1.00
H248   H     0.21621   0.37541   0.29673   0.00000  Uiso   1.00
H249   H     0.11715   0.62459   0.20324   0.00000  Uiso   1.00
H250   H     0.11712   0.37553   0.20328   0.00000  Uiso   1.00
H251   H     0.21619   0.62446   0.29675   0.00000  Uiso   1.00
H252   H     0.23081   0.56544   0.13775   0.00000  Uiso   1.00
N253   N     0.16667   0.61907   0.25000   0.00000  Uiso   1.00
N254   N     0.16667   0.38093   0.25000   0.00000  Uiso   1.00
O255   O     0.10559   0.53821   0.25000   0.00000  Uiso   1.00
O256   O     0.22774   0.46179   0.25001   0.00000  Uiso   1.00
O257   O     0.22774   0.53821   0.25001   0.00000  Uiso   1.00
O258   O     0.10559   0.46179   0.25000   0.00000  Uiso   1.00
O259   O     0.16666   0.53822   0.18453   0.00000  Uiso   1.00
O260   O     0.16667   0.46178   0.31547   0.00000  Uiso   1.00
O261   O     0.16667   0.53822   0.31547   0.00000  Uiso   1.00
O262   O     0.16666   0.46178   0.18453   0.00000  Uiso   1.00
Zn263  Zn    0.16667   0.55104   0.25000   0.00000  Uiso   1.00
Zn264  Zn    0.16667   0.44896   0.25000   0.00000  Uiso   1.00
C265   C     0.41998   0.50001   0.24997   0.00000  Uiso   1.00
C266   C     0.64533   0.53866   0.26437   0.00000  Uiso   1.00
C267   C     0.64529   0.46132   0.23567   0.00000  Uiso   1.00
C268   C     0.35472   0.53867   0.26435   0.00000  Uiso   1.00
C269   C     0.53414   0.51744   0.04701   0.00000  Uiso   1.00
C270   C     0.53413   0.48256   0.45317   0.00000  Uiso   1.00
C271   C     0.46539   0.51737   0.45284   0.00000  Uiso   1.00
C272   C     0.46535   0.48280   0.04698   0.00000  Uiso   1.00
C273   C     0.53468   0.51751   0.09336   0.00000  Uiso   1.00
C274   C     0.53468   0.48245   0.40682   0.00000  Uiso   1.00
C275   C     0.46500   0.51746   0.40648   0.00000  Uiso   1.00
C276   C     0.58002   0.49999   0.25003   0.00000  Uiso   1.00
C277   C     0.46495   0.48267   0.09334   0.00000  Uiso   1.00
C278   C     0.49986   0.50007   0.11630   0.00000  Uiso   1.00
C279   C     0.49988   0.49995   0.38370   0.00000  Uiso   1.00
C280   C     0.49972   0.50010   0.02412   0.00000  Uiso   1.00
C281   C     0.49974   0.50000   0.47589   0.00000  Uiso   1.00
C282   C     0.62416   0.49999   0.25004   0.00000  Uiso   1.00
C283   C     0.37584   0.50001   0.24996   0.00000  Uiso   1.00
C284   C     0.57261   0.53524   0.11768   0.00000  Uiso   1.00
C285   C     0.57258   0.46460   0.38271   0.00000  Uiso   1.00
C286   C     0.42719   0.53533   0.38199   0.00000  Uiso   1.00
C287   C     0.49995   0.50002   0.16412   0.00000  Uiso   1.00
C288   C     0.42711   0.46487   0.11763   0.00000  Uiso   1.00
C289   C     0.49999   0.49998   0.33588   0.00000  Uiso   1.00
C290   C     0.52753   0.35728   0.27597   0.00000  Uiso   1.00
C291   C     0.47248   0.64272   0.22402   0.00000  Uiso   1.00
C292   C     0.47247   0.35735   0.22403   0.00000  Uiso   1.00
C293   C     0.52752   0.64265   0.27598   0.00000  Uiso   1.00
C294   C     0.35468   0.46135   0.23560   0.00000  Uiso   1.00
H295   H     0.56038   0.53107   0.02859   0.00000  Uiso   1.00
H296   H     0.58530   0.50862   0.14016   0.00000  Uiso   1.00
H297   H     0.59769   0.54531   0.09413   0.00000  Uiso   1.00
H298   H     0.56408   0.43436   0.36269   0.00000  Uiso   1.00
H299   H     0.58528   0.49114   0.36020   0.00000  Uiso   1.00
H300   H     0.59767   0.45456   0.40638   0.00000  Uiso   1.00
H301   H     0.41453   0.50877   0.35948   0.00000  Uiso   1.00
H302   H     0.40204   0.54544   0.40542   0.00000  Uiso   1.00
H303   H     0.43577   0.56553   0.36192   0.00000  Uiso   1.00
H304   H     0.41452   0.49141   0.14016   0.00000  Uiso   1.00
H305   H     0.40193   0.45488   0.09408   0.00000  Uiso   1.00
H306   H     0.56034   0.46888   0.47173   0.00000  Uiso   1.00
H307   H     0.43565   0.43461   0.13766   0.00000  Uiso   1.00
H308   H     0.37105   0.43150   0.22398   0.00000  Uiso   1.00
H309   H     0.62897   0.56854   0.27593   0.00000  Uiso   1.00
H310   H     0.62890   0.43144   0.22415   0.00000  Uiso   1.00
H311   H     0.37112   0.56853   0.27593   0.00000  Uiso   1.00
H312   H     0.43913   0.53108   0.47115   0.00000  Uiso   1.00
H313   H     0.43907   0.46916   0.02854   0.00000  Uiso   1.00
H314   H     0.54954   0.37541   0.29673   0.00000  Uiso   1.00
H315   H     0.45048   0.62459   0.20324   0.00000  Uiso   1.00
H316   H     0.45045   0.37553   0.20328   0.00000  Uiso   1.00
H317   H     0.54952   0.62446   0.29675   0.00000  Uiso   1.00
H318   H     0.56414   0.56544   0.13775   0.00000  Uiso   1.00
N319   N     0.50000   0.61907   0.25000   0.00000  Uiso   1.00
N320   N     0.50000   0.38093   0.25000   0.00000  Uiso   1.00
O321   O     0.43892   0.53821   0.25000   0.00000  Uiso   1.00
O322   O     0.56108   0.46179   0.25001   0.00000  Uiso   1.00
O323   O     0.56108   0.53821   0.25001   0.00000  Uiso   1.00
O324   O     0.43892   0.46179   0.25000   0.00000  Uiso   1.00
O325   O     0.50000   0.53822   0.18453   0.00000  Uiso   1.00
O326   O     0.50000   0.46178   0.31547   0.00000  Uiso   1.00
O327   O     0.50000   0.53822   0.31547   0.00000  Uiso   1.00
O328   O     0.50000   0.46178   0.18453   0.00000  Uiso   1.00
Zn329  Zn    0.50000   0.55104   0.25000   0.00000  Uiso   1.00
Zn330  Zn    0.50000   0.44896   0.25000   0.00000  Uiso   1.00
C331   C     0.75331   0.50001   0.24997   0.00000  Uiso   1.00
C332   C     0.97867   0.53866   0.26437   0.00000  Uiso   1.00
C333   C     0.97863   0.46132   0.23567   0.00000  Uiso   1.00
C334   C     0.68805   0.53867   0.26435   0.00000  Uiso   1.00
C335   C     0.86747   0.51744   0.04701   0.00000  Uiso   1.00
C336   C     0.86746   0.48256   0.45317   0.00000  Uiso   1.00
C337   C     0.79873   0.51737   0.45284   0.00000  Uiso   1.00
C338   C     0.79868   0.48280   0.04698   0.00000  Uiso   1.00
C339   C     0.86801   0.51751   0.09336   0.00000  Uiso   1.00
C340   C     0.86801   0.48245   0.40682   0.00000  Uiso   1.00
C341   C     0.79834   0.51746   0.40648   0.00000  Uiso   1.00
C342   C     0.91336   0.49999   0.25003   0.00000  Uiso   1.00
C343   C     0.79829   0.48267   0.09334   0.00000  Uiso   1.00
C344   C     0.83319   0.50007   0.11630   0.00000  Uiso   1.00
C345   C     0.83322   0.49995   0.38370   0.00000  Uiso   1.00
C346   C     0.83306   0.50010   0.02412   0.00000  Uiso   1.00
C347   C     0.83307   0.50000   0.47589   0.00000  Uiso   1.00
C348   C     0.95750   0.49999   0.25004   0.00000  Uiso   1.00
C349   C     0.70918   0.50001   0.24996   0.00000  Uiso   1.00
C350   C     0.90595   0.53524   0.11768   0.00000  Uiso   1.00
C351   C     0.90592   0.46460   0.38271   0.00000  Uiso   1.00
C352   C     0.76052   0.53533   0.38199   0.00000  Uiso   1.00
C353   C     0.83328   0.50002   0.16412   0.00000  Uiso   1.00
C354   C     0.76044   0.46487   0.11763   0.00000  Uiso   1.00
C355   C     0.83332   0.49998   0.33588   0.00000  Uiso   1.00
C356   C     0.86086   0.35728   0.27597   0.00000  Uiso   1.00
C357   C     0.80581   0.64272   0.22402   0.00000  Uiso   1.00
C358   C     0.80581   0.35735   0.22403   0.00000  Uiso   1.00
C359   C     0.86085   0.64265   0.27598   0.00000  Uiso   1.00
C360   C     0.68801   0.46135   0.23560   0.00000  Uiso   1.00
H361   H     0.89371   0.53107   0.02859   0.00000  Uiso   1.00
H362   H     0.91864   0.50862   0.14016   0.00000  Uiso   1.00
H363   H     0.93103   0.54531   0.09413   0.00000  Uiso   1.00
H364   H     0.89741   0.43436   0.36269   0.00000  Uiso   1.00
H365   H     0.91861   0.49114   0.36020   0.00000  Uiso   1.00
H366   H     0.93101   0.45456   0.40638   0.00000  Uiso   1.00
H367   H     0.74786   0.50877   0.35948   0.00000  Uiso   1.00
H368   H     0.73537   0.54544   0.40542   0.00000  Uiso   1.00
H369   H     0.76911   0.56553   0.36192   0.00000  Uiso   1.00
H370   H     0.74785   0.49141   0.14016   0.00000  Uiso   1.00
H371   H     0.73526   0.45488   0.09408   0.00000  Uiso   1.00
H372   H     0.89368   0.46888   0.47173   0.00000  Uiso   1.00
H373   H     0.76899   0.43461   0.13766   0.00000  Uiso   1.00
H374   H     0.70438   0.43150   0.22398   0.00000  Uiso   1.00
H375   H     0.96230   0.56854   0.27593   0.00000  Uiso   1.00
H376   H     0.96223   0.43144   0.22415   0.00000  Uiso   1.00
H377   H     0.70445   0.56853   0.27593   0.00000  Uiso   1.00
H378   H     0.77247   0.53108   0.47115   0.00000  Uiso   1.00
H379   H     0.77241   0.46916   0.02854   0.00000  Uiso   1.00
H380   H     0.88288   0.37541   0.29673   0.00000  Uiso   1.00
H381   H     0.78381   0.62459   0.20324   0.00000  Uiso   1.00
H382   H     0.78378   0.37553   0.20328   0.00000  Uiso   1.00
H383   H     0.88286   0.62446   0.29675   0.00000  Uiso   1.00
H384   H     0.89747   0.56544   0.13775   0.00000  Uiso   1.00
N385   N     0.83333   0.61907   0.25000   0.00000  Uiso   1.00
N386   N     0.83333   0.38093   0.25000   0.00000  Uiso   1.00
O387   O     0.77226   0.53821   0.25000   0.00000  Uiso   1.00
O388   O     0.89441   0.46179   0.25001   0.00000  Uiso   1.00
O389   O     0.89441   0.53821   0.25001   0.00000  Uiso   1.00
O390   O     0.77226   0.46179   0.25000   0.00000  Uiso   1.00
O391   O     0.83333   0.53822   0.18453   0.00000  Uiso   1.00
O392   O     0.83334   0.46178   0.31547   0.00000  Uiso   1.00
O393   O     0.83334   0.53822   0.31547   0.00000  Uiso   1.00
O394   O     0.83333   0.46178   0.18453   0.00000  Uiso   1.00
Zn395  Zn    0.83333   0.55104   0.25000   0.00000  Uiso   1.00
Zn396  Zn    0.83333   0.44896   0.25000   0.00000  Uiso   1.00
C397   C     0.08665   0.83334   0.24997   0.00000  Uiso   1.00
C398   C     0.31200   0.87200   0.26437   0.00000  Uiso   1.00
C399   C     0.31196   0.79466   0.23567   0.00000  Uiso   1.00
C400   C     0.02139   0.87200   0.26435   0.00000  Uiso   1.00
C401   C     0.20081   0.85077   0.04701   0.00000  Uiso   1.00
C402   C     0.20080   0.81590   0.45317   0.00000  Uiso   1.00
C403   C     0.13206   0.85071   0.45284   0.00000  Uiso   1.00
C404   C     0.13201   0.81613   0.04698   0.00000  Uiso   1.00
C405   C     0.20134   0.85084   0.09336   0.00000  Uiso   1.00
C406   C     0.20134   0.81578   0.40682   0.00000  Uiso   1.00
C407   C     0.13167   0.85079   0.40648   0.00000  Uiso   1.00
C408   C     0.24669   0.83333   0.25003   0.00000  Uiso   1.00
C409   C     0.13162   0.81600   0.09334   0.00000  Uiso   1.00
C410   C     0.16652   0.83340   0.11630   0.00000  Uiso   1.00
C411   C     0.16655   0.83328   0.38370   0.00000  Uiso   1.00
C412   C     0.16639   0.83344   0.02412   0.00000  Uiso   1.00
C413   C     0.16640   0.83333   0.47589   0.00000  Uiso   1.00
C414   C     0.29083   0.83332   0.25004   0.00000  Uiso   1.00
C415   C     0.04251   0.83335   0.24996   0.00000  Uiso   1.00
C416   C     0.23928   0.86858   0.11768   0.00000  Uiso   1.00
C417   C     0.23925   0.79793   0.38271   0.00000  Uiso   1.00
C418   C     0.09385   0.86866   0.38199   0.00000  Uiso   1.00
C419   C     0.16662   0.83335   0.16412   0.00000  Uiso   1.00
C420   C     0.09378   0.79820   0.11763   0.00000  Uiso   1.00
C421   C     0.16665   0.83332   0.33588   0.00000  Uiso   1.00
C422   C     0.19419   0.69061   0.27597   0.00000  Uiso   1.00
C423   C     0.13915   0.97606   0.22402   0.00000  Uiso   1.00
C424   C     0.13914   0.69068   0.22403   0.00000  Uiso   1.00
C425   C     0.19419   0.97598   0.27598   0.00000  Uiso   1.00
C426   C     0.02135   0.79468   0.23560   0.00000  Uiso   1.00
H427   H     0.22704   0.86440   0.02859   0.00000  Uiso   1.00
H428   H     0.25197   0.84196   0.14016   0.00000  Uiso   1.00
H429   H     0.26436   0.87865   0.09413   0.00000  Uiso   1.00
H430   H     0.23074   0.76769   0.36269   0.00000  Uiso   1.00
H431   H     0.25195   0.82447   0.36020   0.00000  Uiso   1.00
H432   H     0.26434   0.78789   0.40638   0.00000  Uiso   1.00
H433   H     0.08119   0.84211   0.35948   0.00000  Uiso   1.00
H434   H     0.06870   0.87877   0.40542   0.00000  Uiso   1.00
H435   H     0.10244   0.89886   0.36192   0.00000  Uiso   1.00
H436   H     0.08118   0.82474   0.14016   0.00000  Uiso   1.00
H437   H     0.06860   0.78822   0.09408   0.00000  Uiso   1.00
H438   H     0.22701   0.80222   0.47173   0.00000  Uiso   1.00
H439   H     0.10232   0.76794   0.13766   0.00000  Uiso   1.00
H440   H     0.03771   0.76483   0.22398   0.00000  Uiso   1.00
H441   H     0.29564   0.90187   0.27593   0.00000  Uiso   1.00
H442   H     0.29557   0.76477   0.22415   0.00000  Uiso   1.00
H443   H     0.03779   0.90186   0.27593   0.00000  Uiso   1.00
H444   H     0.10580   0.86441   0.47115   0.00000  Uiso   1.00
H445   H     0.10574   0.80249   0.02854   0.00000  Uiso   1.00
H446   H     0.21621   0.70874   0.29673   0.00000  Uiso   1.00
H447   H     0.11715   0.95792   0.20324   0.00000  Uiso   1.00
H448   H     0.11712   0.70887   0.20328   0.00000  Uiso   1.00
H449   H     0.21619   0.95779   0.29675   0.00000  Uiso   1.00
H450   H     0.23081   0.89877   0.13775   0.00000  Uiso   1.00
N451   N     0.16667   0.95240   0.25000   0.00000  Uiso   1.00
N452   N     0.16667   0.71427   0.25000   0.00000  Uiso   1.00
O453   O     0.10559   0.87154   0.25000   0.00000  Uiso   1.00
O454   O     0.22774   0.79513   0.25001   0.00000  Uiso   1.00
O455   O     0.22774   0.87154   0.25001   0.00000  Uiso   1.00
O456   O     0.10559   0.79513   0.25000   0.00000  Uiso   1.00
O457   O     0.16666   0.87155   0.18453   0.00000  Uiso   1.00
O458   O     0.16667   0.79511   0.31547   0.00000  Uiso   1.00
O459   O     0.16667   0.87155   0.31547   0.00000  Uiso   1.00
O460   O     0.16666   0.79511   0.18453   0.00000  Uiso   1.00
Zn461  Zn    0.16667   0.88437   0.25000   0.00000  Uiso   1.00
Zn462  Zn    0.16667   0.78229   0.25000   0.00000  Uiso   1.00
C463   C     0.41998   0.83334   0.24997   0.00000  Uiso   1.00
C464   C     0.64533   0.87200   0.26437   0.00000  Uiso   1.00
C465   C     0.64529   0.79466   0.23567   0.00000  Uiso   1.00
C466   C     0.35472   0.87200   0.26435   0.00000  Uiso   1.00
C467   C     0.53414   0.85077   0.04701   0.00000  Uiso   1.00
C468   C     0.53413   0.81590   0.45317   0.00000  Uiso   1.00
C469   C     0.46539   0.85071   0.45284   0.00000  Uiso   1.00
C470   C     0.46535   0.81613   0.04698   0.00000  Uiso   1.00
C471   C     0.53468   0.85084   0.09336   0.00000  Uiso   1.00
C472   C     0.53468   0.81578   0.40682   0.00000  Uiso   1.00
C473   C     0.46500   0.85079   0.40648   0.00000  Uiso   1.00
C474   C     0.58002   0.83333   0.25003   0.00000  Uiso   1.00
C475   C     0.46495   0.81600   0.09334   0.00000  Uiso   1.00
C476   C     0.49986   0.83340   0.11630   0.00000  Uiso   1.00
C477   C     0.49988   0.83328   0.38370   0.00000  Uiso   1.00
C478   C     0.49972   0.83344   0.02412   0.00000  Uiso   1.00
C479   C     0.49974   0.83333   0.47589   0.00000  Uiso   1.00
C480   C     0.62416   0.83332   0.25004   0.00000  Uiso   1.00
C481   C     0.37584   0.83335   0.24996   0.00000  Uiso   1.00
C482   C     0.57261   0.86858   0.11768   0.00000  Uiso   1.00
C483   C     0.57258   0.79793   0.38271   0.00000  Uiso   1.00
C484   C     0.42719   0.86866   0.38199   0.00000  Uiso   1.00
C485   C     0.49995   0.83335   0.16412   0.00000  Uiso   1.00
C486   C     0.42711   0.79820   0.11763   0.00000  Uiso   1.00
C487   C     0.49999   0.83332   0.33588   0.00000  Uiso   1.00
C488   C     0.52753   0.69061   0.27597   0.00000  Uiso   1.00
C489   C     0.47248   0.97606   0.22402   0.00000  Uiso   1.00
C490   C     0.47247   0.69068   0.22403   0.00000  Uiso   1.00
C491   C     0.52752   0.97598   0.27598   0.00000  Uiso   1.00
C492   C     0.35468   0.79468   0.23560   0.00000  Uiso   1.00
H493   H     0.56038   0.86440   0.02859   0.00000  Uiso   1.00
H494   H     0.58530   0.84196   0.14016   0.00000  Uiso   1.00
H495   H     0.59769   0.87865   0.09413   0.00000  Uiso   1.00
H496   H     0.56408   0.76769   0.36269   0.00000  Uiso   1.00
H497   H     0.58528   0.82447   0.36020   0.00000  Uiso   1.00
H498   H     0.59767   0.78789   0.40638   0.00000  Uiso   1.00
H499   H     0.41453   0.84211   0.35948   0.00000  Uiso   1.00
H500   H     0.40204   0.87877   0.40542   0.00000  Uiso   1.00
H501   H     0.43577   0.89886   0.36192   0.00000  Uiso   1.00
H502   H     0.41452   0.82474   0.14016   0.00000  Uiso   1.00
H503   H     0.40193   0.78822   0.09408   0.00000  Uiso   1.00
H504   H     0.56034   0.80222   0.47173   0.00000  Uiso   1.00
H505   H     0.43565   0.76794   0.13766   0.00000  Uiso   1.00
H506   H     0.37105   0.76483   0.22398   0.00000  Uiso   1.00
H507   H     0.62897   0.90187   0.27593   0.00000  Uiso   1.00
H508   H     0.62890   0.76477   0.22415   0.00000  Uiso   1.00
H509   H     0.37112   0.90186   0.27593   0.00000  Uiso   1.00
H510   H     0.43913   0.86441   0.47115   0.00000  Uiso   1.00
H511   H     0.43907   0.80249   0.02854   0.00000  Uiso   1.00
H512   H     0.54954   0.70874   0.29673   0.00000  Uiso   1.00
H513   H     0.45048   0.95792   0.20324   0.00000  Uiso   1.00
H514   H     0.45045   0.70887   0.20328   0.00000  Uiso   1.00
H515   H     0.54952   0.95779   0.29675   0.00000  Uiso   1.00
H516   H     0.56414   0.89877   0.13775   0.00000  Uiso   1.00
N517   N     0.50000   0.95240   0.25000   0.00000  Uiso   1.00
N518   N     0.50000   0.71427   0.25000   0.00000  Uiso   1.00
O519   O     0.43892   0.87154   0.25000   0.00000  Uiso   1.00
O520   O     0.56108   0.79513   0.25001   0.00000  Uiso   1.00
O521   O     0.56108   0.87154   0.25001   0.00000  Uiso   1.00
O522   O     0.43892   0.79513   0.25000   0.00000  Uiso   1.00
O523   O     0.50000   0.87155   0.18453   0.00000  Uiso   1.00
O524   O     0.50000   0.79511   0.31547   0.00000  Uiso   1.00
O525   O     0.50000   0.87155   0.31547   0.00000  Uiso   1.00
O526   O     0.50000   0.79511   0.18453   0.00000  Uiso   1.00
Zn527  Zn    0.50000   0.88437   0.25000   0.00000  Uiso   1.00
Zn528  Zn    0.50000   0.78229   0.25000   0.00000  Uiso   1.00
C529   C     0.75331   0.83334   0.24997   0.00000  Uiso   1.00
C530   C     0.97867   0.87200   0.26437   0.00000  Uiso   1.00
C531   C     0.97863   0.79466   0.23567   0.00000  Uiso   1.00
C532   C     0.68805   0.87200   0.26435   0.00000  Uiso   1.00
C533   C     0.86747   0.85077   0.04701   0.00000  Uiso   1.00
C534   C     0.86746   0.81590   0.45317   0.00000  Uiso   1.00
C535   C     0.79873   0.85071   0.45284   0.00000  Uiso   1.00
C536   C     0.79868   0.81613   0.04698   0.00000  Uiso   1.00
C537   C     0.86801   0.85084   0.09336   0.00000  Uiso   1.00
C538   C     0.86801   0.81578   0.40682   0.00000  Uiso   1.00
C539   C     0.79834   0.85079   0.40648   0.00000  Uiso   1.00
C540   C     0.91336   0.83333   0.25003   0.00000  Uiso   1.00
C541   C     0.79829   0.81600   0.09334   0.00000  Uiso   1.00
C542   C     0.83319   0.83340   0.11630   0.00000  Uiso   1.00
C543   C     0.83322   0.83328   0.38370   0.00000  Uiso   1.00
C544   C     0.83306   0.83344   0.02412   0.00000  Uiso   1.00
C545   C     0.83307   0.83333   0.47589   0.00000  Uiso   1.00
C546   C     0.95750   0.83332   0.25004   0.00000  Uiso   1.00
C547   C     0.70918   0.83335   0.24996   0.00000  Uiso   1.00
C548   C     0.90595   0.86858   0.11768   0.00000  Uiso   1.00
C549   C     0.90592   0.79793   0.38271   0.00000  Uiso   1.00
C550   C     0.76052   0.86866   0.38199   0.00000  Uiso   1.00
C551   C     0.83328   0.83335   0.16412   0.00000  Uiso   1.00
C552   C     0.76044   0.79820   0.11763   0.00000  Uiso   1.00
C553   C     0.83332   0.83332   0.33588   0.00000  Uiso   1.00
C554   C     0.86086   0.69061   0.27597   0.00000  Uiso   1.00
C555   C     0.80581   0.97606   0.22402   0.00000  Uiso   1.00
C556   C     0.80581   0.69068   0.22403   0.00000  Uiso   1.00
C557   C     0.86085   0.97598   0.27598   0.00000  Uiso   1.00
C558   C     0.68801   0.79468   0.23560   0.00000  Uiso   1.00
H559   H     0.89371   0.86440   0.02859   0.00000  Uiso   1.00
H560   H     0.91864   0.84196   0.14016   0.00000  Uiso   1.00
H561   H     0.93103   0.87865   0.09413   0.00000  Uiso   1.00
H562   H     0.89741   0.76769   0.36269   0.00000  Uiso   1.00
H563   H     0.91861   0.82447   0.36020   0.00000  Uiso   1.00
H564   H     0.93101   0.78789   0.40638   0.00000  Uiso   1.00
H565   H     0.74786   0.84211   0.35948   0.00000  Uiso   1.00
H566   H     0.73537   0.87877   0.40542   0.00000  Uiso   1.00
H567   H     0.76911   0.89886   0.36192   0.00000  Uiso   1.00
H568   H     0.74785   0.82474   0.14016   0.00000  Uiso   1.00
H569   H     0.73526   0.78822   0.09408   0.00000  Uiso   1.00
H570   H     0.89368   0.80222   0.47173   0.00000  Uiso   1.00
H571   H     0.76899   0.76794   0.13766   0.00000  Uiso   1.00
H572   H     0.70438   0.76483   0.22398   0.00000  Uiso   1.00
H573   H     0.96230   0.90187   0.27593   0.00000  Uiso   1.00
H574   H     0.96223   0.76477   0.22415   0.00000  Uiso   1.00
H575   H     0.70445   0.90186   0.27593   0.00000  Uiso   1.00
H576   H     0.77247   0.86441   0.47115   0.00000  Uiso   1.00
H577   H     0.77241   0.80249   0.02854   0.00000  Uiso   1.00
H578   H     0.88288   0.70874   0.29673   0.00000  Uiso   1.00
H579   H     0.78381   0.95792   0.20324   0.00000  Uiso   1.00
H580   H     0.78378   0.70887   0.20328   0.00000  Uiso   1.00
H581   H     0.88286   0.95779   0.29675   0.00000  Uiso   1.00
H582   H     0.89747   0.89877   0.13775   0.00000  Uiso   1.00
N583   N     0.83333   0.95240   0.25000   0.00000  Uiso   1.00
N584   N     0.83333   0.71427   0.25000   0.00000  Uiso   1.00
O585   O     0.77226   0.87154   0.25000   0.00000  Uiso   1.00
O586   O     0.89441   0.79513   0.25001   0.00000  Uiso   1.00
O587   O     0.89441   0.87154   0.25001   0.00000  Uiso   1.00
O588   O     0.77226   0.79513   0.25000   0.00000  Uiso   1.00
O589   O     0.83333   0.87155   0.18453   0.00000  Uiso   1.00
O590   O     0.83334   0.79511   0.31547   0.00000  Uiso   1.00
O591   O     0.83334   0.87155   0.31547   0.00000  Uiso   1.00
O592   O     0.83333   0.79511   0.18453   0.00000  Uiso   1.00
Zn593  Zn    0.83333   0.88437   0.25000   0.00000  Uiso   1.00
Zn594  Zn    0.83333   0.78229   0.25000   0.00000  Uiso   1.00
C595   C     0.08665   0.16667   0.74997   0.00000  Uiso   1.00
C596   C     0.31200   0.20533   0.76437   0.00000  Uiso   1.00
C597   C     0.31196   0.12799   0.73567   0.00000  Uiso   1.00
C598   C     0.02139   0.20533   0.76435   0.00000  Uiso   1.00
C599   C     0.20081   0.18411   0.54701   0.00000  Uiso   1.00
C600   C     0.20080   0.14923   0.95317   0.00000  Uiso   1.00
C601   C     0.13206   0.18404   0.95284   0.00000  Uiso   1.00
C602   C     0.13201   0.14946   0.54698   0.00000  Uiso   1.00
C603   C     0.20134   0.18418   0.59336   0.00000  Uiso   1.00
C604   C     0.20134   0.14912   0.90682   0.00000  Uiso   1.00
C605   C     0.13167   0.18412   0.90648   0.00000  Uiso   1.00
C606   C     0.24669   0.16666   0.75003   0.00000  Uiso   1.00
C607   C     0.13162   0.14934   0.59334   0.00000  Uiso   1.00
C608   C     0.16652   0.16673   0.61630   0.00000  Uiso   1.00
C609   C     0.16655   0.16662   0.88370   0.00000  Uiso   1.00
C610   C     0.16639   0.16677   0.52412   0.00000  Uiso   1.00
C611   C     0.16640   0.16666   0.97589   0.00000  Uiso   1.00
C612   C     0.29083   0.16665   0.75004   0.00000  Uiso   1.00
C613   C     0.04251   0.16668   0.74996   0.00000  Uiso   1.00
C614   C     0.23928   0.20191   0.61768   0.00000  Uiso   1.00
C615   C     0.23925   0.13127   0.88271   0.00000  Uiso   1.00
C616   C     0.09385   0.20199   0.88199   0.00000  Uiso   1.00
C617   C     0.16662   0.16669   0.66412   0.00000  Uiso   1.00
C618   C     0.09378   0.13154   0.61763   0.00000  Uiso   1.00
C619   C     0.16665   0.16665   0.83588   0.00000  Uiso   1.00
C620   C     0.19419   0.02394   0.77597   0.00000  Uiso   1.00
C621   C     0.13915   0.30939   0.72402   0.00000  Uiso   1.00
C622   C     0.13914   0.02401   0.72403   0.00000  Uiso   1.00
C623   C     0.19419   0.30932   0.77598   0.00000  Uiso   1.00
C624   C     0.02135   0.12802   0.73560   0.00000  Uiso   1.00
H625   H     0.22704   0.19773   0.52859   0.00000  Uiso   1.00
H626   H     0.25197   0.17529   0.64016   0.00000  Uiso   1.00
H627   H     0.26436   0.21198   0.59413   0.00000  Uiso   1.00
H628   H     0.23074   0.10103   0.86269   0.00000  Uiso   1.00
H629   H     0.25195   0.15780   0.86020   0.00000  Uiso   1.00
H630   H     0.26434   0.12122   0.90638   0.00000  Uiso   1.00
H631   H     0.08119   0.17544   0.85948   0.00000  Uiso   1.00
H632   H     0.06870   0.21210   0.90542   0.00000  Uiso   1.00
H633   H     0.10244   0.23219   0.86192   0.00000  Uiso   1.00
H634   H     0.08118   0.15808   0.64016   0.00000  Uiso   1.00
H635   H     0.06860   0.12155   0.59408   0.00000  Uiso   1.00
H636   H     0.22701   0.13555   0.97173   0.00000  Uiso   1.00
H637   H     0.10232   0.10127   0.63766   0.00000  Uiso   1.00
H638   H     0.03771   0.09816   0.72398   0.00000  Uiso   1.00
H639   H     0.29564   0.23520   0.77593   0.00000  Uiso   1.00
H640   H     0.29557   0.09811   0.72415   0.00000  Uiso   1.00
H641   H     0.03779   0.23519   0.77593   0.00000  Uiso   1.00
H642   H     0.10580   0.19775   0.97115   0.00000  Uiso   1.00
H643   H     0.10574   0.13583   0.52854   0.00000  Uiso   1.00
H644   H     0.21621   0.04207   0.79673   0.00000  Uiso   1.00
H645   H     0.11715   0.29125   0.70324   0.00000  Uiso   1.00
H646   H     0.11712   0.04220   0.70328   0.00000  Uiso   1.00
H647   H     0.21619   0.29112   0.79675   0.00000  Uiso   1.00
H648   H     0.23081   0.23211   0.63775   0.00000  Uiso   1.00
N649   N     0.16667   0.28573   0.75000   0.00000  Uiso   1.00
N650   N     0.16667   0.04760   0.75000   0.00000  Uiso   1.00
O651   O     0.10559   0.20487   0.75000   0.00000  Uiso   1.00
O652   O     0.22774   0.12846   0.75001   0.00000  Uiso   1.00
O653   O     0.22774   0.20487   0.75001   0.00000  Uiso   1.00
O654   O     0.10559   0.12846   0.75000   0.00000  Uiso   1.00
O655   O     0.16666   0.20489   0.68453   0.00000  Uiso   1.00
O656   O     0.16667   0.12845   0.81547   0.00000  Uiso   1.00
O657   O     0.16667   0.20489   0.81547   0.00000  Uiso   1.00
O658   O     0.16666   0.12845   0.68453   0.00000  Uiso   1.00
Zn659  Zn    0.16667   0.21771   0.75000   0.00000  Uiso   1.00
Zn660  Zn    0.16667   0.11563   0.75000   0.00000  Uiso   1.00
C661   C     0.41998   0.16667   0.74997   0.00000  Uiso   1.00
C662   C     0.64533   0.20533   0.76437   0.00000  Uiso   1.00
C663   C     0.64529   0.12799   0.73567   0.00000  Uiso   1.00
C664   C     0.35472   0.20533   0.76435   0.00000  Uiso   1.00
C665   C     0.53414   0.18411   0.54701   0.00000  Uiso   1.00
C666   C     0.53413   0.14923   0.95317   0.00000  Uiso   1.00
C667   C     0.46539   0.18404   0.95284   0.00000  Uiso   1.00
C668   C     0.46535   0.14946   0.54698   0.00000  Uiso   1.00
C669   C     0.53468   0.18418   0.59336   0.00000  Uiso   1.00
C670   C     0.53468   0.14912   0.90682   0.00000  Uiso   1.00
C671   C     0.46500   0.18412   0.90648   0.00000  Uiso   1.00
C672   C     0.58002   0.16666   0.75003   0.00000  Uiso   1.00
C673   C     0.46495   0.14934   0.59334   0.00000  Uiso   1.00
C674   C     0.49986   0.16673   0.61630   0.00000  Uiso   1.00
C675   C     0.49988   0.16662   0.88370   0.00000  Uiso   1.00
C676   C     0.49972   0.16677   0.52412   0.00000  Uiso   1.00
C677   C     0.49974   0.16666   0.97589   0.00000  Uiso   1.00
C678   C     0.62416   0.16665   0.75004   0.00000  Uiso   1.00
C679   C     0.37584   0.16668   0.74996   0.00000  Uiso   1.00
C680   C     0.57261   0.20191   0.61768   0.00000  Uiso   1.00
C681   C     0.57258   0.13127   0.88271   0.00000  Uiso   1.00
C682   C     0.42719   0.20199   0.88199   0.00000  Uiso   1.00
C683   C     0.49995   0.16669   0.66412   0.00000  Uiso   1.00
C684   C     0.42711   0.13154   0.61763   0.00000  Uiso   1.00
C685   C     0.49999   0.16665   0.83588   0.00000  Uiso   1.00
C686   C     0.52753   0.02394   0.77597   0.00000  Uiso   1.00
C687   C     0.47248   0.30939   0.72402   0.00000  Uiso   1.00
C688   C     0.47247   0.02401   0.72403   0.00000  Uiso   1.00
C689   C     0.52752   0.30932   0.77598   0.00000  Uiso   1.00
C690   C     0.35468   0.12802   0.73560   0.00000  Uiso   1.00
H691   H     0.56038   0.19773   0.52859   0.00000  Uiso   1.00
H692   H     0.58530   0.17529   0.64016   0.00000  Uiso   1.00
H693   H     0.59769   0.21198   0.59413   0.00000  Uiso   1.00
H694   H     0.56408   0.10103   0.86269   0.00000  Uiso   1.00
H695   H     0.58528   0.15780   0.86020   0.00000  Uiso   1.00
H696   H     0.59767   0.12122   0.90638   0.00000  Uiso   1.00
H697   H     0.41453   0.17544   0.85948   0.00000  Uiso   1.00
H698   H     0.40204   0.21210   0.90542   0.00000  Uiso   1.00
H699   H     0.43577   0.23219   0.86192   0.00000  Uiso   1.00
H700   H     0.41452   0.15808   0.64016   0.00000  Uiso   1.00
H701   H     0.40193   0.12155   0.59408   0.00000  Uiso   1.00
H702   H     0.56034   0.13555   0.97173   0.00000  Uiso   1.00
H703   H     0.43565   0.10127   0.63766   0.00000  Uiso   1.00
H704   H     0.37105   0.09816   0.72398   0.00000  Uiso   1.00
H705   H     0.62897   0.23520   0.77593   0.00000  Uiso   1.00
H706   H     0.62890   0.09811   0.72415   0.00000  Uiso   1.00
H707   H     0.37112   0.23519   0.77593   0.00000  Uiso   1.00
H708   H     0.43913   0.19775   0.97115   0.00000  Uiso   1.00
H709   H     0.43907   0.13583   0.52854   0.00000  Uiso   1.00
H710   H     0.54954   0.04207   0.79673   0.00000  Uiso   1.00
H711   H     0.45048   0.29125   0.70324   0.00000  Uiso   1.00
H712   H     0.45045   0.04220   0.70328   0.00000  Uiso   1.00
H713   H     0.54952   0.29112   0.79675   0.00000  Uiso   1.00
H714   H     0.56414   0.23211   0.63775   0.00000  Uiso   1.00
N715   N     0.50000   0.28573   0.75000   0.00000  Uiso   1.00
N716   N     0.50000   0.04760   0.75000   0.00000  Uiso   1.00
O717   O     0.43892   0.20487   0.75000   0.00000  Uiso   1.00
O718   O     0.56108   0.12846   0.75001   0.00000  Uiso   1.00
O719   O     0.56108   0.20487   0.75001   0.00000  Uiso   1.00
O720   O     0.43892   0.12846   0.75000   0.00000  Uiso   1.00
O721   O     0.50000   0.20489   0.68453   0.00000  Uiso   1.00
O722   O     0.50000   0.12845   0.81547   0.00000  Uiso   1.00
O723   O     0.50000   0.20489   0.81547   0.00000  Uiso   1.00
O724   O     0.50000   0.12845   0.68453   0.00000  Uiso   1.00
Zn725  Zn    0.50000   0.21771   0.75000   0.00000  Uiso   1.00
Zn726  Zn    0.50000   0.11563   0.75000   0.00000  Uiso   1.00
C727   C     0.75331   0.16667   0.74997   0.00000  Uiso   1.00
C728   C     0.97867   0.20533   0.76437   0.00000  Uiso   1.00
C729   C     0.97863   0.12799   0.73567   0.00000  Uiso   1.00
C730   C     0.68805   0.20533   0.76435   0.00000  Uiso   1.00
C731   C     0.86747   0.18411   0.54701   0.00000  Uiso   1.00
C732   C     0.86746   0.14923   0.95317   0.00000  Uiso   1.00
C733   C     0.79873   0.18404   0.95284   0.00000  Uiso   1.00
C734   C     0.79868   0.14946   0.54698   0.00000  Uiso   1.00
C735   C     0.86801   0.18418   0.59336   0.00000  Uiso   1.00
C736   C     0.86801   0.14912   0.90682   0.00000  Uiso   1.00
C737   C     0.79834   0.18412   0.90648   0.00000  Uiso   1.00
C738   C     0.91336   0.16666   0.75003   0.00000  Uiso   1.00
C739   C     0.79829   0.14934   0.59334   0.00000  Uiso   1.00
C740   C     0.83319   0.16673   0.61630   0.00000  Uiso   1.00
C741   C     0.83322   0.16662   0.88370   0.00000  Uiso   1.00
C742   C     0.83306   0.16677   0.52412   0.00000  Uiso   1.00
C743   C     0.83307   0.16666   0.97589   0.00000  Uiso   1.00
C744   C     0.95750   0.16665   0.75004   0.00000  Uiso   1.00
C745   C     0.70918   0.16668   0.74996   0.00000  Uiso   1.00
C746   C     0.90595   0.20191   0.61768   0.00000  Uiso   1.00
C747   C     0.90592   0.13127   0.88271   0.00000  Uiso   1.00
C748   C     0.76052   0.20199   0.88199   0.00000  Uiso   1.00
C749   C     0.83328   0.16669   0.66412   0.00000  Uiso   1.00
C750   C     0.76044   0.13154   0.61763   0.00000  Uiso   1.00
C751   C     0.83332   0.16665   0.83588   0.00000  Uiso   1.00
C752   C     0.86086   0.02394   0.77597   0.00000  Uiso   1.00
C753   C     0.80581   0.30939   0.72402   0.00000  Uiso   1.00
C754   C     0.80581   0.02401   0.72403   0.00000  Uiso   1.00
C755   C     0.86085   0.30932   0.77598   0.00000  Uiso   1.00
C756   C     0.68801   0.12802   0.73560   0.00000  Uiso   1.00
H757   H     0.89371   0.19773   0.52859   0.00000  Uiso   1.00
H758   H     0.91864   0.17529   0.64016   0.00000  Uiso   1.00
H759   H     0.93103   0.21198   0.59413   0.00000  Uiso   1.00
H760   H     0.89741   0.10103   0.86269   0.00000  Uiso   1.00
H761   H     0.91861   0.15780   0.86020   0.00000  Uiso   1.00
H762   H     0.93101   0.12122   0.90638   0.00000  Uiso   1.00
H763   H     0.74786   0.17544   0.85948   0.00000  Uiso   1.00
H764   H     0.73537   0.21210   0.90542   0.00000  Uiso   1.00
H765   H     0.76911   0.23219   0.86192   0.00000  Uiso   1.00
H766   H     0.74785   0.15808   0.64016   0.00000  Uiso   1.00
H767   H     0.73526   0.12155   0.59408   0.00000  Uiso   1.00
H768   H     0.89368   0.13555   0.97173   0.00000  Uiso   1.00
H769   H     0.76899   0.10127   0.63766   0.00000  Uiso   1.00
H770   H     0.70438   0.09816   0.72398   0.00000  Uiso   1.00
H771   H     0.96230   0.23520   0.77593   0.00000  Uiso   1.00
H772   H     0.96223   0.09811   0.72415   0.00000  Uiso   1.00
H773   H     0.70445   0.23519   0.77593   0.00000  Uiso   1.00
H774   H     0.77247   0.19775   0.97115   0.00000  Uiso   1.00
H775   H     0.77241   0.13583   0.52854   0.00000  Uiso   1.00
H776   H     0.88288   0.04207   0.79673   0.00000  Uiso   1.00
H777   H     0.78381   0.29125   0.70324   0.00000  Uiso   1.00
H778   H     0.78378   0.04220   0.70328   0.00000  Uiso   1.00
H779   H     0.88286   0.29112   0.79675   0.00000  Uiso   1.00
H780   H     0.89747   0.23211   0.63775   0.00000  Uiso   1.00
N781   N     0.83333   0.28573   0.75000   0.00000  Uiso   1.00
N782   N     0.83333   0.04760   0.75000   0.00000  Uiso   1.00
O783   O     0.77226   0.20487   0.75000   0.00000  Uiso   1.00
O784   O     0.89441   0.12846   0.75001   0.00000  Uiso   1.00
O785   O     0.89441   0.20487   0.75001   0.00000  Uiso   1.00
O786   O     0.77226   0.12846   0.75000   0.00000  Uiso   1.00
O787   O     0.83333   0.20489   0.68453   0.00000  Uiso   1.00
O788   O     0.83334   0.12845   0.81547   0.00000  Uiso   1.00
O789   O     0.83334   0.20489   0.81547   0.00000  Uiso   1.00
O790   O     0.83333   0.12845   0.68453   0.00000  Uiso   1.00
Zn791  Zn    0.83333   0.21771   0.75000   0.00000  Uiso   1.00
Zn792  Zn    0.83333   0.11563   0.75000   0.00000  Uiso   1.00
C793   C     0.08665   0.50001   0.74997   0.00000  Uiso   1.00
C794   C     0.31200   0.53866   0.76437   0.00000  Uiso   1.00
C795   C     0.31196   0.46132   0.73567   0.00000  Uiso   1.00
C796   C     0.02139   0.53867   0.76435   0.00000  Uiso   1.00
C797   C     0.20081   0.51744   0.54701   0.00000  Uiso   1.00
C798   C     0.20080   0.48256   0.95317   0.00000  Uiso   1.00
C799   C     0.13206   0.51737   0.95284   0.00000  Uiso   1.00
C800   C     0.13201   0.48280   0.54698   0.00000  Uiso   1.00
C801   C     0.20134   0.51751   0.59336   0.00000  Uiso   1.00
C802   C     0.20134   0.48245   0.90682   0.00000  Uiso   1.00
C803   C     0.13167   0.51746   0.90648   0.00000  Uiso   1.00
C804   C     0.24669   0.49999   0.75003   0.00000  Uiso   1.00
C805   C     0.13162   0.48267   0.59334   0.00000  Uiso   1.00
C806   C     0.16652   0.50007   0.61630   0.00000  Uiso   1.00
C807   C     0.16655   0.49995   0.88370   0.00000  Uiso   1.00
C808   C     0.16639   0.50010   0.52412   0.00000  Uiso   1.00
C809   C     0.16640   0.50000   0.97589   0.00000  Uiso   1.00
C810   C     0.29083   0.49999   0.75004   0.00000  Uiso   1.00
C811   C     0.04251   0.50001   0.74996   0.00000  Uiso   1.00
C812   C     0.23928   0.53524   0.61768   0.00000  Uiso   1.00
C813   C     0.23925   0.46460   0.88271   0.00000  Uiso   1.00
C814   C     0.09385   0.53533   0.88199   0.00000  Uiso   1.00
C815   C     0.16662   0.50002   0.66412   0.00000  Uiso   1.00
C816   C     0.09378   0.46487   0.61763   0.00000  Uiso   1.00
C817   C     0.16665   0.49998   0.83588   0.00000  Uiso   1.00
C818   C     0.19419   0.35728   0.77597   0.00000  Uiso   1.00
C819   C     0.13915   0.64272   0.72402   0.00000  Uiso   1.00
C820   C     0.13914   0.35735   0.72403   0.00000  Uiso   1.00
C821   C     0.19419   0.64265   0.77598   0.00000  Uiso   1.00
C822   C     0.02135   0.46135   0.73560   0.00000  Uiso   1.00
H823   H     0.22704   0.53107   0.52859   0.00000  Uiso   1.00
H824   H     0.25197   0.50862   0.64016   0.00000  Uiso   1.00
H825   H     0.26436   0.54531   0.59413   0.00000  Uiso   1.00
H826   H     0.23074   0.43436   0.86269   0.00000  Uiso   1.00
H827   H     0.25195   0.49114   0.86020   0.00000  Uiso   1.00
H828   H     0.26434   0.45456   0.90638   0.00000  Uiso   1.00
H829   H     0.08119   0.50877   0.85948   0.00000  Uiso   1.00
H830   H     0.06870   0.54544   0.90542   0.00000  Uiso   1.00
H831   H     0.10244   0.56553   0.86192   0.00000  Uiso   1.00
H832   H     0.08118   0.49141   0.64016   0.00000  Uiso   1.00
H833   H     0.06860   0.45488   0.59408   0.00000  Uiso   1.00
H834   H     0.22701   0.46888   0.97173   0.00000  Uiso   1.00
H835   H     0.10232   0.43461   0.63766   0.00000  Uiso   1.00
H836   H     0.03771   0.43150   0.72398   0.00000  Uiso   1.00
H837   H     0.29564   0.56854   0.77593   0.00000  Uiso   1.00
H838   H     0.29557   0.43144   0.72415   0.00000  Uiso   1.00
H839   H     0.03779   0.56853   0.77593   0.00000  Uiso   1.00
H840   H     0.10580   0.53108   0.97115   0.00000  Uiso   1.00
H841   H     0.10574   0.46916   0.52854   0.00000  Uiso   1.00
H842   H     0.21621   0.37541   0.79673   0.00000  Uiso   1.00
H843   H     0.11715   0.62459   0.70324   0.00000  Uiso   1.00
H844   H     0.11712   0.37553   0.70328   0.00000  Uiso   1.00
H845   H     0.21619   0.62446   0.79675   0.00000  Uiso   1.00
H846   H     0.23081   0.56544   0.63775   0.00000  Uiso   1.00
N847   N     0.16667   0.61907   0.75000   0.00000  Uiso   1.00
N848   N     0.16667   0.38093   0.75000   0.00000  Uiso   1.00
O849   O     0.10559   0.53821   0.75000   0.00000  Uiso   1.00
O850   O     0.22774   0.46179   0.75001   0.00000  Uiso   1.00
O851   O     0.22774   0.53821   0.75001   0.00000  Uiso   1.00
O852   O     0.10559   0.46179   0.75000   0.00000  Uiso   1.00
O853   O     0.16666   0.53822   0.68453   0.00000  Uiso   1.00
O854   O     0.16667   0.46178   0.81547   0.00000  Uiso   1.00
O855   O     0.16667   0.53822   0.81547   0.00000  Uiso   1.00
O856   O     0.16666   0.46178   0.68453   0.00000  Uiso   1.00
Zn857  Zn    0.16667   0.55104   0.75000   0.00000  Uiso   1.00
Zn858  Zn    0.16667   0.44896   0.75000   0.00000  Uiso   1.00
C859   C     0.41998   0.50001   0.74997   0.00000  Uiso   1.00
C860   C     0.64533   0.53866   0.76437   0.00000  Uiso   1.00
C861   C     0.64529   0.46132   0.73567   0.00000  Uiso   1.00
C862   C     0.35472   0.53867   0.76435   0.00000  Uiso   1.00
C863   C     0.53414   0.51744   0.54701   0.00000  Uiso   1.00
C864   C     0.53413   0.48256   0.95317   0.00000  Uiso   1.00
C865   C     0.46539   0.51737   0.95284   0.00000  Uiso   1.00
C866   C     0.46535   0.48280   0.54698   0.00000  Uiso   1.00
C867   C     0.53468   0.51751   0.59336   0.00000  Uiso   1.00
C868   C     0.53468   0.48245   0.90682   0.00000  Uiso   1.00
C869   C     0.46500   0.51746   0.90648   0.00000  Uiso   1.00
C870   C     0.58002   0.49999   0.75003   0.00000  Uiso   1.00
C871   C     0.46495   0.48267   0.59334   0.00000  Uiso   1.00
C872   C     0.49986   0.50007   0.61630   0.00000  Uiso   1.00
C873   C     0.49988   0.49995   0.88370   0.00000  Uiso   1.00
C874   C     0.49972   0.50010   0.52412   0.00000  Uiso   1.00
C875   C     0.49974   0.50000   0.97589   0.00000  Uiso   1.00
C876   C     0.62416   0.49999   0.75004   0.00000  Uiso   1.00
C877   C     0.37584   0.50001   0.74996   0.00000  Uiso   1.00
C878   C     0.57261   0.53524   0.61768   0.00000  Uiso   1.00
C879   C     0.57258   0.46460   0.88271   0.00000  Uiso   1.00
C880   C     0.42719   0.53533   0.88199   0.00000  Uiso   1.00
C881   C     0.49995   0.50002   0.66412   0.00000  Uiso   1.00
C882   C     0.42711   0.46487   0.61763   0.00000  Uiso   1.00
C883   C     0.49999   0.49998   0.83588   0.00000  Uiso   1.00
C884   C     0.52753   0.35728   0.77597   0.00000  Uiso   1.00
C885   C     0.47248   0.64272   0.72402   0.00000  Uiso   1.00
C886   C     0.47247   0.35735   0.72403   0.00000  Uiso   1.00
C887   C     0.52752   0.64265   0.77598   0.00000  Uiso   1.00
C888   C     0.35468   0.46135   0.73560   0.00000  Uiso   1.00
H889   H     0.56038   0.53107   0.52859   0.00000  Uiso   1.00
H890   H     0.58530   0.50862   0.64016   0.00000  Uiso   1.00
H891   H     0.59769   0.54531   0.59413   0.00000  Uiso   1.00
H892   H     0.56408   0.43436   0.86269   0.00000  Uiso   1.00
H893   H     0.58528   0.49114   0.86020   0.00000  Uiso   1.00
H894   H     0.59767   0.45456   0.90638   0.00000  Uiso   1.00
H895   H     0.41453   0.50877   0.85948   0.00000  Uiso   1.00
H896   H     0.40204   0.54544   0.90542   0.00000  Uiso   1.00
H897   H     0.43577   0.56553   0.86192   0.00000  Uiso   1.00
H898   H     0.41452   0.49141   0.64016   0.00000  Uiso   1.00
H899   H     0.40193   0.45488   0.59408   0.00000  Uiso   1.00
H900   H     0.56034   0.46888   0.97173   0.00000  Uiso   1.00
H901   H     0.43565   0.43461   0.63766   0.00000  Uiso   1.00
H902   H     0.37105   0.43150   0.72398   0.00000  Uiso   1.00
H903   H     0.62897   0.56854   0.77593   0.00000  Uiso   1.00
H904   H     0.62890   0.43144   0.72415   0.00000  Uiso   1.00
H905   H     0.37112   0.56853   0.77593   0.00000  Uiso   1.00
H906   H     0.43913   0.53108   0.97115   0.00000  Uiso   1.00
H907   H     0.43907   0.46916   0.52854   0.00000  Uiso   1.00
H908   H     0.54954   0.37541   0.79673   0.00000  Uiso   1.00
H909   H     0.45048   0.62459   0.70324   0.00000  Uiso   1.00
H910   H     0.45045   0.37553   0.70328   0.00000  Uiso   1.00
H911   H     0.54952   0.62446   0.79675   0.00000  Uiso   1.00
H912   H     0.56414   0.56544   0.63775   0.00000  Uiso   1.00
N913   N     0.50000   0.61907   0.75000   0.00000  Uiso   1.00
N914   N     0.50000   0.38093   0.75000   0.00000  Uiso   1.00
O915   O     0.43892   0.53821   0.75000   0.00000  Uiso   1.00
O916   O     0.56108   0.46179   0.75001   0.00000  Uiso   1.00
O917   O     0.56108   0.53821   0.75001   0.00000  Uiso   1.00
O918   O     0.43892   0.46179   0.75000   0.00000  Uiso   1.00
O919   O     0.50000   0.53822   0.68453   0.00000  Uiso   1.00
O920   O     0.50000   0.46178   0.81547   0.00000  Uiso   1.00
O921   O     0.50000   0.53822   0.81547   0.00000  Uiso   1.00
O922   O     0.50000   0.46178   0.68453   0.00000  Uiso   1.00
Zn923  Zn    0.50000   0.55104   0.75000   0.00000  Uiso   1.00
Zn924  Zn    0.50000   0.44896   0.75000   0.00000  Uiso   1.00
C925   C     0.75331   0.50001   0.74997   0.00000  Uiso   1.00
C926   C     0.97867   0.53866   0.76437   0.00000  Uiso   1.00
C927   C     0.97863   0.46132   0.73567   0.00000  Uiso   1.00
C928   C     0.68805   0.53867   0.76435   0.00000  Uiso   1.00
C929   C     0.86747   0.51744   0.54701   0.00000  Uiso   1.00
C930   C     0.86746   0.48256   0.95317   0.00000  Uiso   1.00
C931   C     0.79873   0.51737   0.95284   0.00000  Uiso   1.00
C932   C     0.79868   0.48280   0.54698   0.00000  Uiso   1.00
C933   C     0.86801   0.51751   0.59336   0.00000  Uiso   1.00
C934   C     0.86801   0.48245   0.90682   0.00000  Uiso   1.00
C935   C     0.79834   0.51746   0.90648   0.00000  Uiso   1.00
C936   C     0.91336   0.49999   0.75003   0.00000  Uiso   1.00
C937   C     0.79829   0.48267   0.59334   0.00000  Uiso   1.00
C938   C     0.83319   0.50007   0.61630   0.00000  Uiso   1.00
C939   C     0.83322   0.49995   0.88370   0.00000  Uiso   1.00
C940   C     0.83306   0.50010   0.52412   0.00000  Uiso   1.00
C941   C     0.83307   0.50000   0.97589   0.00000  Uiso   1.00
C942   C     0.95750   0.49999   0.75004   0.00000  Uiso   1.00
C943   C     0.70918   0.50001   0.74996   0.00000  Uiso   1.00
C944   C     0.90595   0.53524   0.61768   0.00000  Uiso   1.00
C945   C     0.90592   0.46460   0.88271   0.00000  Uiso   1.00
C946   C     0.76052   0.53533   0.88199   0.00000  Uiso   1.00
C947   C     0.83328   0.50002   0.66412   0.00000  Uiso   1.00
C948   C     0.76044   0.46487   0.61763   0.00000  Uiso   1.00
C949   C     0.83332   0.49998   0.83588   0.00000  Uiso   1.00
C950   C     0.86086   0.35728   0.77597   0.00000  Uiso   1.00
C951   C     0.80581   0.64272   0.72402   0.00000  Uiso   1.00
C952   C     0.80581   0.35735   0.72403   0.00000  Uiso   1.00
C953   C     0.86085   0.64265   0.77598   0.00000  Uiso   1.00
C954   C     0.68801   0.46135   0.73560   0.00000  Uiso   1.00
H955   H     0.89371   0.53107   0.52859   0.00000  Uiso   1.00
H956   H     0.91864   0.50862   0.64016   0.00000  Uiso   1.00
H957   H     0.93103   0.54531   0.59413   0.00000  Uiso   1.00
H958   H     0.89741   0.43436   0.86269   0.00000  Uiso   1.00
H959   H     0.91861   0.49114   0.86020   0.00000  Uiso   1.00
H960   H     0.93101   0.45456   0.90638   0.00000  Uiso   1.00
H961   H     0.74786   0.50877   0.85948   0.00000  Uiso   1.00
H962   H     0.73537   0.54544   0.90542   0.00000  Uiso   1.00
H963   H     0.76911   0.56553   0.86192   0.00000  Uiso   1.00
H964   H     0.74785   0.49141   0.64016   0.00000  Uiso   1.00
H965   H     0.73526   0.45488   0.59408   0.00000  Uiso   1.00
H966   H     0.89368   0.46888   0.97173   0.00000  Uiso   1.00
H967   H     0.76899   0.43461   0.63766   0.00000  Uiso   1.00
H968   H     0.70438   0.43150   0.72398   0.00000  Uiso   1.00
H969   H     0.96230   0.56854   0.77593   0.00000  Uiso   1.00
H970   H     0.96223   0.43144   0.72415   0.00000  Uiso   1.00
H971   H     0.70445   0.56853   0.77593   0.00000  Uiso   1.00
H972   H     0.77247   0.53108   0.97115   0.00000  Uiso   1.00
H973   H     0.77241   0.46916   0.52854   0.00000  Uiso   1.00
H974   H     0.88288   0.37541   0.79673   0.00000  Uiso   1.00
H975   H     0.78381   0.62459   0.70324   0.00000  Uiso   1.00
H976   H     0.78378   0.37553   0.70328   0.00000  Uiso   1.00
H977   H     0.88286   0.62446   0.79675   0.00000  Uiso   1.00
H978   H     0.89747   0.56544   0.63775   0.00000  Uiso   1.00
N979   N     0.83333   0.61907   0.75000   0.00000  Uiso   1.00
N980   N     0.83333   0.38093   0.75000   0.00000  Uiso   1.00
O981   O     0.77226   0.53821   0.75000   0.00000  Uiso   1.00
O982   O     0.89441   0.46179   0.75001   0.00000  Uiso   1.00
O983   O     0.89441   0.53821   0.75001   0.00000  Uiso   1.00
O984   O     0.77226   0.46179   0.75000   0.00000  Uiso   1.00
O985   O     0.83333   0.53822   0.68453   0.00000  Uiso   1.00
O986   O     0.83334   0.46178   0.81547   0.00000  Uiso   1.00
O987   O     0.83334   0.53822   0.81547   0.00000  Uiso   1.00
O988   O     0.83333   0.46178   0.68453   0.00000  Uiso   1.00
Zn989  Zn    0.83333   0.55104   0.75000   0.00000  Uiso   1.00
Zn990  Zn    0.83333   0.44896   0.75000   0.00000  Uiso   1.00
C991   C     0.08665   0.83334   0.74997   0.00000  Uiso   1.00
C992   C     0.31200   0.87200   0.76437   0.00000  Uiso   1.00
C993   C     0.31196   0.79466   0.73567   0.00000  Uiso   1.00
C994   C     0.02139   0.87200   0.76435   0.00000  Uiso   1.00
C995   C     0.20081   0.85077   0.54701   0.00000  Uiso   1.00
C996   C     0.20080   0.81590   0.95317   0.00000  Uiso   1.00
C997   C     0.13206   0.85071   0.95284   0.00000  Uiso   1.00
C998   C     0.13201   0.81613   0.54698   0.00000  Uiso   1.00
C999   C     0.20134   0.85084   0.59336   0.00000  Uiso   1.00
C1000  C     0.20134   0.81578   0.90682   0.00000  Uiso   1.00
C1001  C     0.13167   0.85079   0.90648   0.00000  Uiso   1.00
C1002  C     0.24669   0.83333   0.75003   0.00000  Uiso   1.00
C1003  C     0.13162   0.81600   0.59334   0.00000  Uiso   1.00
C1004  C     0.16652   0.83340   0.61630   0.00000  Uiso   1.00
C1005  C     0.16655   0.83328   0.88370   0.00000  Uiso   1.00
C1006  C     0.16639   0.83344   0.52412   0.00000  Uiso   1.00
C1007  C     0.16640   0.83333   0.97589   0.00000  Uiso   1.00
C1008  C     0.29083   0.83332   0.75004   0.00000  Uiso   1.00
C1009  C     0.04251   0.83335   0.74996   0.00000  Uiso   1.00
C1010  C     0.23928   0.86858   0.61768   0.00000  Uiso   1.00
C1011  C     0.23925   0.79793   0.88271   0.00000  Uiso   1.00
C1012  C     0.09385   0.86866   0.88199   0.00000  Uiso   1.00
C1013  C     0.16662   0.83335   0.66412   0.00000  Uiso   1.00
C1014  C     0.09378   0.79820   0.61763   0.00000  Uiso   1.00
C1015  C     0.16665   0.83332   0.83588   0.00000  Uiso   1.00
C1016  C     0.19419   0.69061   0.77597   0.00000  Uiso   1.00
C1017  C     0.13915   0.97606   0.72402   0.00000  Uiso   1.00
C1018  C     0.13914   0.69068   0.72403   0.00000  Uiso   1.00
C1019  C     0.19419   0.97598   0.77598   0.00000  Uiso   1.00
C1020  C     0.02135   0.79468   0.73560   0.00000  Uiso   1.00
H1021  H     0.22704   0.86440   0.52859   0.00000  Uiso   1.00
H1022  H     0.25197   0.84196   0.64016   0.00000  Uiso   1.00
H1023  H     0.26436   0.87865   0.59413   0.00000  Uiso   1.00
H1024  H     0.23074   0.76769   0.86269   0.00000  Uiso   1.00
H1025  H     0.25195   0.82447   0.86020   0.00000  Uiso   1.00
H1026  H     0.26434   0.78789   0.90638   0.00000  Uiso   1.00
H1027  H     0.08119   0.84211   0.85948   0.00000  Uiso   1.00
H1028  H     0.06870   0.87877   0.90542   0.00000  Uiso   1.00
H1029  H     0.10244   0.89886   0.86192   0.00000  Uiso   1.00
H1030  H     0.08118   0.82474   0.64016   0.00000  Uiso   1.00
H1031  H     0.06860   0.78822   0.59408   0.00000  Uiso   1.00
H1032  H     0.22701   0.80222   0.97173   0.00000  Uiso   1.00
H1033  H     0.10232   0.76794   0.63766   0.00000  Uiso   1.00
H1034  H     0.03771   0.76483   0.72398   0.00000  Uiso   1.00
H1035  H     0.29564   0.90187   0.77593   0.00000  Uiso   1.00
H1036  H     0.29557   0.76477   0.72415   0.00000  Uiso   1.00
H1037  H     0.03779   0.90186   0.77593   0.00000  Uiso   1.00
H1038  H     0.10580   0.86441   0.97115   0.00000  Uiso   1.00
H1039  H     0.10574   0.80249   0.52854   0.00000  Uiso   1.00
H1040  H     0.21621   0.70874   0.79673   0.00000  Uiso   1.00
H1041  H     0.11715   0.95792   0.70324   0.00000  Uiso   1.00
H1042  H     0.11712   0.70887   0.70328   0.00000  Uiso   1.00
H1043  H     0.21619   0.95779   0.79675   0.00000  Uiso   1.00
H1044  H     0.23081   0.89877   0.63775   0.00000  Uiso   1.00
N1045  N     0.16667   0.95240   0.75000   0.00000  Uiso   1.00
N1046  N     0.16667   0.71427   0.75000   0.00000  Uiso   1.00
O1047  O     0.10559   0.87154   0.75000   0.00000  Uiso   1.00
O1048  O     0.22774   0.79513   0.75001   0.00000  Uiso   1.00
O1049  O     0.22774   0.87154   0.75001   0.00000  Uiso   1.00
O1050  O     0.10559   0.79513   0.75000   0.00000  Uiso   1.00
O1051  O     0.16666   0.87155   0.68453   0.00000  Uiso   1.00
O1052  O     0.16667   0.79511   0.81547   0.00000  Uiso   1.00
O1053  O     0.16667   0.87155   0.81547   0.00000  Uiso   1.00
O1054  O     0.16666   0.79511   0.68453   0.00000  Uiso   1.00
Zn1055 Zn    0.16667   0.88437   0.75000   0.00000  Uiso   1.00
Zn1056 Zn    0.16667   0.78229   0.75000   0.00000  Uiso   1.00
C1057  C     0.41998   0.83334   0.74997   0.00000  Uiso   1.00
C1058  C     0.64533   0.87200   0.76437   0.00000  Uiso   1.00
C1059  C     0.64529   0.79466   0.73567   0.00000  Uiso   1.00
C1060  C     0.35472   0.87200   0.76435   0.00000  Uiso   1.00
C1061  C     0.53414   0.85077   0.54701   0.00000  Uiso   1.00
C1062  C     0.53413   0.81590   0.95317   0.00000  Uiso   1.00
C1063  C     0.46539   0.85071   0.95284   0.00000  Uiso   1.00
C1064  C     0.46535   0.81613   0.54698   0.00000  Uiso   1.00
C1065  C     0.53468   0.85084   0.59336   0.00000  Uiso   1.00
C1066  C     0.53468   0.81578   0.90682   0.00000  Uiso   1.00
C1067  C     0.46500   0.85079   0.90648   0.00000  Uiso   1.00
C1068  C     0.58002   0.83333   0.75003   0.00000  Uiso   1.00
C1069  C     0.46495   0.81600   0.59334   0.00000  Uiso   1.00
C1070  C     0.49986   0.83340   0.61630   0.00000  Uiso   1.00
C1071  C     0.49988   0.83328   0.88370   0.00000  Uiso   1.00
C1072  C     0.49972   0.83344   0.52412   0.00000  Uiso   1.00
C1073  C     0.49974   0.83333   0.97589   0.00000  Uiso   1.00
C1074  C     0.62416   0.83332   0.75004   0.00000  Uiso   1.00
C1075  C     0.37584   0.83335   0.74996   0.00000  Uiso   1.00
C1076  C     0.57261   0.86858   0.61768   0.00000  Uiso   1.00
C1077  C     0.57258   0.79793   0.88271   0.00000  Uiso   1.00
C1078  C     0.42719   0.86866   0.88199   0.00000  Uiso   1.00
C1079  C     0.49995   0.83335   0.66412   0.00000  Uiso   1.00
C1080  C     0.42711   0.79820   0.61763   0.00000  Uiso   1.00
C1081  C     0.49999   0.83332   0.83588   0.00000  Uiso   1.00
C1082  C     0.52753   0.69061   0.77597   0.00000  Uiso   1.00
C1083  C     0.47248   0.97606   0.72402   0.00000  Uiso   1.00
C1084  C     0.47247   0.69068   0.72403   0.00000  Uiso   1.00
C1085  C     0.52752   0.97598   0.77598   0.00000  Uiso   1.00
C1086  C     0.35468   0.79468   0.73560   0.00000  Uiso   1.00
H1087  H     0.56038   0.86440   0.52859   0.00000  Uiso   1.00
H1088  H     0.58530   0.84196   0.64016   0.00000  Uiso   1.00
H1089  H     0.59769   0.87865   0.59413   0.00000  Uiso   1.00
H1090  H     0.56408   0.76769   0.86269   0.00000  Uiso   1.00
H1091  H     0.58528   0.82447   0.86020   0.00000  Uiso   1.00
H1092  H     0.59767   0.78789   0.90638   0.00000  Uiso   1.00
H1093  H     0.41453   0.84211   0.85948   0.00000  Uiso   1.00
H1094  H     0.40204   0.87877   0.90542   0.00000  Uiso   1.00
H1095  H     0.43577   0.89886   0.86192   0.00000  Uiso   1.00
H1096  H     0.41452   0.82474   0.64016   0.00000  Uiso   1.00
H1097  H     0.40193   0.78822   0.59408   0.00000  Uiso   1.00
H1098  H     0.56034   0.80222   0.97173   0.00000  Uiso   1.00
H1099  H     0.43565   0.76794   0.63766   0.00000  Uiso   1.00
H1100  H     0.37105   0.76483   0.72398   0.00000  Uiso   1.00
H1101  H     0.62897   0.90187   0.77593   0.00000  Uiso   1.00
H1102  H     0.62890   0.76477   0.72415   0.00000  Uiso   1.00
H1103  H     0.37112   0.90186   0.77593   0.00000  Uiso   1.00
H1104  H     0.43913   0.86441   0.97115   0.00000  Uiso   1.00
H1105  H     0.43907   0.80249   0.52854   0.00000  Uiso   1.00
H1106  H     0.54954   0.70874   0.79673   0.00000  Uiso   1.00
H1107  H     0.45048   0.95792   0.70324   0.00000  Uiso   1.00
H1108  H     0.45045   0.70887   0.70328   0.00000  Uiso   1.00
H1109  H     0.54952   0.95779   0.79675   0.00000  Uiso   1.00
H1110  H     0.56414   0.89877   0.63775   0.00000  Uiso   1.00
N1111  N     0.50000   0.95240   0.75000   0.00000  Uiso   1.00
N1112  N     0.50000   0.71427   0.75000   0.00000  Uiso   1.00
O1113  O     0.43892   0.87154   0.75000   0.00000  Uiso   1.00
O1114  O     0.56108   0.79513   0.75001   0.00000  Uiso   1.00
O1115  O     0.56108   0.87154   0.75001   0.00000  Uiso   1.00
O1116  O     0.43892   0.79513   0.75000   0.00000  Uiso   1.00
O1117  O     0.50000   0.87155   0.68453   0.00000  Uiso   1.00
O1118  O     0.50000   0.79511   0.81547   0.00000  Uiso   1.00
O1119  O     0.50000   0.87155   0.81547   0.00000  Uiso   1.00
O1120  O     0.50000   0.79511   0.68453   0.00000  Uiso   1.00
Zn1121 Zn    0.50000   0.88437   0.75000   0.00000  Uiso   1.00
Zn1122 Zn    0.50000   0.78229   0.75000   0.00000  Uiso   1.00
C1123  C     0.75331   0.83334   0.74997   0.00000  Uiso   1.00
C1124  C     0.97867   0.87200   0.76437   0.00000  Uiso   1.00
C1125  C     0.97863   0.79466   0.73567   0.00000  Uiso   1.00
C1126  C     0.68805   0.87200   0.76435   0.00000  Uiso   1.00
C1127  C     0.86747   0.85077   0.54701   0.00000  Uiso   1.00
C1128  C     0.86746   0.81590   0.95317   0.00000  Uiso   1.00
C1129  C     0.79873   0.85071   0.95284   0.00000  Uiso   1.00
C1130  C     0.79868   0.81613   0.54698   0.00000  Uiso   1.00
C1131  C     0.86801   0.85084   0.59336   0.00000  Uiso   1.00
C1132  C     0.86801   0.81578   0.90682   0.00000  Uiso   1.00
C1133  C     0.79834   0.85079   0.90648   0.00000  Uiso   1.00
C1134  C     0.91336   0.83333   0.75003   0.00000  Uiso   1.00
C1135  C     0.79829   0.81600   0.59334   0.00000  Uiso   1.00
C1136  C     0.83319   0.83340   0.61630   0.00000  Uiso   1.00
C1137  C     0.83322   0.83328   0.88370   0.00000  Uiso   1.00
C1138  C     0.83306   0.83344   0.52412   0.00000  Uiso   1.00
C1139  C     0.83307   0.83333   0.97589   0.00000  Uiso   1.00
C1140  C     0.95750   0.83332   0.75004   0.00000  Uiso   1.00
C1141  C     0.70918   0.83335   0.74996   0.00000  Uiso   1.00
C1142  C     0.90595   0.86858   0.61768   0.00000  Uiso   1.00
C1143  C     0.90592   0.79793   0.88271   0.00000  Uiso   1.00
C1144  C     0.76052   0.86866   0.88199   0.00000  Uiso   1.00
C1145  C     0.83328   0.83335   0.66412   0.00000  Uiso   1.00
C1146  C     0.76044   0.79820   0.61763   0.00000  Uiso   1.00
C1147  C     0.83332   0.83332   0.83588   0.00000  Uiso   1.00
C1148  C     0.86086   0.69061   0.77597   0.00000  Uiso   1.00
C1149  C     0.80581   0.97606   0.72402   0.00000  Uiso   1.00
C1150  C     0.80581   0.69068   0.72403   0.00000  Uiso   1.00
C1151  C     0.86085   0.97598   0.77598   0.00000  Uiso   1.00
C1152  C     0.68801   0.79468   0.73560   0.00000  Uiso   1.00
H1153  H     0.89371   0.86440   0.52859   0.00000  Uiso   1.00
H1154  H     0.91864   0.84196   0.64016   0.00000  Uiso   1.00
H1155  H     0.93103   0.87865   0.59413   0.00000  Uiso   1.00
H1156  H     0.89741   0.76769   0.86269   0.00000  Uiso   1.00
H1157  H     0.91861   0.82447   0.86020   0.00000  Uiso   1.00
H1158  H     0.93101   0.78789   0.90638   0.00000  Uiso   1.00
H1159  H     0.74786   0.84211   0.85948   0.00000  Uiso   1.00
H1160  H     0.73537   0.87877   0.90542   0.00000  Uiso   1.00
H1161  H     0.76911   0.89886   0.86192   0.00000  Uiso   1.00
H1162  H     0.74785   0.82474   0.64016   0.00000  Uiso   1.00
H1163  H     0.73526   0.78822   0.59408   0.00000  Uiso   1.00
H1164  H     0.89368   0.80222   0.97173   0.00000  Uiso   1.00
H1165  H     0.76899   0.76794   0.63766   0.00000  Uiso   1.00
H1166  H     0.70438   0.76483   0.72398   0.00000  Uiso   1.00
H1167  H     0.96230   0.90187   0.77593   0.00000  Uiso   1.00
H1168  H     0.96223   0.76477   0.72415   0.00000  Uiso   1.00
H1169  H     0.70445   0.90186   0.77593   0.00000  Uiso   1.00
H1170  H     0.77247   0.86441   0.97115   0.00000  Uiso   1.00
H1171  H     0.77241   0.80249   0.52854   0.00000  Uiso   1.00
H1172  H     0.88288   0.70874   0.79673   0.00000  Uiso   1.00
H1173  H     0.78381   0.95792   0.70324   0.00000  Uiso   1.00
H1174  H     0.78378   0.70887   0.70328   0.00000  Uiso   1.00
H1175  H     0.88286   0.95779   0.79675   0.00000  Uiso   1.00
H1176  H     0.89747   0.89877   0.63775   0.00000  Uiso   1.00
N1177  N     0.83333   0.95240   0.75000   0.00000  Uiso   1.00
N1178  N     0.83333   0.71427   0.75000   0.00000  Uiso   1.00
O1179  O     0.77226   0.87154   0.75000   0.00000  Uiso   1.00
O1180  O     0.89441   0.79513   0.75001   0.00000  Uiso   1.00
O1181  O     0.89441   0.87154   0.75001   0.00000  Uiso   1.00
O1182  O     0.77226   0.79513   0.75000   0.00000  Uiso   1.00
O1183  O     0.83333   0.87155   0.68453   0.00000  Uiso   1.00
O1184  O     0.83334   0.79511   0.81547   0.00000  Uiso   1.00
O1185  O     0.83334   0.87155   0.81547   0.00000  Uiso   1.00
O1186  O     0.83333   0.79511   0.68453   0.00000  Uiso   1.00
Zn1187 Zn    0.83333   0.88437   0.75000   0.00000  Uiso   1.00
Zn1188 Zn    0.83333   0.78229   0.75000   0.00000  Uiso   1.00
loop_
_geom_bond_atom_site_label_1
_geom_bond_atom_site_label_2
_geom_bond_distance
_geom_bond_site_symmetry_2
_ccdc_geom_bond_type
C1     O57     1.282   .     A
C1     C19     1.416   .     S
C1     O60     1.282   .     A
C2     C18     1.396   .     A
C2     H45     1.084   .     S
C2     C70     1.370   .     S
C3     H46     1.084   .     S
C3     C18     1.396   .     A
C3     C96     1.370   .     S
C4     H47     1.084   .     S
C4     C19     1.396   .     A
C4     C134    1.370   1_455 S
C5     C9      1.386   .     A
C5     C16     1.396   .     A
C5     H31     1.084   .     S
C6     C10     1.386   .     A
C6     H42     1.084   .     S
C6     C17     1.396   .     A
C7     H48     1.084   .     S
C7     C11     1.387   .     A
C7     C17     1.396   .     A
C8     C13     1.387   .     A
C8     C16     1.396   .     A
C8     H49     1.084   .     S
C9     C14     1.410   .     A
C9     C20     1.510   .     S
C10    C15     1.410   .     A
C10    C21     1.510   .     S
C11    C22     1.511   .     S
C11    C15     1.410   .     A
C12    O58     1.282   .     A
C12    O59     1.282   .     A
C12    C18     1.416   .     S
C13    C14     1.410   .     A
C13    C24     1.511   .     S
C14    C23     1.430   .     S
C15    C25     1.430   .     S
C16    C611    1.443   1_554 S
C17    C610    1.443   .     S
C19    C30     1.396   .     A
C20    H32     1.111   .     S
C20    H33     1.111   .     S
C20    H54     1.110   .     S
C21    H35     1.111   .     S
C21    H34     1.110   .     S
C21    H36     1.111   .     S
C22    H37     1.111   .     S
C22    H39     1.110   .     S
C22    H38     1.111   .     S
C23    O64     1.283   .     A
C23    O61     1.283   .     A
C24    H41     1.111   .     S
C24    H43     1.110   .     S
C24    H40     1.111   .     S
C25    O62     1.283   .     A
C25    O63     1.283   .     A
C26    H50     1.082   .     S
C26    N56     1.366   .     A
C26    C425    1.416   1_545 S
C27    H51     1.082   .     S
C27    N55     1.366   .     A
C27    C226    1.416   .     S
C28    H52     1.082   .     S
C28    N56     1.366   .     A
C28    C423    1.416   1_545 S
C29    N55     1.366   .     A
C29    H53     1.082   .     S
C29    C224    1.416   .     S
C30    H44     1.084   .     S
C30    C135    1.370   1_455 S
N55    Zn65    2.009   .     S
N56    Zn66    2.009   .     S
O57    Zn65    1.996   .     S
O58    Zn66    1.996   .     S
O59    Zn65    1.995   .     S
O60    Zn66    1.995   .     S
O61    Zn65    1.995   .     S
O62    Zn66    1.995   .     S
O63    Zn65    1.994   .     S
O64    Zn66    1.994   .     S
C67    O123    1.282   .     A
C67    C85     1.416   .     S
C67    O126    1.282   .     A
C68    C84     1.396   .     A
C68    H111    1.084   .     S
C68    C136    1.370   .     S
C69    H112    1.084   .     S
C69    C84     1.396   .     A
C69    C162    1.370   .     S
C70    H113    1.084   .     S
C70    C85     1.396   .     A
C71    C75     1.386   .     A
C71    C82     1.396   .     A
C71    H97     1.084   .     S
C72    C76     1.386   .     A
C72    H108    1.084   .     S
C72    C83     1.396   .     A
C73    H114    1.084   .     S
C73    C77     1.387   .     A
C73    C83     1.396   .     A
C74    C79     1.387   .     A
C74    C82     1.396   .     A
C74    H115    1.084   .     S
C75    C80     1.410   .     A
C75    C86     1.510   .     S
C76    C81     1.410   .     A
C76    C87     1.510   .     S
C77    C88     1.511   .     S
C77    C81     1.410   .     A
C78    O124    1.282   .     A
C78    O125    1.282   .     A
C78    C84     1.416   .     S
C79    C80     1.410   .     A
C79    C90     1.511   .     S
C80    C89     1.430   .     S
C81    C91     1.430   .     S
C82    C677    1.443   1_554 S
C83    C676    1.443   .     S
C85    C96     1.396   .     A
C86    H98     1.111   .     S
C86    H99     1.111   .     S
C86    H120    1.110   .     S
C87    H101    1.111   .     S
C87    H100    1.110   .     S
C87    H102    1.111   .     S
C88    H103    1.111   .     S
C88    H105    1.110   .     S
C88    H104    1.111   .     S
C89    O130    1.283   .     A
C89    O127    1.283   .     A
C90    H107    1.111   .     S
C90    H109    1.110   .     S
C90    H106    1.111   .     S
C91    O128    1.283   .     A
C91    O129    1.283   .     A
C92    H116    1.082   .     S
C92    N122    1.366   .     A
C92    C491    1.416   1_545 S
C93    H117    1.082   .     S
C93    N121    1.366   .     A
C93    C292    1.416   .     S
C94    H118    1.082   .     S
C94    N122    1.366   .     A
C94    C489    1.416   1_545 S
C95    N121    1.366   .     A
C95    H119    1.082   .     S
C95    C290    1.416   .     S
C96    H110    1.084   .     S
N121   Zn131   2.009   .     S
N122   Zn132   2.009   .     S
O123   Zn131   1.996   .     S
O124   Zn132   1.996   .     S
O125   Zn131   1.995   .     S
O126   Zn132   1.995   .     S
O127   Zn131   1.995   .     S
O128   Zn132   1.995   .     S
O129   Zn131   1.994   .     S
O130   Zn132   1.994   .     S
C133   O189    1.282   .     A
C133   C151    1.416   .     S
C133   O192    1.282   .     A
C134   C150    1.396   .     A
C134   H177    1.084   .     S
C134   C4      1.370   1_655 S
C135   H178    1.084   .     S
C135   C150    1.396   .     A
C135   C30     1.370   1_655 S
C136   H179    1.084   .     S
C136   C151    1.396   .     A
C137   C141    1.386   .     A
C137   C148    1.396   .     A
C137   H163    1.084   .     S
C138   C142    1.386   .     A
C138   H174    1.084   .     S
C138   C149    1.396   .     A
C139   H180    1.084   .     S
C139   C143    1.387   .     A
C139   C149    1.396   .     A
C140   C145    1.387   .     A
C140   C148    1.396   .     A
C140   H181    1.084   .     S
C141   C146    1.410   .     A
C141   C152    1.510   .     S
C142   C147    1.410   .     A
C142   C153    1.510   .     S
C143   C154    1.511   .     S
C143   C147    1.410   .     A
C144   O190    1.282   .     A
C144   O191    1.282   .     A
C144   C150    1.416   .     S
C145   C146    1.410   .     A
C145   C156    1.511   .     S
C146   C155    1.430   .     S
C147   C157    1.430   .     S
C148   C743    1.443   1_554 S
C149   C742    1.443   .     S
C151   C162    1.396   .     A
C152   H164    1.111   .     S
C152   H165    1.111   .     S
C152   H186    1.110   .     S
C153   H167    1.111   .     S
C153   H166    1.110   .     S
C153   H168    1.111   .     S
C154   H169    1.111   .     S
C154   H171    1.110   .     S
C154   H170    1.111   .     S
C155   O196    1.283   .     A
C155   O193    1.283   .     A
C156   H173    1.111   .     S
C156   H175    1.110   .     S
C156   H172    1.111   .     S
C157   O194    1.283   .     A
C157   O195    1.283   .     A
C158   H182    1.082   .     S
C158   N188    1.366   .     A
C158   C557    1.416   1_545 S
C159   H183    1.082   .     S
C159   N187    1.366   .     A
C159   C358    1.416   .     S
C160   H184    1.082   .     S
C160   N188    1.366   .     A
C160   C555    1.416   1_545 S
C161   N187    1.366   .     A
C161   H185    1.082   .     S
C161   C356    1.416   .     S
C162   H176    1.084   .     S
N187   Zn197   2.009   .     S
N188   Zn198   2.009   .     S
O189   Zn197   1.996   .     S
O190   Zn198   1.996   .     S
O191   Zn197   1.995   .     S
O192   Zn198   1.995   .     S
O193   Zn197   1.995   .     S
O194   Zn198   1.995   .     S
O195   Zn197   1.994   .     S
O196   Zn198   1.994   .     S
C199   O255    1.282   .     A
C199   C217    1.416   .     S
C199   O258    1.282   .     A
C200   C216    1.396   .     A
C200   H243    1.084   .     S
C200   C268    1.370   .     S
C201   H244    1.084   .     S
C201   C216    1.396   .     A
C201   C294    1.370   .     S
C202   H245    1.084   .     S
C202   C217    1.396   .     A
C202   C332    1.370   1_455 S
C203   C207    1.386   .     A
C203   C214    1.396   .     A
C203   H229    1.084   .     S
C204   C208    1.386   .     A
C204   H240    1.084   .     S
C204   C215    1.396   .     A
C205   H246    1.084   .     S
C205   C209    1.387   .     A
C205   C215    1.396   .     A
C206   C211    1.387   .     A
C206   C214    1.396   .     A
C206   H247    1.084   .     S
C207   C212    1.410   .     A
C207   C218    1.510   .     S
C208   C213    1.410   .     A
C208   C219    1.510   .     S
C209   C220    1.511   .     S
C209   C213    1.410   .     A
C210   O256    1.282   .     A
C210   O257    1.282   .     A
C210   C216    1.416   .     S
C211   C212    1.410   .     A
C211   C222    1.511   .     S
C212   C221    1.430   .     S
C213   C223    1.430   .     S
C214   C809    1.443   1_554 S
C215   C808    1.443   .     S
C217   C228    1.396   .     A
C218   H230    1.111   .     S
C218   H231    1.111   .     S
C218   H252    1.110   .     S
C219   H233    1.111   .     S
C219   H232    1.110   .     S
C219   H234    1.111   .     S
C220   H235    1.111   .     S
C220   H237    1.110   .     S
C220   H236    1.111   .     S
C221   O262    1.283   .     A
C221   O259    1.283   .     A
C222   H239    1.111   .     S
C222   H241    1.110   .     S
C222   H238    1.111   .     S
C223   O260    1.283   .     A
C223   O261    1.283   .     A
C224   H248    1.082   .     S
C224   N254    1.366   .     A
C225   H249    1.082   .     S
C225   N253    1.366   .     A
C225   C424    1.416   .     S
C226   H250    1.082   .     S
C226   N254    1.366   .     A
C227   N253    1.366   .     A
C227   H251    1.082   .     S
C227   C422    1.416   .     S
C228   H242    1.084   .     S
C228   C333    1.370   1_455 S
N253   Zn263   2.009   .     S
N254   Zn264   2.009   .     S
O255   Zn263   1.996   .     S
O256   Zn264   1.996   .     S
O257   Zn263   1.995   .     S
O258   Zn264   1.995   .     S
O259   Zn263   1.995   .     S
O260   Zn264   1.995   .     S
O261   Zn263   1.994   .     S
O262   Zn264   1.994   .     S
C265   O321    1.282   .     A
C265   C283    1.416   .     S
C265   O324    1.282   .     A
C266   C282    1.396   .     A
C266   H309    1.084   .     S
C266   C334    1.370   .     S
C267   H310    1.084   .     S
C267   C282    1.396   .     A
C267   C360    1.370   .     S
C268   H311    1.084   .     S
C268   C283    1.396   .     A
C269   C273    1.386   .     A
C269   C280    1.396   .     A
C269   H295    1.084   .     S
C270   C274    1.386   .     A
C270   H306    1.084   .     S
C270   C281    1.396   .     A
C271   H312    1.084   .     S
C271   C275    1.387   .     A
C271   C281    1.396   .     A
C272   C277    1.387   .     A
C272   C280    1.396   .     A
C272   H313    1.084   .     S
C273   C278    1.410   .     A
C273   C284    1.510   .     S
C274   C279    1.410   .     A
C274   C285    1.510   .     S
C275   C286    1.511   .     S
C275   C279    1.410   .     A
C276   O322    1.282   .     A
C276   O323    1.282   .     A
C276   C282    1.416   .     S
C277   C278    1.410   .     A
C277   C288    1.511   .     S
C278   C287    1.430   .     S
C279   C289    1.430   .     S
C280   C875    1.443   1_554 S
C281   C874    1.443   .     S
C283   C294    1.396   .     A
C284   H296    1.111   .     S
C284   H297    1.111   .     S
C284   H318    1.110   .     S
C285   H299    1.111   .     S
C285   H298    1.110   .     S
C285   H300    1.111   .     S
C286   H301    1.111   .     S
C286   H303    1.110   .     S
C286   H302    1.111   .     S
C287   O328    1.283   .     A
C287   O325    1.283   .     A
C288   H305    1.111   .     S
C288   H307    1.110   .     S
C288   H304    1.111   .     S
C289   O326    1.283   .     A
C289   O327    1.283   .     A
C290   H314    1.082   .     S
C290   N320    1.366   .     A
C291   H315    1.082   .     S
C291   N319    1.366   .     A
C291   C490    1.416   .     S
C292   H316    1.082   .     S
C292   N320    1.366   .     A
C293   N319    1.366   .     A
C293   H317    1.082   .     S
C293   C488    1.416   .     S
C294   H308    1.084   .     S
N319   Zn329   2.009   .     S
N320   Zn330   2.009   .     S
O321   Zn329   1.996   .     S
O322   Zn330   1.996   .     S
O323   Zn329   1.995   .     S
O324   Zn330   1.995   .     S
O325   Zn329   1.995   .     S
O326   Zn330   1.995   .     S
O327   Zn329   1.994   .     S
O328   Zn330   1.994   .     S
C331   O387    1.282   .     A
C331   C349    1.416   .     S
C331   O390    1.282   .     A
C332   C348    1.396   .     A
C332   H375    1.084   .     S
C332   C202    1.370   1_655 S
C333   H376    1.084   .     S
C333   C348    1.396   .     A
C333   C228    1.370   1_655 S
C334   H377    1.084   .     S
C334   C349    1.396   .     A
C335   C339    1.386   .     A
C335   C346    1.396   .     A
C335   H361    1.084   .     S
C336   C340    1.386   .     A
C336   H372    1.084   .     S
C336   C347    1.396   .     A
C337   H378    1.084   .     S
C337   C341    1.387   .     A
C337   C347    1.396   .     A
C338   C343    1.387   .     A
C338   C346    1.396   .     A
C338   H379    1.084   .     S
C339   C344    1.410   .     A
C339   C350    1.510   .     S
C340   C345    1.410   .     A
C340   C351    1.510   .     S
C341   C352    1.511   .     S
C341   C345    1.410   .     A
C342   O388    1.282   .     A
C342   O389    1.282   .     A
C342   C348    1.416   .     S
C343   C344    1.410   .     A
C343   C354    1.511   .     S
C344   C353    1.430   .     S
C345   C355    1.430   .     S
C346   C941    1.443   1_554 S
C347   C940    1.443   .     S
C349   C360    1.396   .     A
C350   H362    1.111   .     S
C350   H363    1.111   .     S
C350   H384    1.110   .     S
C351   H365    1.111   .     S
C351   H364    1.110   .     S
C351   H366    1.111   .     S
C352   H367    1.111   .     S
C352   H369    1.110   .     S
C352   H368    1.111   .     S
C353   O394    1.283   .     A
C353   O391    1.283   .     A
C354   H371    1.111   .     S
C354   H373    1.110   .     S
C354   H370    1.111   .     S
C355   O392    1.283   .     A
C355   O393    1.283   .     A
C356   H380    1.082   .     S
C356   N386    1.366   .     A
C357   H381    1.082   .     S
C357   N385    1.366   .     A
C357   C556    1.416   .     S
C358   H382    1.082   .     S
C358   N386    1.366   .     A
C359   N385    1.366   .     A
C359   H383    1.082   .     S
C359   C554    1.416   .     S
C360   H374    1.084   .     S
N385   Zn395   2.009   .     S
N386   Zn396   2.009   .     S
O387   Zn395   1.996   .     S
O388   Zn396   1.996   .     S
O389   Zn395   1.995   .     S
O390   Zn396   1.995   .     S
O391   Zn395   1.995   .     S
O392   Zn396   1.995   .     S
O393   Zn395   1.994   .     S
O394   Zn396   1.994   .     S
C397   O453    1.282   .     A
C397   C415    1.416   .     S
C397   O456    1.282   .     A
C398   C414    1.396   .     A
C398   H441    1.084   .     S
C398   C466    1.370   .     S
C399   H442    1.084   .     S
C399   C414    1.396   .     A
C399   C492    1.370   .     S
C400   H443    1.084   .     S
C400   C415    1.396   .     A
C400   C530    1.370   1_455 S
C401   C405    1.386   .     A
C401   C412    1.396   .     A
C401   H427    1.084   .     S
C402   C406    1.386   .     A
C402   H438    1.084   .     S
C402   C413    1.396   .     A
C403   H444    1.084   .     S
C403   C407    1.387   .     A
C403   C413    1.396   .     A
C404   C409    1.387   .     A
C404   C412    1.396   .     A
C404   H445    1.084   .     S
C405   C410    1.410   .     A
C405   C416    1.510   .     S
C406   C411    1.410   .     A
C406   C417    1.510   .     S
C407   C418    1.511   .     S
C407   C411    1.410   .     A
C408   O454    1.282   .     A
C408   O455    1.282   .     A
C408   C414    1.416   .     S
C409   C410    1.410   .     A
C409   C420    1.511   .     S
C410   C419    1.430   .     S
C411   C421    1.430   .     S
C412   C1007   1.443   1_554 S
C413   C1006   1.443   .     S
C415   C426    1.396   .     A
C416   H428    1.111   .     S
C416   H429    1.111   .     S
C416   H450    1.110   .     S
C417   H431    1.111   .     S
C417   H430    1.110   .     S
C417   H432    1.111   .     S
C418   H433    1.111   .     S
C418   H435    1.110   .     S
C418   H434    1.111   .     S
C419   O460    1.283   .     A
C419   O457    1.283   .     A
C420   H437    1.111   .     S
C420   H439    1.110   .     S
C420   H436    1.111   .     S
C421   O458    1.283   .     A
C421   O459    1.283   .     A
C422   H446    1.082   .     S
C422   N452    1.366   .     A
C423   H447    1.082   .     S
C423   N451    1.366   .     A
C423   C28     1.416   1_565 S
C424   H448    1.082   .     S
C424   N452    1.366   .     A
C425   N451    1.366   .     A
C425   H449    1.082   .     S
C425   C26     1.416   1_565 S
C426   H440    1.084   .     S
C426   C531    1.370   1_455 S
N451   Zn461   2.009   .     S
N452   Zn462   2.009   .     S
O453   Zn461   1.996   .     S
O454   Zn462   1.996   .     S
O455   Zn461   1.995   .     S
O456   Zn462   1.995   .     S
O457   Zn461   1.995   .     S
O458   Zn462   1.995   .     S
O459   Zn461   1.994   .     S
O460   Zn462   1.994   .     S
C463   O519    1.282   .     A
C463   C481    1.416   .     S
C463   O522    1.282   .     A
C464   C480    1.396   .     A
C464   H507    1.084   .     S
C464   C532    1.370   .     S
C465   H508    1.084   .     S
C465   C480    1.396   .     A
C465   C558    1.370   .     S
C466   H509    1.084   .     S
C466   C481    1.396   .     A
C467   C471    1.386   .     A
C467   C478    1.396   .     A
C467   H493    1.084   .     S
C468   C472    1.386   .     A
C468   H504    1.084   .     S
C468   C479    1.396   .     A
C469   H510    1.084   .     S
C469   C473    1.387   .     A
C469   C479    1.396   .     A
C470   C475    1.387   .     A
C470   C478    1.396   .     A
C470   H511    1.084   .     S
C471   C476    1.410   .     A
C471   C482    1.510   .     S
C472   C477    1.410   .     A
C472   C483    1.510   .     S
C473   C484    1.511   .     S
C473   C477    1.410   .     A
C474   O520    1.282   .     A
C474   O521    1.282   .     A
C474   C480    1.416   .     S
C475   C476    1.410   .     A
C475   C486    1.511   .     S
C476   C485    1.430   .     S
C477   C487    1.430   .     S
C478   C1073   1.443   1_554 S
C479   C1072   1.443   .     S
C481   C492    1.396   .     A
C482   H494    1.111   .     S
C482   H495    1.111   .     S
C482   H516    1.110   .     S
C483   H497    1.111   .     S
C483   H496    1.110   .     S
C483   H498    1.111   .     S
C484   H499    1.111   .     S
C484   H501    1.110   .     S
C484   H500    1.111   .     S
C485   O526    1.283   .     A
C485   O523    1.283   .     A
C486   H503    1.111   .     S
C486   H505    1.110   .     S
C486   H502    1.111   .     S
C487   O524    1.283   .     A
C487   O525    1.283   .     A
C488   H512    1.082   .     S
C488   N518    1.366   .     A
C489   H513    1.082   .     S
C489   N517    1.366   .     A
C489   C94     1.416   1_565 S
C490   H514    1.082   .     S
C490   N518    1.366   .     A
C491   N517    1.366   .     A
C491   H515    1.082   .     S
C491   C92     1.416   1_565 S
C492   H506    1.084   .     S
N517   Zn527   2.009   .     S
N518   Zn528   2.009   .     S
O519   Zn527   1.996   .     S
O520   Zn528   1.996   .     S
O521   Zn527   1.995   .     S
O522   Zn528   1.995   .     S
O523   Zn527   1.995   .     S
O524   Zn528   1.995   .     S
O525   Zn527   1.994   .     S
O526   Zn528   1.994   .     S
C529   O585    1.282   .     A
C529   C547    1.416   .     S
C529   O588    1.282   .     A
C530   C546    1.396   .     A
C530   H573    1.084   .     S
C530   C400    1.370   1_655 S
C531   H574    1.084   .     S
C531   C546    1.396   .     A
C531   C426    1.370   1_655 S
C532   H575    1.084   .     S
C532   C547    1.396   .     A
C533   C537    1.386   .     A
C533   C544    1.396   .     A
C533   H559    1.084   .     S
C534   C538    1.386   .     A
C534   H570    1.084   .     S
C534   C545    1.396   .     A
C535   H576    1.084   .     S
C535   C539    1.387   .     A
C535   C545    1.396   .     A
C536   C541    1.387   .     A
C536   C544    1.396   .     A
C536   H577    1.084   .     S
C537   C542    1.410   .     A
C537   C548    1.510   .     S
C538   C543    1.410   .     A
C538   C549    1.510   .     S
C539   C550    1.511   .     S
C539   C543    1.410   .     A
C540   O586    1.282   .     A
C540   O587    1.282   .     A
C540   C546    1.416   .     S
C541   C542    1.410   .     A
C541   C552    1.511   .     S
C542   C551    1.430   .     S
C543   C553    1.430   .     S
C544   C1139   1.443   1_554 S
C545   C1138   1.443   .     S
C547   C558    1.396   .     A
C548   H560    1.111   .     S
C548   H561    1.111   .     S
C548   H582    1.110   .     S
C549   H563    1.111   .     S
C549   H562    1.110   .     S
C549   H564    1.111   .     S
C550   H565    1.111   .     S
C550   H567    1.110   .     S
C550   H566    1.111   .     S
C551   O592    1.283   .     A
C551   O589    1.283   .     A
C552   H569    1.111   .     S
C552   H571    1.110   .     S
C552   H568    1.111   .     S
C553   O590    1.283   .     A
C553   O591    1.283   .     A
C554   H578    1.082   .     S
C554   N584    1.366   .     A
C555   H579    1.082   .     S
C555   N583    1.366   .     A
C555   C160    1.416   1_565 S
C556   H580    1.082   .     S
C556   N584    1.366   .     A
C557   N583    1.366   .     A
C557   H581    1.082   .     S
C557   C158    1.416   1_565 S
C558   H572    1.084   .     S
N583   Zn593   2.009   .     S
N584   Zn594   2.009   .     S
O585   Zn593   1.996   .     S
O586   Zn594   1.996   .     S
O587   Zn593   1.995   .     S
O588   Zn594   1.995   .     S
O589   Zn593   1.995   .     S
O590   Zn594   1.995   .     S
O591   Zn593   1.994   .     S
O592   Zn594   1.994   .     S
C595   O651    1.282   .     A
C595   C613    1.416   .     S
C595   O654    1.282   .     A
C596   C612    1.396   .     A
C596   H639    1.084   .     S
C596   C664    1.370   .     S
C597   H640    1.084   .     S
C597   C612    1.396   .     A
C597   C690    1.370   .     S
C598   H641    1.084   .     S
C598   C613    1.396   .     A
C598   C728    1.370   1_455 S
C599   C603    1.386   .     A
C599   C610    1.396   .     A
C599   H625    1.084   .     S
C600   C604    1.386   .     A
C600   H636    1.084   .     S
C600   C611    1.396   .     A
C601   H642    1.084   .     S
C601   C605    1.387   .     A
C601   C611    1.396   .     A
C602   C607    1.387   .     A
C602   C610    1.396   .     A
C602   H643    1.084   .     S
C603   C608    1.410   .     A
C603   C614    1.510   .     S
C604   C609    1.410   .     A
C604   C615    1.510   .     S
C605   C616    1.511   .     S
C605   C609    1.410   .     A
C606   O652    1.282   .     A
C606   O653    1.282   .     A
C606   C612    1.416   .     S
C607   C608    1.410   .     A
C607   C618    1.511   .     S
C608   C617    1.430   .     S
C609   C619    1.430   .     S
C611   C16     1.443   1_556 S
C613   C624    1.396   .     A
C614   H626    1.111   .     S
C614   H627    1.111   .     S
C614   H648    1.110   .     S
C615   H629    1.111   .     S
C615   H628    1.110   .     S
C615   H630    1.111   .     S
C616   H631    1.111   .     S
C616   H633    1.110   .     S
C616   H632    1.111   .     S
C617   O658    1.283   .     A
C617   O655    1.283   .     A
C618   H635    1.111   .     S
C618   H637    1.110   .     S
C618   H634    1.111   .     S
C619   O656    1.283   .     A
C619   O657    1.283   .     A
C620   H644    1.082   .     S
C620   N650    1.366   .     A
C620   C1019   1.416   1_545 S
C621   H645    1.082   .     S
C621   N649    1.366   .     A
C621   C820    1.416   .     S
C622   H646    1.082   .     S
C622   N650    1.366   .     A
C622   C1017   1.416   1_545 S
C623   N649    1.366   .     A
C623   H647    1.082   .     S
C623   C818    1.416   .     S
C624   H638    1.084   .     S
C624   C729    1.370   1_455 S
N649   Zn659   2.009   .     S
N650   Zn660   2.009   .     S
O651   Zn659   1.996   .     S
O652   Zn660   1.996   .     S
O653   Zn659   1.995   .     S
O654   Zn660   1.995   .     S
O655   Zn659   1.995   .     S
O656   Zn660   1.995   .     S
O657   Zn659   1.994   .     S
O658   Zn660   1.994   .     S
C661   O717    1.282   .     A
C661   C679    1.416   .     S
C661   O720    1.282   .     A
C662   C678    1.396   .     A
C662   H705    1.084   .     S
C662   C730    1.370   .     S
C663   H706    1.084   .     S
C663   C678    1.396   .     A
C663   C756    1.370   .     S
C664   H707    1.084   .     S
C664   C679    1.396   .     A
C665   C669    1.386   .     A
C665   C676    1.396   .     A
C665   H691    1.084   .     S
C666   C670    1.386   .     A
C666   H702    1.084   .     S
C666   C677    1.396   .     A
C667   H708    1.084   .     S
C667   C671    1.387   .     A
C667   C677    1.396   .     A
C668   C673    1.387   .     A
C668   C676    1.396   .     A
C668   H709    1.084   .     S
C669   C674    1.410   .     A
C669   C680    1.510   .     S
C670   C675    1.410   .     A
C670   C681    1.510   .     S
C671   C682    1.511   .     S
C671   C675    1.410   .     A
C672   O718    1.282   .     A
C672   O719    1.282   .     A
C672   C678    1.416   .     S
C673   C674    1.410   .     A
C673   C684    1.511   .     S
C674   C683    1.430   .     S
C675   C685    1.430   .     S
C677   C82     1.443   1_556 S
C679   C690    1.396   .     A
C680   H692    1.111   .     S
C680   H693    1.111   .     S
C680   H714    1.110   .     S
C681   H695    1.111   .     S
C681   H694    1.110   .     S
C681   H696    1.111   .     S
C682   H697    1.111   .     S
C682   H699    1.110   .     S
C682   H698    1.111   .     S
C683   O724    1.283   .     A
C683   O721    1.283   .     A
C684   H701    1.111   .     S
C684   H703    1.110   .     S
C684   H700    1.111   .     S
C685   O722    1.283   .     A
C685   O723    1.283   .     A
C686   H710    1.082   .     S
C686   N716    1.366   .     A
C686   C1085   1.416   1_545 S
C687   H711    1.082   .     S
C687   N715    1.366   .     A
C687   C886    1.416   .     S
C688   H712    1.082   .     S
C688   N716    1.366   .     A
C688   C1083   1.416   1_545 S
C689   N715    1.366   .     A
C689   H713    1.082   .     S
C689   C884    1.416   .     S
C690   H704    1.084   .     S
N715   Zn725   2.009   .     S
N716   Zn726   2.009   .     S
O717   Zn725   1.996   .     S
O718   Zn726   1.996   .     S
O719   Zn725   1.995   .     S
O720   Zn726   1.995   .     S
O721   Zn725   1.995   .     S
O722   Zn726   1.995   .     S
O723   Zn725   1.994   .     S
O724   Zn726   1.994   .     S
C727   O783    1.282   .     A
C727   C745    1.416   .     S
C727   O786    1.282   .     A
C728   C744    1.396   .     A
C728   H771    1.084   .     S
C728   C598    1.370   1_655 S
C729   H772    1.084   .     S
C729   C744    1.396   .     A
C729   C624    1.370   1_655 S
C730   H773    1.084   .     S
C730   C745    1.396   .     A
C731   C735    1.386   .     A
C731   C742    1.396   .     A
C731   H757    1.084   .     S
C732   C736    1.386   .     A
C732   H768    1.084   .     S
C732   C743    1.396   .     A
C733   H774    1.084   .     S
C733   C737    1.387   .     A
C733   C743    1.396   .     A
C734   C739    1.387   .     A
C734   C742    1.396   .     A
C734   H775    1.084   .     S
C735   C740    1.410   .     A
C735   C746    1.510   .     S
C736   C741    1.410   .     A
C736   C747    1.510   .     S
C737   C748    1.511   .     S
C737   C741    1.410   .     A
C738   O784    1.282   .     A
C738   O785    1.282   .     A
C738   C744    1.416   .     S
C739   C740    1.410   .     A
C739   C750    1.511   .     S
C740   C749    1.430   .     S
C741   C751    1.430   .     S
C743   C148    1.443   1_556 S
C745   C756    1.396   .     A
C746   H758    1.111   .     S
C746   H759    1.111   .     S
C746   H780    1.110   .     S
C747   H761    1.111   .     S
C747   H760    1.110   .     S
C747   H762    1.111   .     S
C748   H763    1.111   .     S
C748   H765    1.110   .     S
C748   H764    1.111   .     S
C749   O790    1.283   .     A
C749   O787    1.283   .     A
C750   H767    1.111   .     S
C750   H769    1.110   .     S
C750   H766    1.111   .     S
C751   O788    1.283   .     A
C751   O789    1.283   .     A
C752   H776    1.082   .     S
C752   N782    1.366   .     A
C752   C1151   1.416   1_545 S
C753   H777    1.082   .     S
C753   N781    1.366   .     A
C753   C952    1.416   .     S
C754   H778    1.082   .     S
C754   N782    1.366   .     A
C754   C1149   1.416   1_545 S
C755   N781    1.366   .     A
C755   H779    1.082   .     S
C755   C950    1.416   .     S
C756   H770    1.084   .     S
N781   Zn791   2.009   .     S
N782   Zn792   2.009   .     S
O783   Zn791   1.996   .     S
O784   Zn792   1.996   .     S
O785   Zn791   1.995   .     S
O786   Zn792   1.995   .     S
O787   Zn791   1.995   .     S
O788   Zn792   1.995   .     S
O789   Zn791   1.994   .     S
O790   Zn792   1.994   .     S
C793   O849    1.282   .     A
C793   C811    1.416   .     S
C793   O852    1.282   .     A
C794   C810    1.396   .     A
C794   H837    1.084   .     S
C794   C862    1.370   .     S
C795   H838    1.084   .     S
C795   C810    1.396   .     A
C795   C888    1.370   .     S
C796   H839    1.084   .     S
C796   C811    1.396   .     A
C796   C926    1.370   1_455 S
C797   C801    1.386   .     A
C797   C808    1.396   .     A
C797   H823    1.084   .     S
C798   C802    1.386   .     A
C798   H834    1.084   .     S
C798   C809    1.396   .     A
C799   H840    1.084   .     S
C799   C803    1.387   .     A
C799   C809    1.396   .     A
C800   C805    1.387   .     A
C800   C808    1.396   .     A
C800   H841    1.084   .     S
C801   C806    1.410   .     A
C801   C812    1.510   .     S
C802   C807    1.410   .     A
C802   C813    1.510   .     S
C803   C814    1.511   .     S
C803   C807    1.410   .     A
C804   O850    1.282   .     A
C804   O851    1.282   .     A
C804   C810    1.416   .     S
C805   C806    1.410   .     A
C805   C816    1.511   .     S
C806   C815    1.430   .     S
C807   C817    1.430   .     S
C809   C214    1.443   1_556 S
C811   C822    1.396   .     A
C812   H824    1.111   .     S
C812   H825    1.111   .     S
C812   H846    1.110   .     S
C813   H827    1.111   .     S
C813   H826    1.110   .     S
C813   H828    1.111   .     S
C814   H829    1.111   .     S
C814   H831    1.110   .     S
C814   H830    1.111   .     S
C815   O856    1.283   .     A
C815   O853    1.283   .     A
C816   H833    1.111   .     S
C816   H835    1.110   .     S
C816   H832    1.111   .     S
C817   O854    1.283   .     A
C817   O855    1.283   .     A
C818   H842    1.082   .     S
C818   N848    1.366   .     A
C819   H843    1.082   .     S
C819   N847    1.366   .     A
C819   C1018   1.416   .     S
C820   H844    1.082   .     S
C820   N848    1.366   .     A
C821   N847    1.366   .     A
C821   H845    1.082   .     S
C821   C1016   1.416   .     S
C822   H836    1.084   .     S
C822   C927    1.370   1_455 S
N847   Zn857   2.009   .     S
N848   Zn858   2.009   .     S
O849   Zn857   1.996   .     S
O850   Zn858   1.996   .     S
O851   Zn857   1.995   .     S
O852   Zn858   1.995   .     S
O853   Zn857   1.995   .     S
O854   Zn858   1.995   .     S
O855   Zn857   1.994   .     S
O856   Zn858   1.994   .     S
C859   O915    1.282   .     A
C859   C877    1.416   .     S
C859   O918    1.282   .     A
C860   C876    1.396   .     A
C860   H903    1.084   .     S
C860   C928    1.370   .     S
C861   H904    1.084   .     S
C861   C876    1.396   .     A
C861   C954    1.370   .     S
C862   H905    1.084   .     S
C862   C877    1.396   .     A
C863   C867    1.386   .     A
C863   C874    1.396   .     A
C863   H889    1.084   .     S
C864   C868    1.386   .     A
C864   H900    1.084   .     S
C864   C875    1.396   .     A
C865   H906    1.084   .     S
C865   C869    1.387   .     A
C865   C875    1.396   .     A
C866   C871    1.387   .     A
C866   C874    1.396   .     A
C866   H907    1.084   .     S
C867   C872    1.410   .     A
C867   C878    1.510   .     S
C868   C873    1.410   .     A
C868   C879    1.510   .     S
C869   C880    1.511   .     S
C869   C873    1.410   .     A
C870   O916    1.282   .     A
C870   O917    1.282   .     A
C870   C876    1.416   .     S
C871   C872    1.410   .     A
C871   C882    1.511   .     S
C872   C881    1.430   .     S
C873   C883    1.430   .     S
C875   C280    1.443   1_556 S
C877   C888    1.396   .     A
C878   H890    1.111   .     S
C878   H891    1.111   .     S
C878   H912    1.110   .     S
C879   H893    1.111   .     S
C879   H892    1.110   .     S
C879   H894    1.111   .     S
C880   H895    1.111   .     S
C880   H897    1.110   .     S
C880   H896    1.111   .     S
C881   O922    1.283   .     A
C881   O919    1.283   .     A
C882   H899    1.111   .     S
C882   H901    1.110   .     S
C882   H898    1.111   .     S
C883   O920    1.283   .     A
C883   O921    1.283   .     A
C884   H908    1.082   .     S
C884   N914    1.366   .     A
C885   H909    1.082   .     S
C885   N913    1.366   .     A
C885   C1084   1.416   .     S
C886   H910    1.082   .     S
C886   N914    1.366   .     A
C887   N913    1.366   .     A
C887   H911    1.082   .     S
C887   C1082   1.416   .     S
C888   H902    1.084   .     S
N913   Zn923   2.009   .     S
N914   Zn924   2.009   .     S
O915   Zn923   1.996   .     S
O916   Zn924   1.996   .     S
O917   Zn923   1.995   .     S
O918   Zn924   1.995   .     S
O919   Zn923   1.995   .     S
O920   Zn924   1.995   .     S
O921   Zn923   1.994   .     S
O922   Zn924   1.994   .     S
C925   O981    1.282   .     A
C925   C943    1.416   .     S
C925   O984    1.282   .     A
C926   C942    1.396   .     A
C926   H969    1.084   .     S
C926   C796    1.370   1_655 S
C927   H970    1.084   .     S
C927   C942    1.396   .     A
C927   C822    1.370   1_655 S
C928   H971    1.084   .     S
C928   C943    1.396   .     A
C929   C933    1.386   .     A
C929   C940    1.396   .     A
C929   H955    1.084   .     S
C930   C934    1.386   .     A
C930   H966    1.084   .     S
C930   C941    1.396   .     A
C931   H972    1.084   .     S
C931   C935    1.387   .     A
C931   C941    1.396   .     A
C932   C937    1.387   .     A
C932   C940    1.396   .     A
C932   H973    1.084   .     S
C933   C938    1.410   .     A
C933   C944    1.510   .     S
C934   C939    1.410   .     A
C934   C945    1.510   .     S
C935   C946    1.511   .     S
C935   C939    1.410   .     A
C936   O982    1.282   .     A
C936   O983    1.282   .     A
C936   C942    1.416   .     S
C937   C938    1.410   .     A
C937   C948    1.511   .     S
C938   C947    1.430   .     S
C939   C949    1.430   .     S
C941   C346    1.443   1_556 S
C943   C954    1.396   .     A
C944   H956    1.111   .     S
C944   H957    1.111   .     S
C944   H978    1.110   .     S
C945   H959    1.111   .     S
C945   H958    1.110   .     S
C945   H960    1.111   .     S
C946   H961    1.111   .     S
C946   H963    1.110   .     S
C946   H962    1.111   .     S
C947   O988    1.283   .     A
C947   O985    1.283   .     A
C948   H965    1.111   .     S
C948   H967    1.110   .     S
C948   H964    1.111   .     S
C949   O986    1.283   .     A
C949   O987    1.283   .     A
C950   H974    1.082   .     S
C950   N980    1.366   .     A
C951   H975    1.082   .     S
C951   N979    1.366   .     A
C951   C1150   1.416   .     S
C952   H976    1.082   .     S
C952   N980    1.366   .     A
C953   N979    1.366   .     A
C953   H977    1.082   .     S
C953   C1148   1.416   .     S
C954   H968    1.084   .     S
N979   Zn989   2.009   .     S
N980   Zn990   2.009   .     S
O981   Zn989   1.996   .     S
O982   Zn990   1.996   .     S
O983   Zn989   1.995   .     S
O984   Zn990   1.995   .     S
O985   Zn989   1.995   .     S
O986   Zn990   1.995   .     S
O987   Zn989   1.994   .     S
O988   Zn990   1.994   .     S
C991   O1047   1.282   .     A
C991   C1009   1.416   .     S
C991   O1050   1.282   .     A
C992   C1008   1.396   .     A
C992   H1035   1.084   .     S
C992   C1060   1.370   .     S
C993   H1036   1.084   .     S
C993   C1008   1.396   .     A
C993   C1086   1.370   .     S
C994   H1037   1.084   .     S
C994   C1009   1.396   .     A
C994   C1124   1.370   1_455 S
C995   C999    1.386   .     A
C995   C1006   1.396   .     A
C995   H1021   1.084   .     S
C996   C1000   1.386   .     A
C996   H1032   1.084   .     S
C996   C1007   1.396   .     A
C997   H1038   1.084   .     S
C997   C1001   1.387   .     A
C997   C1007   1.396   .     A
C998   C1003   1.387   .     A
C998   C1006   1.396   .     A
C998   H1039   1.084   .     S
C999   C1004   1.410   .     A
C999   C1010   1.510   .     S
C1000  C1005   1.410   .     A
C1000  C1011   1.510   .     S
C1001  C1012   1.511   .     S
C1001  C1005   1.410   .     A
C1002  O1048   1.282   .     A
C1002  O1049   1.282   .     A
C1002  C1008   1.416   .     S
C1003  C1004   1.410   .     A
C1003  C1014   1.511   .     S
C1004  C1013   1.430   .     S
C1005  C1015   1.430   .     S
C1007  C412    1.443   1_556 S
C1009  C1020   1.396   .     A
C1010  H1022   1.111   .     S
C1010  H1023   1.111   .     S
C1010  H1044   1.110   .     S
C1011  H1025   1.111   .     S
C1011  H1024   1.110   .     S
C1011  H1026   1.111   .     S
C1012  H1027   1.111   .     S
C1012  H1029   1.110   .     S
C1012  H1028   1.111   .     S
C1013  O1054   1.283   .     A
C1013  O1051   1.283   .     A
C1014  H1031   1.111   .     S
C1014  H1033   1.110   .     S
C1014  H1030   1.111   .     S
C1015  O1052   1.283   .     A
C1015  O1053   1.283   .     A
C1016  H1040   1.082   .     S
C1016  N1046   1.366   .     A
C1017  H1041   1.082   .     S
C1017  N1045   1.366   .     A
C1017  C622    1.416   1_565 S
C1018  H1042   1.082   .     S
C1018  N1046   1.366   .     A
C1019  N1045   1.366   .     A
C1019  H1043   1.082   .     S
C1019  C620    1.416   1_565 S
C1020  H1034   1.084   .     S
C1020  C1125   1.370   1_455 S
N1045  Zn1055  2.009   .     S
N1046  Zn1056  2.009   .     S
O1047  Zn1055  1.996   .     S
O1048  Zn1056  1.996   .     S
O1049  Zn1055  1.995   .     S
O1050  Zn1056  1.995   .     S
O1051  Zn1055  1.995   .     S
O1052  Zn1056  1.995   .     S
O1053  Zn1055  1.994   .     S
O1054  Zn1056  1.994   .     S
C1057  O1113   1.282   .     A
C1057  C1075   1.416   .     S
C1057  O1116   1.282   .     A
C1058  C1074   1.396   .     A
C1058  H1101   1.084   .     S
C1058  C1126   1.370   .     S
C1059  H1102   1.084   .     S
C1059  C1074   1.396   .     A
C1059  C1152   1.370   .     S
C1060  H1103   1.084   .     S
C1060  C1075   1.396   .     A
C1061  C1065   1.386   .     A
C1061  C1072   1.396   .     A
C1061  H1087   1.084   .     S
C1062  C1066   1.386   .     A
C1062  H1098   1.084   .     S
C1062  C1073   1.396   .     A
C1063  H1104   1.084   .     S
C1063  C1067   1.387   .     A
C1063  C1073   1.396   .     A
C1064  C1069   1.387   .     A
C1064  C1072   1.396   .     A
C1064  H1105   1.084   .     S
C1065  C1070   1.410   .     A
C1065  C1076   1.510   .     S
C1066  C1071   1.410   .     A
C1066  C1077   1.510   .     S
C1067  C1078   1.511   .     S
C1067  C1071   1.410   .     A
C1068  O1114   1.282   .     A
C1068  O1115   1.282   .     A
C1068  C1074   1.416   .     S
C1069  C1070   1.410   .     A
C1069  C1080   1.511   .     S
C1070  C1079   1.430   .     S
C1071  C1081   1.430   .     S
C1073  C478    1.443   1_556 S
C1075  C1086   1.396   .     A
C1076  H1088   1.111   .     S
C1076  H1089   1.111   .     S
C1076  H1110   1.110   .     S
C1077  H1091   1.111   .     S
C1077  H1090   1.110   .     S
C1077  H1092   1.111   .     S
C1078  H1093   1.111   .     S
C1078  H1095   1.110   .     S
C1078  H1094   1.111   .     S
C1079  O1120   1.283   .     A
C1079  O1117   1.283   .     A
C1080  H1097   1.111   .     S
C1080  H1099   1.110   .     S
C1080  H1096   1.111   .     S
C1081  O1118   1.283   .     A
C1081  O1119   1.283   .     A
C1082  H1106   1.082   .     S
C1082  N1112   1.366   .     A
C1083  H1107   1.082   .     S
C1083  N1111   1.366   .     A
C1083  C688    1.416   1_565 S
C1084  H1108   1.082   .     S
C1084  N1112   1.366   .     A
C1085  N1111   1.366   .     A
C1085  H1109   1.082   .     S
C1085  C686    1.416   1_565 S
C1086  H1100   1.084   .     S
N1111  Zn1121  2.009   .     S
N1112  Zn1122  2.009   .     S
O1113  Zn1121  1.996   .     S
O1114  Zn1122  1.996   .     S
O1115  Zn1121  1.995   .     S
O1116  Zn1122  1.995   .     S
O1117  Zn1121  1.995   .     S
O1118  Zn1122  1.995   .     S
O1119  Zn1121  1.994   .     S
O1120  Zn1122  1.994   .     S
C1123  O1179   1.282   .     A
C1123  C1141   1.416   .     S
C1123  O1182   1.282   .     A
C1124  C1140   1.396   .     A
C1124  H1167   1.084   .     S
C1124  C994    1.370   1_655 S
C1125  H1168   1.084   .     S
C1125  C1140   1.396   .     A
C1125  C1020   1.370   1_655 S
C1126  H1169   1.084   .     S
C1126  C1141   1.396   .     A
C1127  C1131   1.386   .     A
C1127  C1138   1.396   .     A
C1127  H1153   1.084   .     S
C1128  C1132   1.386   .     A
C1128  H1164   1.084   .     S
C1128  C1139   1.396   .     A
C1129  H1170   1.084   .     S
C1129  C1133   1.387   .     A
C1129  C1139   1.396   .     A
C1130  C1135   1.387   .     A
C1130  C1138   1.396   .     A
C1130  H1171   1.084   .     S
C1131  C1136   1.410   .     A
C1131  C1142   1.510   .     S
C1132  C1137   1.410   .     A
C1132  C1143   1.510   .     S
C1133  C1144   1.511   .     S
C1133  C1137   1.410   .     A
C1134  O1180   1.282   .     A
C1134  O1181   1.282   .     A
C1134  C1140   1.416   .     S
C1135  C1136   1.410   .     A
C1135  C1146   1.511   .     S
C1136  C1145   1.430   .     S
C1137  C1147   1.430   .     S
C1139  C544    1.443   1_556 S
C1141  C1152   1.396   .     A
C1142  H1154   1.111   .     S
C1142  H1155   1.111   .     S
C1142  H1176   1.110   .     S
C1143  H1157   1.111   .     S
C1143  H1156   1.110   .     S
C1143  H1158   1.111   .     S
C1144  H1159   1.111   .     S
C1144  H1161   1.110   .     S
C1144  H1160   1.111   .     S
C1145  O1186   1.283   .     A
C1145  O1183   1.283   .     A
C1146  H1163   1.111   .     S
C1146  H1165   1.110   .     S
C1146  H1162   1.111   .     S
C1147  O1184   1.283   .     A
C1147  O1185   1.283   .     A
C1148  H1172   1.082   .     S
C1148  N1178   1.366   .     A
C1149  H1173   1.082   .     S
C1149  N1177   1.366   .     A
C1149  C754    1.416   1_565 S
C1150  H1174   1.082   .     S
C1150  N1178   1.366   .     A
C1151  N1177   1.366   .     A
C1151  H1175   1.082   .     S
C1151  C752    1.416   1_565 S
C1152  H1166   1.084   .     S
N1177  Zn1187  2.009   .     S
N1178  Zn1188  2.009   .     S
O1179  Zn1187  1.996   .     S
O1180  Zn1188  1.996   .     S
O1181  Zn1187  1.995   .     S
O1182  Zn1188  1.995   .     S
O1183  Zn1187  1.995   .     S
O1184  Zn1188  1.995   .     S
O1185  Zn1187  1.994   .     S
O1186  Zn1188  1.994   .     S
