data_str_m2_o2_o5_pcu_sym.17
_audit_creation_date              2020-01-03
_audit_creation_method            'Materials Studio'
_symmetry_space_group_name_H-M    'P1'
_symmetry_Int_Tables_number       1
_symmetry_cell_setting            triclinic
loop_
_symmetry_equiv_pos_as_xyz
  x,y,z
_cell_length_a                    30.4205
_cell_length_b                    27.9910
_cell_length_c                    27.2177
_cell_angle_alpha                 89.9999
_cell_angle_beta                  94.0542
_cell_angle_gamma                 90.0000
loop_
_atom_site_label
_atom_site_type_symbol
_atom_site_fract_x
_atom_site_fract_y
_atom_site_fract_z
_atom_site_U_iso_or_equiv
_atom_site_adp_type
_atom_site_occupancy
C1     C     0.16515   0.24984   0.16979   0.00000  Uiso   1.00
C2     C     0.28695   0.44619   0.18636   0.00000  Uiso   1.00
C3     C     0.24983   0.25000   0.07359   0.00000  Uiso   1.00
C4     C     0.25017   0.25000   0.25974   0.00000  Uiso   1.00
C5     C     0.25000   0.02701   0.16667   0.00000  Uiso   1.00
C6     C     0.25000   0.47260   0.16667   0.00000  Uiso   1.00
C7     C     0.24994   0.24998   0.02186   0.00000  Uiso   1.00
C8     C     0.25006   0.24998   0.31148   0.00000  Uiso   1.00
C9     C     0.04904   0.29360   0.18726   0.00000  Uiso   1.00
C10    C     0.45476   0.21459   0.18155   0.00000  Uiso   1.00
C11    C     0.45096   0.29360   0.14607   0.00000  Uiso   1.00
C12    C     0.33485   0.24984   0.16355   0.00000  Uiso   1.00
C13    C     0.04524   0.21459   0.15179   0.00000  Uiso   1.00
C14    C     0.09516   0.29070   0.19261   0.00000  Uiso   1.00
C15    C     0.40936   0.20959   0.17478   0.00000  Uiso   1.00
C16    C     0.40484   0.29070   0.14072   0.00000  Uiso   1.00
C17    C     0.09064   0.20959   0.15855   0.00000  Uiso   1.00
C18    C     0.11679   0.24953   0.17486   0.00000  Uiso   1.00
C19    C     0.38321   0.24953   0.15848   0.00000  Uiso   1.00
C20    C     0.02416   0.25573   0.16689   0.00000  Uiso   1.00
C21    C     0.47584   0.25573   0.16644   0.00000  Uiso   1.00
C22    C     0.29017   0.12675   0.25053   0.00000  Uiso   1.00
C23    C     0.26607   0.10368   0.20771   0.00000  Uiso   1.00
C24    C     0.18140   0.37198   0.11082   0.00000  Uiso   1.00
C25    C     0.20983   0.12675   0.08280   0.00000  Uiso   1.00
C26    C     0.31860   0.37198   0.22252   0.00000  Uiso   1.00
C27    C     0.11876   0.32906   0.22158   0.00000  Uiso   1.00
C28    C     0.39251   0.16042   0.18085   0.00000  Uiso   1.00
C29    C     0.38124   0.32906   0.11175   0.00000  Uiso   1.00
C30    C     0.10749   0.16042   0.15249   0.00000  Uiso   1.00
C31    C     0.21588   0.39589   0.14277   0.00000  Uiso   1.00
C32    C     0.23393   0.10368   0.12562   0.00000  Uiso   1.00
C33    C     0.28412   0.39589   0.19057   0.00000  Uiso   1.00
C34    C     0.26127   0.05333   0.21009   0.00000  Uiso   1.00
C35    C     0.21305   0.44619   0.14697   0.00000  Uiso   1.00
C36    C     0.23873   0.05333   0.12324   0.00000  Uiso   1.00
Cu37   Cu    0.25000   0.29822   0.16667   0.00000  Uiso   1.00
Cu38   Cu    0.25000   0.20179   0.16667   0.00000  Uiso   1.00
H39    H     0.03224   0.32425   0.20150   0.00000  Uiso   1.00
H40    H     0.39521   0.09980   0.22108   0.00000  Uiso   1.00
H41    H     0.37870   0.39870   0.09260   0.00000  Uiso   1.00
H42    H     0.10479   0.09980   0.11226   0.00000  Uiso   1.00
H43    H     0.25353   0.00049   0.25522   0.00000  Uiso   1.00
H44    H     0.17151   0.49912   0.14689   0.00000  Uiso   1.00
H45    H     0.24647   0.00049   0.07811   0.00000  Uiso   1.00
H46    H     0.32849   0.49912   0.18644   0.00000  Uiso   1.00
H47    H     0.47431   0.18475   0.19621   0.00000  Uiso   1.00
H48    H     0.46776   0.32425   0.13184   0.00000  Uiso   1.00
H49    H     0.02569   0.18475   0.13713   0.00000  Uiso   1.00
H50    H     0.29905   0.13313   0.32436   0.00000  Uiso   1.00
H51    H     0.16488   0.33965   0.04594   0.00000  Uiso   1.00
H52    H     0.20095   0.13313   0.00898   0.00000  Uiso   1.00
H53    H     0.33513   0.33965   0.28739   0.00000  Uiso   1.00
H54    H     0.12130   0.39870   0.24073   0.00000  Uiso   1.00
N55    N     0.25000   0.12935   0.16667   0.00000  Uiso   1.00
N56    N     0.25000   0.37066   0.16667   0.00000  Uiso   1.00
O57    O     0.18573   0.29071   0.16667   0.00000  Uiso   1.00
O58    O     0.27986   0.11547   0.29833   0.00000  Uiso   1.00
O59    O     0.14336   0.37151   0.12255   0.00000  Uiso   1.00
O60    O     0.19143   0.35416   0.06503   0.00000  Uiso   1.00
O61    O     0.17976   0.15437   0.08888   0.00000  Uiso   1.00
O62    O     0.22014   0.11547   0.03500   0.00000  Uiso   1.00
O63    O     0.35664   0.37151   0.21079   0.00000  Uiso   1.00
O64    O     0.30857   0.35416   0.26830   0.00000  Uiso   1.00
O65    O     0.15102   0.31953   0.24923   0.00000  Uiso   1.00
O66    O     0.10267   0.37587   0.21913   0.00000  Uiso   1.00
O67    O     0.36846   0.14207   0.14822   0.00000  Uiso   1.00
O68    O     0.31427   0.20929   0.16666   0.00000  Uiso   1.00
O69    O     0.40768   0.13341   0.22185   0.00000  Uiso   1.00
O70    O     0.34898   0.31953   0.08410   0.00000  Uiso   1.00
O71    O     0.39733   0.37587   0.11420   0.00000  Uiso   1.00
O72    O     0.13154   0.14207   0.18512   0.00000  Uiso   1.00
O73    O     0.09232   0.13341   0.11149   0.00000  Uiso   1.00
O74    O     0.27011   0.03091   0.25500   0.00000  Uiso   1.00
O75    O     0.17420   0.46814   0.12984   0.00000  Uiso   1.00
O76    O     0.22989   0.03091   0.07833   0.00000  Uiso   1.00
O77    O     0.32580   0.46814   0.20349   0.00000  Uiso   1.00
O78    O     0.31427   0.29072   0.16666   0.00000  Uiso   1.00
O79    O     0.18573   0.20929   0.16667   0.00000  Uiso   1.00
O80    O     0.25000   0.29071   0.09613   0.00000  Uiso   1.00
O81    O     0.25000   0.20929   0.23720   0.00000  Uiso   1.00
O82    O     0.25000   0.29071   0.23720   0.00000  Uiso   1.00
O83    O     0.25000   0.20929   0.09613   0.00000  Uiso   1.00
O84    O     0.32024   0.15437   0.24446   0.00000  Uiso   1.00
C85    C     0.66515   0.24984   0.16979   0.00000  Uiso   1.00
C86    C     0.78695   0.44619   0.18636   0.00000  Uiso   1.00
C87    C     0.74983   0.25000   0.07359   0.00000  Uiso   1.00
C88    C     0.75017   0.25000   0.25974   0.00000  Uiso   1.00
C89    C     0.75000   0.02701   0.16667   0.00000  Uiso   1.00
C90    C     0.75000   0.47260   0.16667   0.00000  Uiso   1.00
C91    C     0.74994   0.24998   0.02186   0.00000  Uiso   1.00
C92    C     0.75006   0.24998   0.31148   0.00000  Uiso   1.00
C93    C     0.54904   0.29360   0.18726   0.00000  Uiso   1.00
C94    C     0.95476   0.21459   0.18155   0.00000  Uiso   1.00
C95    C     0.95096   0.29360   0.14607   0.00000  Uiso   1.00
C96    C     0.83485   0.24984   0.16355   0.00000  Uiso   1.00
C97    C     0.54524   0.21459   0.15179   0.00000  Uiso   1.00
C98    C     0.59516   0.29070   0.19261   0.00000  Uiso   1.00
C99    C     0.90936   0.20959   0.17478   0.00000  Uiso   1.00
C100   C     0.90484   0.29070   0.14072   0.00000  Uiso   1.00
C101   C     0.59064   0.20959   0.15855   0.00000  Uiso   1.00
C102   C     0.61679   0.24953   0.17486   0.00000  Uiso   1.00
C103   C     0.88321   0.24953   0.15848   0.00000  Uiso   1.00
C104   C     0.52416   0.25573   0.16689   0.00000  Uiso   1.00
C105   C     0.97584   0.25573   0.16644   0.00000  Uiso   1.00
C106   C     0.79017   0.12675   0.25053   0.00000  Uiso   1.00
C107   C     0.76607   0.10368   0.20771   0.00000  Uiso   1.00
C108   C     0.68140   0.37198   0.11082   0.00000  Uiso   1.00
C109   C     0.70983   0.12675   0.08280   0.00000  Uiso   1.00
C110   C     0.81860   0.37198   0.22252   0.00000  Uiso   1.00
C111   C     0.61876   0.32906   0.22158   0.00000  Uiso   1.00
C112   C     0.89251   0.16042   0.18085   0.00000  Uiso   1.00
C113   C     0.88124   0.32906   0.11175   0.00000  Uiso   1.00
C114   C     0.60749   0.16042   0.15249   0.00000  Uiso   1.00
C115   C     0.71588   0.39589   0.14277   0.00000  Uiso   1.00
C116   C     0.73393   0.10368   0.12562   0.00000  Uiso   1.00
C117   C     0.78412   0.39589   0.19057   0.00000  Uiso   1.00
C118   C     0.76127   0.05333   0.21009   0.00000  Uiso   1.00
C119   C     0.71305   0.44619   0.14697   0.00000  Uiso   1.00
C120   C     0.73873   0.05333   0.12324   0.00000  Uiso   1.00
Cu121  Cu    0.75000   0.29822   0.16667   0.00000  Uiso   1.00
Cu122  Cu    0.75000   0.20179   0.16667   0.00000  Uiso   1.00
H123   H     0.53224   0.32425   0.20150   0.00000  Uiso   1.00
H124   H     0.89521   0.09980   0.22108   0.00000  Uiso   1.00
H125   H     0.87870   0.39870   0.09260   0.00000  Uiso   1.00
H126   H     0.60479   0.09980   0.11226   0.00000  Uiso   1.00
H127   H     0.75353   0.00049   0.25522   0.00000  Uiso   1.00
H128   H     0.67151   0.49912   0.14689   0.00000  Uiso   1.00
H129   H     0.74647   0.00049   0.07811   0.00000  Uiso   1.00
H130   H     0.82849   0.49912   0.18644   0.00000  Uiso   1.00
H131   H     0.97431   0.18475   0.19621   0.00000  Uiso   1.00
H132   H     0.96776   0.32425   0.13184   0.00000  Uiso   1.00
H133   H     0.52569   0.18475   0.13713   0.00000  Uiso   1.00
H134   H     0.79905   0.13313   0.32436   0.00000  Uiso   1.00
H135   H     0.66488   0.33965   0.04594   0.00000  Uiso   1.00
H136   H     0.70095   0.13313   0.00898   0.00000  Uiso   1.00
H137   H     0.83513   0.33965   0.28739   0.00000  Uiso   1.00
H138   H     0.62130   0.39870   0.24073   0.00000  Uiso   1.00
N139   N     0.75000   0.12935   0.16667   0.00000  Uiso   1.00
N140   N     0.75000   0.37066   0.16667   0.00000  Uiso   1.00
O141   O     0.68573   0.29071   0.16667   0.00000  Uiso   1.00
O142   O     0.77986   0.11547   0.29833   0.00000  Uiso   1.00
O143   O     0.64336   0.37151   0.12255   0.00000  Uiso   1.00
O144   O     0.69143   0.35416   0.06503   0.00000  Uiso   1.00
O145   O     0.67976   0.15437   0.08888   0.00000  Uiso   1.00
O146   O     0.72014   0.11547   0.03500   0.00000  Uiso   1.00
O147   O     0.85664   0.37151   0.21079   0.00000  Uiso   1.00
O148   O     0.80857   0.35416   0.26830   0.00000  Uiso   1.00
O149   O     0.65102   0.31953   0.24923   0.00000  Uiso   1.00
O150   O     0.60267   0.37587   0.21913   0.00000  Uiso   1.00
O151   O     0.86846   0.14207   0.14822   0.00000  Uiso   1.00
O152   O     0.81427   0.20929   0.16666   0.00000  Uiso   1.00
O153   O     0.90768   0.13341   0.22185   0.00000  Uiso   1.00
O154   O     0.84898   0.31953   0.08410   0.00000  Uiso   1.00
O155   O     0.89733   0.37587   0.11420   0.00000  Uiso   1.00
O156   O     0.63154   0.14207   0.18512   0.00000  Uiso   1.00
O157   O     0.59232   0.13341   0.11149   0.00000  Uiso   1.00
O158   O     0.77011   0.03091   0.25500   0.00000  Uiso   1.00
O159   O     0.67420   0.46814   0.12984   0.00000  Uiso   1.00
O160   O     0.72989   0.03091   0.07833   0.00000  Uiso   1.00
O161   O     0.82580   0.46814   0.20349   0.00000  Uiso   1.00
O162   O     0.81427   0.29072   0.16666   0.00000  Uiso   1.00
O163   O     0.68573   0.20929   0.16667   0.00000  Uiso   1.00
O164   O     0.75000   0.29071   0.09613   0.00000  Uiso   1.00
O165   O     0.75000   0.20929   0.23720   0.00000  Uiso   1.00
O166   O     0.75000   0.29071   0.23720   0.00000  Uiso   1.00
O167   O     0.75000   0.20929   0.09613   0.00000  Uiso   1.00
O168   O     0.82024   0.15437   0.24446   0.00000  Uiso   1.00
C169   C     0.16515   0.74984   0.16979   0.00000  Uiso   1.00
C170   C     0.28695   0.94619   0.18636   0.00000  Uiso   1.00
C171   C     0.24983   0.75000   0.07359   0.00000  Uiso   1.00
C172   C     0.25017   0.75000   0.25974   0.00000  Uiso   1.00
C173   C     0.25000   0.52701   0.16667   0.00000  Uiso   1.00
C174   C     0.25000   0.97260   0.16667   0.00000  Uiso   1.00
C175   C     0.24994   0.74998   0.02186   0.00000  Uiso   1.00
C176   C     0.25006   0.74998   0.31148   0.00000  Uiso   1.00
C177   C     0.04904   0.79360   0.18726   0.00000  Uiso   1.00
C178   C     0.45476   0.71459   0.18155   0.00000  Uiso   1.00
C179   C     0.45096   0.79360   0.14607   0.00000  Uiso   1.00
C180   C     0.33485   0.74984   0.16355   0.00000  Uiso   1.00
C181   C     0.04524   0.71459   0.15179   0.00000  Uiso   1.00
C182   C     0.09516   0.79070   0.19261   0.00000  Uiso   1.00
C183   C     0.40936   0.70959   0.17478   0.00000  Uiso   1.00
C184   C     0.40484   0.79070   0.14072   0.00000  Uiso   1.00
C185   C     0.09064   0.70959   0.15855   0.00000  Uiso   1.00
C186   C     0.11679   0.74953   0.17486   0.00000  Uiso   1.00
C187   C     0.38321   0.74953   0.15848   0.00000  Uiso   1.00
C188   C     0.02416   0.75573   0.16689   0.00000  Uiso   1.00
C189   C     0.47584   0.75573   0.16644   0.00000  Uiso   1.00
C190   C     0.29017   0.62675   0.25053   0.00000  Uiso   1.00
C191   C     0.26607   0.60368   0.20771   0.00000  Uiso   1.00
C192   C     0.18140   0.87198   0.11082   0.00000  Uiso   1.00
C193   C     0.20983   0.62675   0.08280   0.00000  Uiso   1.00
C194   C     0.31860   0.87198   0.22252   0.00000  Uiso   1.00
C195   C     0.11876   0.82906   0.22158   0.00000  Uiso   1.00
C196   C     0.39251   0.66042   0.18085   0.00000  Uiso   1.00
C197   C     0.38124   0.82906   0.11175   0.00000  Uiso   1.00
C198   C     0.10749   0.66042   0.15249   0.00000  Uiso   1.00
C199   C     0.21588   0.89589   0.14277   0.00000  Uiso   1.00
C200   C     0.23393   0.60368   0.12562   0.00000  Uiso   1.00
C201   C     0.28412   0.89589   0.19057   0.00000  Uiso   1.00
C202   C     0.26127   0.55333   0.21009   0.00000  Uiso   1.00
C203   C     0.21305   0.94619   0.14697   0.00000  Uiso   1.00
C204   C     0.23873   0.55333   0.12324   0.00000  Uiso   1.00
Cu205  Cu    0.25000   0.79822   0.16667   0.00000  Uiso   1.00
Cu206  Cu    0.25000   0.70179   0.16667   0.00000  Uiso   1.00
H207   H     0.03224   0.82425   0.20150   0.00000  Uiso   1.00
H208   H     0.39521   0.59980   0.22108   0.00000  Uiso   1.00
H209   H     0.37870   0.89870   0.09260   0.00000  Uiso   1.00
H210   H     0.10479   0.59980   0.11226   0.00000  Uiso   1.00
H211   H     0.25353   0.50049   0.25522   0.00000  Uiso   1.00
H212   H     0.17151   0.99912   0.14689   0.00000  Uiso   1.00
H213   H     0.24647   0.50049   0.07811   0.00000  Uiso   1.00
H214   H     0.32849   0.99912   0.18644   0.00000  Uiso   1.00
H215   H     0.47431   0.68475   0.19621   0.00000  Uiso   1.00
H216   H     0.46776   0.82425   0.13184   0.00000  Uiso   1.00
H217   H     0.02569   0.68475   0.13713   0.00000  Uiso   1.00
H218   H     0.29905   0.63313   0.32436   0.00000  Uiso   1.00
H219   H     0.16488   0.83965   0.04594   0.00000  Uiso   1.00
H220   H     0.20095   0.63313   0.00898   0.00000  Uiso   1.00
H221   H     0.33513   0.83965   0.28739   0.00000  Uiso   1.00
H222   H     0.12130   0.89870   0.24073   0.00000  Uiso   1.00
N223   N     0.25000   0.62935   0.16667   0.00000  Uiso   1.00
N224   N     0.25000   0.87066   0.16667   0.00000  Uiso   1.00
O225   O     0.18573   0.79071   0.16667   0.00000  Uiso   1.00
O226   O     0.27986   0.61547   0.29833   0.00000  Uiso   1.00
O227   O     0.14336   0.87151   0.12255   0.00000  Uiso   1.00
O228   O     0.19143   0.85416   0.06503   0.00000  Uiso   1.00
O229   O     0.17976   0.65437   0.08888   0.00000  Uiso   1.00
O230   O     0.22014   0.61547   0.03500   0.00000  Uiso   1.00
O231   O     0.35664   0.87151   0.21079   0.00000  Uiso   1.00
O232   O     0.30857   0.85416   0.26830   0.00000  Uiso   1.00
O233   O     0.15102   0.81953   0.24923   0.00000  Uiso   1.00
O234   O     0.10267   0.87587   0.21913   0.00000  Uiso   1.00
O235   O     0.36846   0.64207   0.14822   0.00000  Uiso   1.00
O236   O     0.31427   0.70929   0.16666   0.00000  Uiso   1.00
O237   O     0.40768   0.63341   0.22185   0.00000  Uiso   1.00
O238   O     0.34898   0.81953   0.08410   0.00000  Uiso   1.00
O239   O     0.39733   0.87587   0.11420   0.00000  Uiso   1.00
O240   O     0.13154   0.64207   0.18512   0.00000  Uiso   1.00
O241   O     0.09232   0.63341   0.11149   0.00000  Uiso   1.00
O242   O     0.27011   0.53091   0.25500   0.00000  Uiso   1.00
O243   O     0.17420   0.96814   0.12984   0.00000  Uiso   1.00
O244   O     0.22989   0.53091   0.07833   0.00000  Uiso   1.00
O245   O     0.32580   0.96814   0.20349   0.00000  Uiso   1.00
O246   O     0.31427   0.79072   0.16666   0.00000  Uiso   1.00
O247   O     0.18573   0.70929   0.16667   0.00000  Uiso   1.00
O248   O     0.25000   0.79071   0.09613   0.00000  Uiso   1.00
O249   O     0.25000   0.70929   0.23720   0.00000  Uiso   1.00
O250   O     0.25000   0.79071   0.23720   0.00000  Uiso   1.00
O251   O     0.25000   0.70929   0.09613   0.00000  Uiso   1.00
O252   O     0.32024   0.65437   0.24446   0.00000  Uiso   1.00
C253   C     0.66515   0.74984   0.16979   0.00000  Uiso   1.00
C254   C     0.78695   0.94619   0.18636   0.00000  Uiso   1.00
C255   C     0.74983   0.75000   0.07359   0.00000  Uiso   1.00
C256   C     0.75017   0.75000   0.25974   0.00000  Uiso   1.00
C257   C     0.75000   0.52701   0.16667   0.00000  Uiso   1.00
C258   C     0.75000   0.97260   0.16667   0.00000  Uiso   1.00
C259   C     0.74994   0.74998   0.02186   0.00000  Uiso   1.00
C260   C     0.75006   0.74998   0.31148   0.00000  Uiso   1.00
C261   C     0.54904   0.79360   0.18726   0.00000  Uiso   1.00
C262   C     0.95476   0.71459   0.18155   0.00000  Uiso   1.00
C263   C     0.95096   0.79360   0.14607   0.00000  Uiso   1.00
C264   C     0.83485   0.74984   0.16355   0.00000  Uiso   1.00
C265   C     0.54524   0.71459   0.15179   0.00000  Uiso   1.00
C266   C     0.59516   0.79070   0.19261   0.00000  Uiso   1.00
C267   C     0.90936   0.70959   0.17478   0.00000  Uiso   1.00
C268   C     0.90484   0.79070   0.14072   0.00000  Uiso   1.00
C269   C     0.59064   0.70959   0.15855   0.00000  Uiso   1.00
C270   C     0.61679   0.74953   0.17486   0.00000  Uiso   1.00
C271   C     0.88321   0.74953   0.15848   0.00000  Uiso   1.00
C272   C     0.52416   0.75573   0.16689   0.00000  Uiso   1.00
C273   C     0.97584   0.75573   0.16644   0.00000  Uiso   1.00
C274   C     0.79017   0.62675   0.25053   0.00000  Uiso   1.00
C275   C     0.76607   0.60368   0.20771   0.00000  Uiso   1.00
C276   C     0.68140   0.87198   0.11082   0.00000  Uiso   1.00
C277   C     0.70983   0.62675   0.08280   0.00000  Uiso   1.00
C278   C     0.81860   0.87198   0.22252   0.00000  Uiso   1.00
C279   C     0.61876   0.82906   0.22158   0.00000  Uiso   1.00
C280   C     0.89251   0.66042   0.18085   0.00000  Uiso   1.00
C281   C     0.88124   0.82906   0.11175   0.00000  Uiso   1.00
C282   C     0.60749   0.66042   0.15249   0.00000  Uiso   1.00
C283   C     0.71588   0.89589   0.14277   0.00000  Uiso   1.00
C284   C     0.73393   0.60368   0.12562   0.00000  Uiso   1.00
C285   C     0.78412   0.89589   0.19057   0.00000  Uiso   1.00
C286   C     0.76127   0.55333   0.21009   0.00000  Uiso   1.00
C287   C     0.71305   0.94619   0.14697   0.00000  Uiso   1.00
C288   C     0.73873   0.55333   0.12324   0.00000  Uiso   1.00
Cu289  Cu    0.75000   0.79822   0.16667   0.00000  Uiso   1.00
Cu290  Cu    0.75000   0.70179   0.16667   0.00000  Uiso   1.00
H291   H     0.53224   0.82425   0.20150   0.00000  Uiso   1.00
H292   H     0.89521   0.59980   0.22108   0.00000  Uiso   1.00
H293   H     0.87870   0.89870   0.09260   0.00000  Uiso   1.00
H294   H     0.60479   0.59980   0.11226   0.00000  Uiso   1.00
H295   H     0.75353   0.50049   0.25522   0.00000  Uiso   1.00
H296   H     0.67151   0.99912   0.14689   0.00000  Uiso   1.00
H297   H     0.74647   0.50049   0.07811   0.00000  Uiso   1.00
H298   H     0.82849   0.99912   0.18644   0.00000  Uiso   1.00
H299   H     0.97431   0.68475   0.19621   0.00000  Uiso   1.00
H300   H     0.96776   0.82425   0.13184   0.00000  Uiso   1.00
H301   H     0.52569   0.68475   0.13713   0.00000  Uiso   1.00
H302   H     0.79905   0.63313   0.32436   0.00000  Uiso   1.00
H303   H     0.66488   0.83965   0.04594   0.00000  Uiso   1.00
H304   H     0.70095   0.63313   0.00898   0.00000  Uiso   1.00
H305   H     0.83513   0.83965   0.28739   0.00000  Uiso   1.00
H306   H     0.62130   0.89870   0.24073   0.00000  Uiso   1.00
N307   N     0.75000   0.62935   0.16667   0.00000  Uiso   1.00
N308   N     0.75000   0.87066   0.16667   0.00000  Uiso   1.00
O309   O     0.68573   0.79071   0.16667   0.00000  Uiso   1.00
O310   O     0.77986   0.61547   0.29833   0.00000  Uiso   1.00
O311   O     0.64336   0.87151   0.12255   0.00000  Uiso   1.00
O312   O     0.69143   0.85416   0.06503   0.00000  Uiso   1.00
O313   O     0.67976   0.65437   0.08888   0.00000  Uiso   1.00
O314   O     0.72014   0.61547   0.03500   0.00000  Uiso   1.00
O315   O     0.85664   0.87151   0.21079   0.00000  Uiso   1.00
O316   O     0.80857   0.85416   0.26830   0.00000  Uiso   1.00
O317   O     0.65102   0.81953   0.24923   0.00000  Uiso   1.00
O318   O     0.60267   0.87587   0.21913   0.00000  Uiso   1.00
O319   O     0.86846   0.64207   0.14822   0.00000  Uiso   1.00
O320   O     0.81427   0.70929   0.16666   0.00000  Uiso   1.00
O321   O     0.90768   0.63341   0.22185   0.00000  Uiso   1.00
O322   O     0.84898   0.81953   0.08410   0.00000  Uiso   1.00
O323   O     0.89733   0.87587   0.11420   0.00000  Uiso   1.00
O324   O     0.63154   0.64207   0.18512   0.00000  Uiso   1.00
O325   O     0.59232   0.63341   0.11149   0.00000  Uiso   1.00
O326   O     0.77011   0.53091   0.25500   0.00000  Uiso   1.00
O327   O     0.67420   0.96814   0.12984   0.00000  Uiso   1.00
O328   O     0.72989   0.53091   0.07833   0.00000  Uiso   1.00
O329   O     0.82580   0.96814   0.20349   0.00000  Uiso   1.00
O330   O     0.81427   0.79072   0.16666   0.00000  Uiso   1.00
O331   O     0.68573   0.70929   0.16667   0.00000  Uiso   1.00
O332   O     0.75000   0.79071   0.09613   0.00000  Uiso   1.00
O333   O     0.75000   0.70929   0.23720   0.00000  Uiso   1.00
O334   O     0.75000   0.79071   0.23720   0.00000  Uiso   1.00
O335   O     0.75000   0.70929   0.09613   0.00000  Uiso   1.00
O336   O     0.82024   0.65437   0.24446   0.00000  Uiso   1.00
C337   C     0.16515   0.24984   0.50312   0.00000  Uiso   1.00
C338   C     0.28695   0.44619   0.51970   0.00000  Uiso   1.00
C339   C     0.24983   0.25000   0.40693   0.00000  Uiso   1.00
C340   C     0.25017   0.25000   0.59307   0.00000  Uiso   1.00
C341   C     0.25000   0.02701   0.50000   0.00000  Uiso   1.00
C342   C     0.25000   0.47260   0.50000   0.00000  Uiso   1.00
C343   C     0.24994   0.24998   0.35519   0.00000  Uiso   1.00
C344   C     0.25006   0.24998   0.64481   0.00000  Uiso   1.00
C345   C     0.04904   0.29360   0.52060   0.00000  Uiso   1.00
C346   C     0.45476   0.21459   0.51488   0.00000  Uiso   1.00
C347   C     0.45096   0.29360   0.47940   0.00000  Uiso   1.00
C348   C     0.33485   0.24984   0.49688   0.00000  Uiso   1.00
C349   C     0.04524   0.21459   0.48512   0.00000  Uiso   1.00
C350   C     0.09516   0.29070   0.52595   0.00000  Uiso   1.00
C351   C     0.40936   0.20959   0.50812   0.00000  Uiso   1.00
C352   C     0.40484   0.29070   0.47405   0.00000  Uiso   1.00
C353   C     0.09064   0.20959   0.49189   0.00000  Uiso   1.00
C354   C     0.11679   0.24953   0.50819   0.00000  Uiso   1.00
C355   C     0.38321   0.24953   0.49181   0.00000  Uiso   1.00
C356   C     0.02416   0.25573   0.50022   0.00000  Uiso   1.00
C357   C     0.47584   0.25573   0.49978   0.00000  Uiso   1.00
C358   C     0.29017   0.12675   0.58387   0.00000  Uiso   1.00
C359   C     0.26607   0.10368   0.54105   0.00000  Uiso   1.00
C360   C     0.18140   0.37198   0.44415   0.00000  Uiso   1.00
C361   C     0.20983   0.12675   0.41613   0.00000  Uiso   1.00
C362   C     0.31860   0.37198   0.55585   0.00000  Uiso   1.00
C363   C     0.11876   0.32906   0.55492   0.00000  Uiso   1.00
C364   C     0.39251   0.16042   0.51418   0.00000  Uiso   1.00
C365   C     0.38124   0.32906   0.44508   0.00000  Uiso   1.00
C366   C     0.10749   0.16042   0.48582   0.00000  Uiso   1.00
C367   C     0.21588   0.39589   0.47610   0.00000  Uiso   1.00
C368   C     0.23393   0.10368   0.45895   0.00000  Uiso   1.00
C369   C     0.28412   0.39589   0.52390   0.00000  Uiso   1.00
C370   C     0.26127   0.05333   0.54343   0.00000  Uiso   1.00
C371   C     0.21305   0.44619   0.48030   0.00000  Uiso   1.00
C372   C     0.23873   0.05333   0.45657   0.00000  Uiso   1.00
Cu373  Cu    0.25000   0.29822   0.50000   0.00000  Uiso   1.00
Cu374  Cu    0.25000   0.20179   0.50000   0.00000  Uiso   1.00
H375   H     0.03224   0.32425   0.53483   0.00000  Uiso   1.00
H376   H     0.39521   0.09980   0.55441   0.00000  Uiso   1.00
H377   H     0.37870   0.39870   0.42593   0.00000  Uiso   1.00
H378   H     0.10479   0.09980   0.44559   0.00000  Uiso   1.00
H379   H     0.25353   0.00049   0.58856   0.00000  Uiso   1.00
H380   H     0.17151   0.49912   0.48023   0.00000  Uiso   1.00
H381   H     0.24647   0.00049   0.41144   0.00000  Uiso   1.00
H382   H     0.32849   0.49912   0.51977   0.00000  Uiso   1.00
H383   H     0.47431   0.18475   0.52954   0.00000  Uiso   1.00
H384   H     0.46776   0.32425   0.46517   0.00000  Uiso   1.00
H385   H     0.02569   0.18475   0.47046   0.00000  Uiso   1.00
H386   H     0.29905   0.13313   0.65769   0.00000  Uiso   1.00
H387   H     0.16488   0.33965   0.37927   0.00000  Uiso   1.00
H388   H     0.20095   0.13313   0.34231   0.00000  Uiso   1.00
H389   H     0.33513   0.33965   0.62073   0.00000  Uiso   1.00
H390   H     0.12130   0.39870   0.57407   0.00000  Uiso   1.00
N391   N     0.25000   0.12935   0.50000   0.00000  Uiso   1.00
N392   N     0.25000   0.37066   0.50000   0.00000  Uiso   1.00
O393   O     0.18573   0.29071   0.50000   0.00000  Uiso   1.00
O394   O     0.27986   0.11547   0.63166   0.00000  Uiso   1.00
O395   O     0.14336   0.37151   0.45588   0.00000  Uiso   1.00
O396   O     0.19143   0.35416   0.39836   0.00000  Uiso   1.00
O397   O     0.17976   0.15437   0.42221   0.00000  Uiso   1.00
O398   O     0.22014   0.11547   0.36834   0.00000  Uiso   1.00
O399   O     0.35664   0.37151   0.54412   0.00000  Uiso   1.00
O400   O     0.30857   0.35416   0.60163   0.00000  Uiso   1.00
O401   O     0.15102   0.31953   0.58256   0.00000  Uiso   1.00
O402   O     0.10267   0.37587   0.55246   0.00000  Uiso   1.00
O403   O     0.36846   0.14207   0.48155   0.00000  Uiso   1.00
O404   O     0.31427   0.20929   0.50000   0.00000  Uiso   1.00
O405   O     0.40768   0.13341   0.55518   0.00000  Uiso   1.00
O406   O     0.34898   0.31953   0.41744   0.00000  Uiso   1.00
O407   O     0.39733   0.37587   0.44754   0.00000  Uiso   1.00
O408   O     0.13154   0.14207   0.51845   0.00000  Uiso   1.00
O409   O     0.09232   0.13341   0.44482   0.00000  Uiso   1.00
O410   O     0.27011   0.03091   0.58834   0.00000  Uiso   1.00
O411   O     0.17420   0.46814   0.46318   0.00000  Uiso   1.00
O412   O     0.22989   0.03091   0.41166   0.00000  Uiso   1.00
O413   O     0.32580   0.46814   0.53682   0.00000  Uiso   1.00
O414   O     0.31427   0.29072   0.50000   0.00000  Uiso   1.00
O415   O     0.18573   0.20929   0.50000   0.00000  Uiso   1.00
O416   O     0.25000   0.29071   0.42946   0.00000  Uiso   1.00
O417   O     0.25000   0.20929   0.57054   0.00000  Uiso   1.00
O418   O     0.25000   0.29071   0.57054   0.00000  Uiso   1.00
O419   O     0.25000   0.20929   0.42946   0.00000  Uiso   1.00
O420   O     0.32024   0.15437   0.57779   0.00000  Uiso   1.00
C421   C     0.66515   0.24984   0.50312   0.00000  Uiso   1.00
C422   C     0.78695   0.44619   0.51970   0.00000  Uiso   1.00
C423   C     0.74983   0.25000   0.40693   0.00000  Uiso   1.00
C424   C     0.75017   0.25000   0.59307   0.00000  Uiso   1.00
C425   C     0.75000   0.02701   0.50000   0.00000  Uiso   1.00
C426   C     0.75000   0.47260   0.50000   0.00000  Uiso   1.00
C427   C     0.74994   0.24998   0.35519   0.00000  Uiso   1.00
C428   C     0.75006   0.24998   0.64481   0.00000  Uiso   1.00
C429   C     0.54904   0.29360   0.52060   0.00000  Uiso   1.00
C430   C     0.95476   0.21459   0.51488   0.00000  Uiso   1.00
C431   C     0.95096   0.29360   0.47940   0.00000  Uiso   1.00
C432   C     0.83485   0.24984   0.49688   0.00000  Uiso   1.00
C433   C     0.54524   0.21459   0.48512   0.00000  Uiso   1.00
C434   C     0.59516   0.29070   0.52595   0.00000  Uiso   1.00
C435   C     0.90936   0.20959   0.50812   0.00000  Uiso   1.00
C436   C     0.90484   0.29070   0.47405   0.00000  Uiso   1.00
C437   C     0.59064   0.20959   0.49189   0.00000  Uiso   1.00
C438   C     0.61679   0.24953   0.50819   0.00000  Uiso   1.00
C439   C     0.88321   0.24953   0.49181   0.00000  Uiso   1.00
C440   C     0.52416   0.25573   0.50022   0.00000  Uiso   1.00
C441   C     0.97584   0.25573   0.49978   0.00000  Uiso   1.00
C442   C     0.79017   0.12675   0.58387   0.00000  Uiso   1.00
C443   C     0.76607   0.10368   0.54105   0.00000  Uiso   1.00
C444   C     0.68140   0.37198   0.44415   0.00000  Uiso   1.00
C445   C     0.70983   0.12675   0.41613   0.00000  Uiso   1.00
C446   C     0.81860   0.37198   0.55585   0.00000  Uiso   1.00
C447   C     0.61876   0.32906   0.55492   0.00000  Uiso   1.00
C448   C     0.89251   0.16042   0.51418   0.00000  Uiso   1.00
C449   C     0.88124   0.32906   0.44508   0.00000  Uiso   1.00
C450   C     0.60749   0.16042   0.48582   0.00000  Uiso   1.00
C451   C     0.71588   0.39589   0.47610   0.00000  Uiso   1.00
C452   C     0.73393   0.10368   0.45895   0.00000  Uiso   1.00
C453   C     0.78412   0.39589   0.52390   0.00000  Uiso   1.00
C454   C     0.76127   0.05333   0.54343   0.00000  Uiso   1.00
C455   C     0.71305   0.44619   0.48030   0.00000  Uiso   1.00
C456   C     0.73873   0.05333   0.45657   0.00000  Uiso   1.00
Cu457  Cu    0.75000   0.29822   0.50000   0.00000  Uiso   1.00
Cu458  Cu    0.75000   0.20179   0.50000   0.00000  Uiso   1.00
H459   H     0.53224   0.32425   0.53483   0.00000  Uiso   1.00
H460   H     0.89521   0.09980   0.55441   0.00000  Uiso   1.00
H461   H     0.87870   0.39870   0.42593   0.00000  Uiso   1.00
H462   H     0.60479   0.09980   0.44559   0.00000  Uiso   1.00
H463   H     0.75353   0.00049   0.58856   0.00000  Uiso   1.00
H464   H     0.67151   0.49912   0.48023   0.00000  Uiso   1.00
H465   H     0.74647   0.00049   0.41144   0.00000  Uiso   1.00
H466   H     0.82849   0.49912   0.51977   0.00000  Uiso   1.00
H467   H     0.97431   0.18475   0.52954   0.00000  Uiso   1.00
H468   H     0.96776   0.32425   0.46517   0.00000  Uiso   1.00
H469   H     0.52569   0.18475   0.47046   0.00000  Uiso   1.00
H470   H     0.79905   0.13313   0.65769   0.00000  Uiso   1.00
H471   H     0.66488   0.33965   0.37927   0.00000  Uiso   1.00
H472   H     0.70095   0.13313   0.34231   0.00000  Uiso   1.00
H473   H     0.83513   0.33965   0.62073   0.00000  Uiso   1.00
H474   H     0.62130   0.39870   0.57407   0.00000  Uiso   1.00
N475   N     0.75000   0.12935   0.50000   0.00000  Uiso   1.00
N476   N     0.75000   0.37066   0.50000   0.00000  Uiso   1.00
O477   O     0.68573   0.29071   0.50000   0.00000  Uiso   1.00
O478   O     0.77986   0.11547   0.63166   0.00000  Uiso   1.00
O479   O     0.64336   0.37151   0.45588   0.00000  Uiso   1.00
O480   O     0.69143   0.35416   0.39836   0.00000  Uiso   1.00
O481   O     0.67976   0.15437   0.42221   0.00000  Uiso   1.00
O482   O     0.72014   0.11547   0.36834   0.00000  Uiso   1.00
O483   O     0.85664   0.37151   0.54412   0.00000  Uiso   1.00
O484   O     0.80857   0.35416   0.60163   0.00000  Uiso   1.00
O485   O     0.65102   0.31953   0.58256   0.00000  Uiso   1.00
O486   O     0.60267   0.37587   0.55246   0.00000  Uiso   1.00
O487   O     0.86846   0.14207   0.48155   0.00000  Uiso   1.00
O488   O     0.81427   0.20929   0.50000   0.00000  Uiso   1.00
O489   O     0.90768   0.13341   0.55518   0.00000  Uiso   1.00
O490   O     0.84898   0.31953   0.41744   0.00000  Uiso   1.00
O491   O     0.89733   0.37587   0.44754   0.00000  Uiso   1.00
O492   O     0.63154   0.14207   0.51845   0.00000  Uiso   1.00
O493   O     0.59232   0.13341   0.44482   0.00000  Uiso   1.00
O494   O     0.77011   0.03091   0.58834   0.00000  Uiso   1.00
O495   O     0.67420   0.46814   0.46318   0.00000  Uiso   1.00
O496   O     0.72989   0.03091   0.41166   0.00000  Uiso   1.00
O497   O     0.82580   0.46814   0.53682   0.00000  Uiso   1.00
O498   O     0.81427   0.29072   0.50000   0.00000  Uiso   1.00
O499   O     0.68573   0.20929   0.50000   0.00000  Uiso   1.00
O500   O     0.75000   0.29071   0.42946   0.00000  Uiso   1.00
O501   O     0.75000   0.20929   0.57054   0.00000  Uiso   1.00
O502   O     0.75000   0.29071   0.57054   0.00000  Uiso   1.00
O503   O     0.75000   0.20929   0.42946   0.00000  Uiso   1.00
O504   O     0.82024   0.15437   0.57779   0.00000  Uiso   1.00
C505   C     0.16515   0.74984   0.50312   0.00000  Uiso   1.00
C506   C     0.28695   0.94619   0.51970   0.00000  Uiso   1.00
C507   C     0.24983   0.75000   0.40693   0.00000  Uiso   1.00
C508   C     0.25017   0.75000   0.59307   0.00000  Uiso   1.00
C509   C     0.25000   0.52701   0.50000   0.00000  Uiso   1.00
C510   C     0.25000   0.97260   0.50000   0.00000  Uiso   1.00
C511   C     0.24994   0.74998   0.35519   0.00000  Uiso   1.00
C512   C     0.25006   0.74998   0.64481   0.00000  Uiso   1.00
C513   C     0.04904   0.79360   0.52060   0.00000  Uiso   1.00
C514   C     0.45476   0.71459   0.51488   0.00000  Uiso   1.00
C515   C     0.45096   0.79360   0.47940   0.00000  Uiso   1.00
C516   C     0.33485   0.74984   0.49688   0.00000  Uiso   1.00
C517   C     0.04524   0.71459   0.48512   0.00000  Uiso   1.00
C518   C     0.09516   0.79070   0.52595   0.00000  Uiso   1.00
C519   C     0.40936   0.70959   0.50812   0.00000  Uiso   1.00
C520   C     0.40484   0.79070   0.47405   0.00000  Uiso   1.00
C521   C     0.09064   0.70959   0.49189   0.00000  Uiso   1.00
C522   C     0.11679   0.74953   0.50819   0.00000  Uiso   1.00
C523   C     0.38321   0.74953   0.49181   0.00000  Uiso   1.00
C524   C     0.02416   0.75573   0.50022   0.00000  Uiso   1.00
C525   C     0.47584   0.75573   0.49978   0.00000  Uiso   1.00
C526   C     0.29017   0.62675   0.58387   0.00000  Uiso   1.00
C527   C     0.26607   0.60368   0.54105   0.00000  Uiso   1.00
C528   C     0.18140   0.87198   0.44415   0.00000  Uiso   1.00
C529   C     0.20983   0.62675   0.41613   0.00000  Uiso   1.00
C530   C     0.31860   0.87198   0.55585   0.00000  Uiso   1.00
C531   C     0.11876   0.82906   0.55492   0.00000  Uiso   1.00
C532   C     0.39251   0.66042   0.51418   0.00000  Uiso   1.00
C533   C     0.38124   0.82906   0.44508   0.00000  Uiso   1.00
C534   C     0.10749   0.66042   0.48582   0.00000  Uiso   1.00
C535   C     0.21588   0.89589   0.47610   0.00000  Uiso   1.00
C536   C     0.23393   0.60368   0.45895   0.00000  Uiso   1.00
C537   C     0.28412   0.89589   0.52390   0.00000  Uiso   1.00
C538   C     0.26127   0.55333   0.54343   0.00000  Uiso   1.00
C539   C     0.21305   0.94619   0.48030   0.00000  Uiso   1.00
C540   C     0.23873   0.55333   0.45657   0.00000  Uiso   1.00
Cu541  Cu    0.25000   0.79822   0.50000   0.00000  Uiso   1.00
Cu542  Cu    0.25000   0.70179   0.50000   0.00000  Uiso   1.00
H543   H     0.03224   0.82425   0.53483   0.00000  Uiso   1.00
H544   H     0.39521   0.59980   0.55441   0.00000  Uiso   1.00
H545   H     0.37870   0.89870   0.42593   0.00000  Uiso   1.00
H546   H     0.10479   0.59980   0.44559   0.00000  Uiso   1.00
H547   H     0.25353   0.50049   0.58856   0.00000  Uiso   1.00
H548   H     0.17151   0.99912   0.48023   0.00000  Uiso   1.00
H549   H     0.24647   0.50049   0.41144   0.00000  Uiso   1.00
H550   H     0.32849   0.99912   0.51977   0.00000  Uiso   1.00
H551   H     0.47431   0.68475   0.52954   0.00000  Uiso   1.00
H552   H     0.46776   0.82425   0.46517   0.00000  Uiso   1.00
H553   H     0.02569   0.68475   0.47046   0.00000  Uiso   1.00
H554   H     0.29905   0.63313   0.65769   0.00000  Uiso   1.00
H555   H     0.16488   0.83965   0.37927   0.00000  Uiso   1.00
H556   H     0.20095   0.63313   0.34231   0.00000  Uiso   1.00
H557   H     0.33513   0.83965   0.62073   0.00000  Uiso   1.00
H558   H     0.12130   0.89870   0.57407   0.00000  Uiso   1.00
N559   N     0.25000   0.62935   0.50000   0.00000  Uiso   1.00
N560   N     0.25000   0.87066   0.50000   0.00000  Uiso   1.00
O561   O     0.18573   0.79071   0.50000   0.00000  Uiso   1.00
O562   O     0.27986   0.61547   0.63166   0.00000  Uiso   1.00
O563   O     0.14336   0.87151   0.45588   0.00000  Uiso   1.00
O564   O     0.19143   0.85416   0.39836   0.00000  Uiso   1.00
O565   O     0.17976   0.65437   0.42221   0.00000  Uiso   1.00
O566   O     0.22014   0.61547   0.36834   0.00000  Uiso   1.00
O567   O     0.35664   0.87151   0.54412   0.00000  Uiso   1.00
O568   O     0.30857   0.85416   0.60163   0.00000  Uiso   1.00
O569   O     0.15102   0.81953   0.58256   0.00000  Uiso   1.00
O570   O     0.10267   0.87587   0.55246   0.00000  Uiso   1.00
O571   O     0.36846   0.64207   0.48155   0.00000  Uiso   1.00
O572   O     0.31427   0.70929   0.50000   0.00000  Uiso   1.00
O573   O     0.40768   0.63341   0.55518   0.00000  Uiso   1.00
O574   O     0.34898   0.81953   0.41744   0.00000  Uiso   1.00
O575   O     0.39733   0.87587   0.44754   0.00000  Uiso   1.00
O576   O     0.13154   0.64207   0.51845   0.00000  Uiso   1.00
O577   O     0.09232   0.63341   0.44482   0.00000  Uiso   1.00
O578   O     0.27011   0.53091   0.58834   0.00000  Uiso   1.00
O579   O     0.17420   0.96814   0.46318   0.00000  Uiso   1.00
O580   O     0.22989   0.53091   0.41166   0.00000  Uiso   1.00
O581   O     0.32580   0.96814   0.53682   0.00000  Uiso   1.00
O582   O     0.31427   0.79072   0.50000   0.00000  Uiso   1.00
O583   O     0.18573   0.70929   0.50000   0.00000  Uiso   1.00
O584   O     0.25000   0.79071   0.42946   0.00000  Uiso   1.00
O585   O     0.25000   0.70929   0.57054   0.00000  Uiso   1.00
O586   O     0.25000   0.79071   0.57054   0.00000  Uiso   1.00
O587   O     0.25000   0.70929   0.42946   0.00000  Uiso   1.00
O588   O     0.32024   0.65437   0.57779   0.00000  Uiso   1.00
C589   C     0.66515   0.74984   0.50312   0.00000  Uiso   1.00
C590   C     0.78695   0.94619   0.51970   0.00000  Uiso   1.00
C591   C     0.74983   0.75000   0.40693   0.00000  Uiso   1.00
C592   C     0.75017   0.75000   0.59307   0.00000  Uiso   1.00
C593   C     0.75000   0.52701   0.50000   0.00000  Uiso   1.00
C594   C     0.75000   0.97260   0.50000   0.00000  Uiso   1.00
C595   C     0.74994   0.74998   0.35519   0.00000  Uiso   1.00
C596   C     0.75006   0.74998   0.64481   0.00000  Uiso   1.00
C597   C     0.54904   0.79360   0.52060   0.00000  Uiso   1.00
C598   C     0.95476   0.71459   0.51488   0.00000  Uiso   1.00
C599   C     0.95096   0.79360   0.47940   0.00000  Uiso   1.00
C600   C     0.83485   0.74984   0.49688   0.00000  Uiso   1.00
C601   C     0.54524   0.71459   0.48512   0.00000  Uiso   1.00
C602   C     0.59516   0.79070   0.52595   0.00000  Uiso   1.00
C603   C     0.90936   0.70959   0.50812   0.00000  Uiso   1.00
C604   C     0.90484   0.79070   0.47405   0.00000  Uiso   1.00
C605   C     0.59064   0.70959   0.49189   0.00000  Uiso   1.00
C606   C     0.61679   0.74953   0.50819   0.00000  Uiso   1.00
C607   C     0.88321   0.74953   0.49181   0.00000  Uiso   1.00
C608   C     0.52416   0.75573   0.50022   0.00000  Uiso   1.00
C609   C     0.97584   0.75573   0.49978   0.00000  Uiso   1.00
C610   C     0.79017   0.62675   0.58387   0.00000  Uiso   1.00
C611   C     0.76607   0.60368   0.54105   0.00000  Uiso   1.00
C612   C     0.68140   0.87198   0.44415   0.00000  Uiso   1.00
C613   C     0.70983   0.62675   0.41613   0.00000  Uiso   1.00
C614   C     0.81860   0.87198   0.55585   0.00000  Uiso   1.00
C615   C     0.61876   0.82906   0.55492   0.00000  Uiso   1.00
C616   C     0.89251   0.66042   0.51418   0.00000  Uiso   1.00
C617   C     0.88124   0.82906   0.44508   0.00000  Uiso   1.00
C618   C     0.60749   0.66042   0.48582   0.00000  Uiso   1.00
C619   C     0.71588   0.89589   0.47610   0.00000  Uiso   1.00
C620   C     0.73393   0.60368   0.45895   0.00000  Uiso   1.00
C621   C     0.78412   0.89589   0.52390   0.00000  Uiso   1.00
C622   C     0.76127   0.55333   0.54343   0.00000  Uiso   1.00
C623   C     0.71305   0.94619   0.48030   0.00000  Uiso   1.00
C624   C     0.73873   0.55333   0.45657   0.00000  Uiso   1.00
Cu625  Cu    0.75000   0.79822   0.50000   0.00000  Uiso   1.00
Cu626  Cu    0.75000   0.70179   0.50000   0.00000  Uiso   1.00
H627   H     0.53224   0.82425   0.53483   0.00000  Uiso   1.00
H628   H     0.89521   0.59980   0.55441   0.00000  Uiso   1.00
H629   H     0.87870   0.89870   0.42593   0.00000  Uiso   1.00
H630   H     0.60479   0.59980   0.44559   0.00000  Uiso   1.00
H631   H     0.75353   0.50049   0.58856   0.00000  Uiso   1.00
H632   H     0.67151   0.99912   0.48023   0.00000  Uiso   1.00
H633   H     0.74647   0.50049   0.41144   0.00000  Uiso   1.00
H634   H     0.82849   0.99912   0.51977   0.00000  Uiso   1.00
H635   H     0.97431   0.68475   0.52954   0.00000  Uiso   1.00
H636   H     0.96776   0.82425   0.46517   0.00000  Uiso   1.00
H637   H     0.52569   0.68475   0.47046   0.00000  Uiso   1.00
H638   H     0.79905   0.63313   0.65769   0.00000  Uiso   1.00
H639   H     0.66488   0.83965   0.37927   0.00000  Uiso   1.00
H640   H     0.70095   0.63313   0.34231   0.00000  Uiso   1.00
H641   H     0.83513   0.83965   0.62073   0.00000  Uiso   1.00
H642   H     0.62130   0.89870   0.57407   0.00000  Uiso   1.00
N643   N     0.75000   0.62935   0.50000   0.00000  Uiso   1.00
N644   N     0.75000   0.87066   0.50000   0.00000  Uiso   1.00
O645   O     0.68573   0.79071   0.50000   0.00000  Uiso   1.00
O646   O     0.77986   0.61547   0.63166   0.00000  Uiso   1.00
O647   O     0.64336   0.87151   0.45588   0.00000  Uiso   1.00
O648   O     0.69143   0.85416   0.39836   0.00000  Uiso   1.00
O649   O     0.67976   0.65437   0.42221   0.00000  Uiso   1.00
O650   O     0.72014   0.61547   0.36834   0.00000  Uiso   1.00
O651   O     0.85664   0.87151   0.54412   0.00000  Uiso   1.00
O652   O     0.80857   0.85416   0.60163   0.00000  Uiso   1.00
O653   O     0.65102   0.81953   0.58256   0.00000  Uiso   1.00
O654   O     0.60267   0.87587   0.55246   0.00000  Uiso   1.00
O655   O     0.86846   0.64207   0.48155   0.00000  Uiso   1.00
O656   O     0.81427   0.70929   0.50000   0.00000  Uiso   1.00
O657   O     0.90768   0.63341   0.55518   0.00000  Uiso   1.00
O658   O     0.84898   0.81953   0.41744   0.00000  Uiso   1.00
O659   O     0.89733   0.87587   0.44754   0.00000  Uiso   1.00
O660   O     0.63154   0.64207   0.51845   0.00000  Uiso   1.00
O661   O     0.59232   0.63341   0.44482   0.00000  Uiso   1.00
O662   O     0.77011   0.53091   0.58834   0.00000  Uiso   1.00
O663   O     0.67420   0.96814   0.46318   0.00000  Uiso   1.00
O664   O     0.72989   0.53091   0.41166   0.00000  Uiso   1.00
O665   O     0.82580   0.96814   0.53682   0.00000  Uiso   1.00
O666   O     0.81427   0.79072   0.50000   0.00000  Uiso   1.00
O667   O     0.68573   0.70929   0.50000   0.00000  Uiso   1.00
O668   O     0.75000   0.79071   0.42946   0.00000  Uiso   1.00
O669   O     0.75000   0.70929   0.57054   0.00000  Uiso   1.00
O670   O     0.75000   0.79071   0.57054   0.00000  Uiso   1.00
O671   O     0.75000   0.70929   0.42946   0.00000  Uiso   1.00
O672   O     0.82024   0.65437   0.57779   0.00000  Uiso   1.00
C673   C     0.16515   0.24984   0.83645   0.00000  Uiso   1.00
C674   C     0.28695   0.44619   0.85303   0.00000  Uiso   1.00
C675   C     0.24983   0.25000   0.74026   0.00000  Uiso   1.00
C676   C     0.25017   0.25000   0.92641   0.00000  Uiso   1.00
C677   C     0.25000   0.02701   0.83333   0.00000  Uiso   1.00
C678   C     0.25000   0.47260   0.83333   0.00000  Uiso   1.00
C679   C     0.24994   0.24998   0.68852   0.00000  Uiso   1.00
C680   C     0.25006   0.24998   0.97814   0.00000  Uiso   1.00
C681   C     0.04904   0.29360   0.85393   0.00000  Uiso   1.00
C682   C     0.45476   0.21459   0.84821   0.00000  Uiso   1.00
C683   C     0.45096   0.29360   0.81274   0.00000  Uiso   1.00
C684   C     0.33485   0.24984   0.83021   0.00000  Uiso   1.00
C685   C     0.04524   0.21459   0.81845   0.00000  Uiso   1.00
C686   C     0.09516   0.29070   0.85928   0.00000  Uiso   1.00
C687   C     0.40936   0.20959   0.84145   0.00000  Uiso   1.00
C688   C     0.40484   0.29070   0.80739   0.00000  Uiso   1.00
C689   C     0.09064   0.20959   0.82522   0.00000  Uiso   1.00
C690   C     0.11679   0.24953   0.84152   0.00000  Uiso   1.00
C691   C     0.38321   0.24953   0.82514   0.00000  Uiso   1.00
C692   C     0.02416   0.25573   0.83356   0.00000  Uiso   1.00
C693   C     0.47584   0.25573   0.83311   0.00000  Uiso   1.00
C694   C     0.29017   0.12675   0.91720   0.00000  Uiso   1.00
C695   C     0.26607   0.10368   0.87438   0.00000  Uiso   1.00
C696   C     0.18140   0.37198   0.77748   0.00000  Uiso   1.00
C697   C     0.20983   0.12675   0.74947   0.00000  Uiso   1.00
C698   C     0.31860   0.37198   0.88918   0.00000  Uiso   1.00
C699   C     0.11876   0.32906   0.88825   0.00000  Uiso   1.00
C700   C     0.39251   0.16042   0.84751   0.00000  Uiso   1.00
C701   C     0.38124   0.32906   0.77842   0.00000  Uiso   1.00
C702   C     0.10749   0.16042   0.81915   0.00000  Uiso   1.00
C703   C     0.21588   0.39589   0.80943   0.00000  Uiso   1.00
C704   C     0.23393   0.10368   0.79229   0.00000  Uiso   1.00
C705   C     0.28412   0.39589   0.85723   0.00000  Uiso   1.00
C706   C     0.26127   0.05333   0.87676   0.00000  Uiso   1.00
C707   C     0.21305   0.44619   0.81364   0.00000  Uiso   1.00
C708   C     0.23873   0.05333   0.78991   0.00000  Uiso   1.00
Cu709  Cu    0.25000   0.29822   0.83333   0.00000  Uiso   1.00
Cu710  Cu    0.25000   0.20179   0.83333   0.00000  Uiso   1.00
H711   H     0.03224   0.32425   0.86816   0.00000  Uiso   1.00
H712   H     0.39521   0.09980   0.88774   0.00000  Uiso   1.00
H713   H     0.37870   0.39870   0.75927   0.00000  Uiso   1.00
H714   H     0.10479   0.09980   0.77893   0.00000  Uiso   1.00
H715   H     0.25353   0.00049   0.92189   0.00000  Uiso   1.00
H716   H     0.17151   0.49912   0.81356   0.00000  Uiso   1.00
H717   H     0.24647   0.00049   0.74478   0.00000  Uiso   1.00
H718   H     0.32849   0.49912   0.85311   0.00000  Uiso   1.00
H719   H     0.47431   0.18475   0.86287   0.00000  Uiso   1.00
H720   H     0.46776   0.32425   0.79850   0.00000  Uiso   1.00
H721   H     0.02569   0.18475   0.80379   0.00000  Uiso   1.00
H722   H     0.29905   0.13313   0.99102   0.00000  Uiso   1.00
H723   H     0.16488   0.33965   0.71261   0.00000  Uiso   1.00
H724   H     0.20095   0.13313   0.67564   0.00000  Uiso   1.00
H725   H     0.33513   0.33965   0.95406   0.00000  Uiso   1.00
H726   H     0.12130   0.39870   0.90740   0.00000  Uiso   1.00
N727   N     0.25000   0.12935   0.83333   0.00000  Uiso   1.00
N728   N     0.25000   0.37066   0.83333   0.00000  Uiso   1.00
O729   O     0.18573   0.29071   0.83334   0.00000  Uiso   1.00
O730   O     0.27986   0.11547   0.96500   0.00000  Uiso   1.00
O731   O     0.14336   0.37151   0.78921   0.00000  Uiso   1.00
O732   O     0.19143   0.35416   0.73170   0.00000  Uiso   1.00
O733   O     0.17976   0.15437   0.75554   0.00000  Uiso   1.00
O734   O     0.22014   0.11547   0.70167   0.00000  Uiso   1.00
O735   O     0.35664   0.37151   0.87745   0.00000  Uiso   1.00
O736   O     0.30857   0.35416   0.93497   0.00000  Uiso   1.00
O737   O     0.15102   0.31953   0.91590   0.00000  Uiso   1.00
O738   O     0.10267   0.37587   0.88580   0.00000  Uiso   1.00
O739   O     0.36846   0.14207   0.81488   0.00000  Uiso   1.00
O740   O     0.31427   0.20929   0.83333   0.00000  Uiso   1.00
O741   O     0.40768   0.13341   0.88851   0.00000  Uiso   1.00
O742   O     0.34898   0.31953   0.75077   0.00000  Uiso   1.00
O743   O     0.39733   0.37587   0.78087   0.00000  Uiso   1.00
O744   O     0.13154   0.14207   0.85179   0.00000  Uiso   1.00
O745   O     0.09232   0.13341   0.77816   0.00000  Uiso   1.00
O746   O     0.27011   0.03091   0.92167   0.00000  Uiso   1.00
O747   O     0.17420   0.46814   0.79651   0.00000  Uiso   1.00
O748   O     0.22989   0.03091   0.74500   0.00000  Uiso   1.00
O749   O     0.32580   0.46814   0.87016   0.00000  Uiso   1.00
O750   O     0.31427   0.29072   0.83333   0.00000  Uiso   1.00
O751   O     0.18573   0.20929   0.83334   0.00000  Uiso   1.00
O752   O     0.25000   0.29071   0.76280   0.00000  Uiso   1.00
O753   O     0.25000   0.20929   0.90387   0.00000  Uiso   1.00
O754   O     0.25000   0.29071   0.90387   0.00000  Uiso   1.00
O755   O     0.25000   0.20929   0.76280   0.00000  Uiso   1.00
O756   O     0.32024   0.15437   0.91113   0.00000  Uiso   1.00
C757   C     0.66515   0.24984   0.83645   0.00000  Uiso   1.00
C758   C     0.78695   0.44619   0.85303   0.00000  Uiso   1.00
C759   C     0.74983   0.25000   0.74026   0.00000  Uiso   1.00
C760   C     0.75017   0.25000   0.92641   0.00000  Uiso   1.00
C761   C     0.75000   0.02701   0.83333   0.00000  Uiso   1.00
C762   C     0.75000   0.47260   0.83333   0.00000  Uiso   1.00
C763   C     0.74994   0.24998   0.68852   0.00000  Uiso   1.00
C764   C     0.75006   0.24998   0.97814   0.00000  Uiso   1.00
C765   C     0.54904   0.29360   0.85393   0.00000  Uiso   1.00
C766   C     0.95476   0.21459   0.84821   0.00000  Uiso   1.00
C767   C     0.95096   0.29360   0.81274   0.00000  Uiso   1.00
C768   C     0.83485   0.24984   0.83021   0.00000  Uiso   1.00
C769   C     0.54524   0.21459   0.81845   0.00000  Uiso   1.00
C770   C     0.59516   0.29070   0.85928   0.00000  Uiso   1.00
C771   C     0.90936   0.20959   0.84145   0.00000  Uiso   1.00
C772   C     0.90484   0.29070   0.80739   0.00000  Uiso   1.00
C773   C     0.59064   0.20959   0.82522   0.00000  Uiso   1.00
C774   C     0.61679   0.24953   0.84152   0.00000  Uiso   1.00
C775   C     0.88321   0.24953   0.82514   0.00000  Uiso   1.00
C776   C     0.52416   0.25573   0.83356   0.00000  Uiso   1.00
C777   C     0.97584   0.25573   0.83311   0.00000  Uiso   1.00
C778   C     0.79017   0.12675   0.91720   0.00000  Uiso   1.00
C779   C     0.76607   0.10368   0.87438   0.00000  Uiso   1.00
C780   C     0.68140   0.37198   0.77748   0.00000  Uiso   1.00
C781   C     0.70983   0.12675   0.74947   0.00000  Uiso   1.00
C782   C     0.81860   0.37198   0.88918   0.00000  Uiso   1.00
C783   C     0.61876   0.32906   0.88825   0.00000  Uiso   1.00
C784   C     0.89251   0.16042   0.84751   0.00000  Uiso   1.00
C785   C     0.88124   0.32906   0.77842   0.00000  Uiso   1.00
C786   C     0.60749   0.16042   0.81915   0.00000  Uiso   1.00
C787   C     0.71588   0.39589   0.80943   0.00000  Uiso   1.00
C788   C     0.73393   0.10368   0.79229   0.00000  Uiso   1.00
C789   C     0.78412   0.39589   0.85723   0.00000  Uiso   1.00
C790   C     0.76127   0.05333   0.87676   0.00000  Uiso   1.00
C791   C     0.71305   0.44619   0.81364   0.00000  Uiso   1.00
C792   C     0.73873   0.05333   0.78991   0.00000  Uiso   1.00
Cu793  Cu    0.75000   0.29822   0.83333   0.00000  Uiso   1.00
Cu794  Cu    0.75000   0.20179   0.83333   0.00000  Uiso   1.00
H795   H     0.53224   0.32425   0.86816   0.00000  Uiso   1.00
H796   H     0.89521   0.09980   0.88774   0.00000  Uiso   1.00
H797   H     0.87870   0.39870   0.75927   0.00000  Uiso   1.00
H798   H     0.60479   0.09980   0.77893   0.00000  Uiso   1.00
H799   H     0.75353   0.00049   0.92189   0.00000  Uiso   1.00
H800   H     0.67151   0.49912   0.81356   0.00000  Uiso   1.00
H801   H     0.74647   0.00049   0.74478   0.00000  Uiso   1.00
H802   H     0.82849   0.49912   0.85311   0.00000  Uiso   1.00
H803   H     0.97431   0.18475   0.86287   0.00000  Uiso   1.00
H804   H     0.96776   0.32425   0.79850   0.00000  Uiso   1.00
H805   H     0.52569   0.18475   0.80379   0.00000  Uiso   1.00
H806   H     0.79905   0.13313   0.99102   0.00000  Uiso   1.00
H807   H     0.66488   0.33965   0.71261   0.00000  Uiso   1.00
H808   H     0.70095   0.13313   0.67564   0.00000  Uiso   1.00
H809   H     0.83513   0.33965   0.95406   0.00000  Uiso   1.00
H810   H     0.62130   0.39870   0.90740   0.00000  Uiso   1.00
N811   N     0.75000   0.12935   0.83333   0.00000  Uiso   1.00
N812   N     0.75000   0.37066   0.83333   0.00000  Uiso   1.00
O813   O     0.68573   0.29071   0.83334   0.00000  Uiso   1.00
O814   O     0.77986   0.11547   0.96500   0.00000  Uiso   1.00
O815   O     0.64336   0.37151   0.78921   0.00000  Uiso   1.00
O816   O     0.69143   0.35416   0.73170   0.00000  Uiso   1.00
O817   O     0.67976   0.15437   0.75554   0.00000  Uiso   1.00
O818   O     0.72014   0.11547   0.70167   0.00000  Uiso   1.00
O819   O     0.85664   0.37151   0.87745   0.00000  Uiso   1.00
O820   O     0.80857   0.35416   0.93497   0.00000  Uiso   1.00
O821   O     0.65102   0.31953   0.91590   0.00000  Uiso   1.00
O822   O     0.60267   0.37587   0.88580   0.00000  Uiso   1.00
O823   O     0.86846   0.14207   0.81488   0.00000  Uiso   1.00
O824   O     0.81427   0.20929   0.83333   0.00000  Uiso   1.00
O825   O     0.90768   0.13341   0.88851   0.00000  Uiso   1.00
O826   O     0.84898   0.31953   0.75077   0.00000  Uiso   1.00
O827   O     0.89733   0.37587   0.78087   0.00000  Uiso   1.00
O828   O     0.63154   0.14207   0.85179   0.00000  Uiso   1.00
O829   O     0.59232   0.13341   0.77816   0.00000  Uiso   1.00
O830   O     0.77011   0.03091   0.92167   0.00000  Uiso   1.00
O831   O     0.67420   0.46814   0.79651   0.00000  Uiso   1.00
O832   O     0.72989   0.03091   0.74500   0.00000  Uiso   1.00
O833   O     0.82580   0.46814   0.87016   0.00000  Uiso   1.00
O834   O     0.81427   0.29072   0.83333   0.00000  Uiso   1.00
O835   O     0.68573   0.20929   0.83334   0.00000  Uiso   1.00
O836   O     0.75000   0.29071   0.76280   0.00000  Uiso   1.00
O837   O     0.75000   0.20929   0.90387   0.00000  Uiso   1.00
O838   O     0.75000   0.29071   0.90387   0.00000  Uiso   1.00
O839   O     0.75000   0.20929   0.76280   0.00000  Uiso   1.00
O840   O     0.82024   0.15437   0.91113   0.00000  Uiso   1.00
C841   C     0.16515   0.74984   0.83645   0.00000  Uiso   1.00
C842   C     0.28695   0.94619   0.85303   0.00000  Uiso   1.00
C843   C     0.24983   0.75000   0.74026   0.00000  Uiso   1.00
C844   C     0.25017   0.75000   0.92641   0.00000  Uiso   1.00
C845   C     0.25000   0.52701   0.83333   0.00000  Uiso   1.00
C846   C     0.25000   0.97260   0.83333   0.00000  Uiso   1.00
C847   C     0.24994   0.74998   0.68852   0.00000  Uiso   1.00
C848   C     0.25006   0.74998   0.97814   0.00000  Uiso   1.00
C849   C     0.04904   0.79360   0.85393   0.00000  Uiso   1.00
C850   C     0.45476   0.71459   0.84821   0.00000  Uiso   1.00
C851   C     0.45096   0.79360   0.81274   0.00000  Uiso   1.00
C852   C     0.33485   0.74984   0.83021   0.00000  Uiso   1.00
C853   C     0.04524   0.71459   0.81845   0.00000  Uiso   1.00
C854   C     0.09516   0.79070   0.85928   0.00000  Uiso   1.00
C855   C     0.40936   0.70959   0.84145   0.00000  Uiso   1.00
C856   C     0.40484   0.79070   0.80739   0.00000  Uiso   1.00
C857   C     0.09064   0.70959   0.82522   0.00000  Uiso   1.00
C858   C     0.11679   0.74953   0.84152   0.00000  Uiso   1.00
C859   C     0.38321   0.74953   0.82514   0.00000  Uiso   1.00
C860   C     0.02416   0.75573   0.83356   0.00000  Uiso   1.00
C861   C     0.47584   0.75573   0.83311   0.00000  Uiso   1.00
C862   C     0.29017   0.62675   0.91720   0.00000  Uiso   1.00
C863   C     0.26607   0.60368   0.87438   0.00000  Uiso   1.00
C864   C     0.18140   0.87198   0.77748   0.00000  Uiso   1.00
C865   C     0.20983   0.62675   0.74947   0.00000  Uiso   1.00
C866   C     0.31860   0.87198   0.88918   0.00000  Uiso   1.00
C867   C     0.11876   0.82906   0.88825   0.00000  Uiso   1.00
C868   C     0.39251   0.66042   0.84751   0.00000  Uiso   1.00
C869   C     0.38124   0.82906   0.77842   0.00000  Uiso   1.00
C870   C     0.10749   0.66042   0.81915   0.00000  Uiso   1.00
C871   C     0.21588   0.89589   0.80943   0.00000  Uiso   1.00
C872   C     0.23393   0.60368   0.79229   0.00000  Uiso   1.00
C873   C     0.28412   0.89589   0.85723   0.00000  Uiso   1.00
C874   C     0.26127   0.55333   0.87676   0.00000  Uiso   1.00
C875   C     0.21305   0.94619   0.81364   0.00000  Uiso   1.00
C876   C     0.23873   0.55333   0.78991   0.00000  Uiso   1.00
Cu877  Cu    0.25000   0.79822   0.83333   0.00000  Uiso   1.00
Cu878  Cu    0.25000   0.70179   0.83333   0.00000  Uiso   1.00
H879   H     0.03224   0.82425   0.86816   0.00000  Uiso   1.00
H880   H     0.39521   0.59980   0.88774   0.00000  Uiso   1.00
H881   H     0.37870   0.89870   0.75927   0.00000  Uiso   1.00
H882   H     0.10479   0.59980   0.77893   0.00000  Uiso   1.00
H883   H     0.25353   0.50049   0.92189   0.00000  Uiso   1.00
H884   H     0.17151   0.99912   0.81356   0.00000  Uiso   1.00
H885   H     0.24647   0.50049   0.74478   0.00000  Uiso   1.00
H886   H     0.32849   0.99912   0.85311   0.00000  Uiso   1.00
H887   H     0.47431   0.68475   0.86287   0.00000  Uiso   1.00
H888   H     0.46776   0.82425   0.79850   0.00000  Uiso   1.00
H889   H     0.02569   0.68475   0.80379   0.00000  Uiso   1.00
H890   H     0.29905   0.63313   0.99102   0.00000  Uiso   1.00
H891   H     0.16488   0.83965   0.71261   0.00000  Uiso   1.00
H892   H     0.20095   0.63313   0.67564   0.00000  Uiso   1.00
H893   H     0.33513   0.83965   0.95406   0.00000  Uiso   1.00
H894   H     0.12130   0.89870   0.90740   0.00000  Uiso   1.00
N895   N     0.25000   0.62935   0.83333   0.00000  Uiso   1.00
N896   N     0.25000   0.87066   0.83333   0.00000  Uiso   1.00
O897   O     0.18573   0.79071   0.83334   0.00000  Uiso   1.00
O898   O     0.27986   0.61547   0.96500   0.00000  Uiso   1.00
O899   O     0.14336   0.87151   0.78921   0.00000  Uiso   1.00
O900   O     0.19143   0.85416   0.73170   0.00000  Uiso   1.00
O901   O     0.17976   0.65437   0.75554   0.00000  Uiso   1.00
O902   O     0.22014   0.61547   0.70167   0.00000  Uiso   1.00
O903   O     0.35664   0.87151   0.87745   0.00000  Uiso   1.00
O904   O     0.30857   0.85416   0.93497   0.00000  Uiso   1.00
O905   O     0.15102   0.81953   0.91590   0.00000  Uiso   1.00
O906   O     0.10267   0.87587   0.88580   0.00000  Uiso   1.00
O907   O     0.36846   0.64207   0.81488   0.00000  Uiso   1.00
O908   O     0.31427   0.70929   0.83333   0.00000  Uiso   1.00
O909   O     0.40768   0.63341   0.88851   0.00000  Uiso   1.00
O910   O     0.34898   0.81953   0.75077   0.00000  Uiso   1.00
O911   O     0.39733   0.87587   0.78087   0.00000  Uiso   1.00
O912   O     0.13154   0.64207   0.85179   0.00000  Uiso   1.00
O913   O     0.09232   0.63341   0.77816   0.00000  Uiso   1.00
O914   O     0.27011   0.53091   0.92167   0.00000  Uiso   1.00
O915   O     0.17420   0.96814   0.79651   0.00000  Uiso   1.00
O916   O     0.22989   0.53091   0.74500   0.00000  Uiso   1.00
O917   O     0.32580   0.96814   0.87016   0.00000  Uiso   1.00
O918   O     0.31427   0.79072   0.83333   0.00000  Uiso   1.00
O919   O     0.18573   0.70929   0.83334   0.00000  Uiso   1.00
O920   O     0.25000   0.79071   0.76280   0.00000  Uiso   1.00
O921   O     0.25000   0.70929   0.90387   0.00000  Uiso   1.00
O922   O     0.25000   0.79071   0.90387   0.00000  Uiso   1.00
O923   O     0.25000   0.70929   0.76280   0.00000  Uiso   1.00
O924   O     0.32024   0.65437   0.91113   0.00000  Uiso   1.00
C925   C     0.66515   0.74984   0.83645   0.00000  Uiso   1.00
C926   C     0.78695   0.94619   0.85303   0.00000  Uiso   1.00
C927   C     0.74983   0.75000   0.74026   0.00000  Uiso   1.00
C928   C     0.75017   0.75000   0.92641   0.00000  Uiso   1.00
C929   C     0.75000   0.52701   0.83333   0.00000  Uiso   1.00
C930   C     0.75000   0.97260   0.83333   0.00000  Uiso   1.00
C931   C     0.74994   0.74998   0.68852   0.00000  Uiso   1.00
C932   C     0.75006   0.74998   0.97814   0.00000  Uiso   1.00
C933   C     0.54904   0.79360   0.85393   0.00000  Uiso   1.00
C934   C     0.95476   0.71459   0.84821   0.00000  Uiso   1.00
C935   C     0.95096   0.79360   0.81274   0.00000  Uiso   1.00
C936   C     0.83485   0.74984   0.83021   0.00000  Uiso   1.00
C937   C     0.54524   0.71459   0.81845   0.00000  Uiso   1.00
C938   C     0.59516   0.79070   0.85928   0.00000  Uiso   1.00
C939   C     0.90936   0.70959   0.84145   0.00000  Uiso   1.00
C940   C     0.90484   0.79070   0.80739   0.00000  Uiso   1.00
C941   C     0.59064   0.70959   0.82522   0.00000  Uiso   1.00
C942   C     0.61679   0.74953   0.84152   0.00000  Uiso   1.00
C943   C     0.88321   0.74953   0.82514   0.00000  Uiso   1.00
C944   C     0.52416   0.75573   0.83356   0.00000  Uiso   1.00
C945   C     0.97584   0.75573   0.83311   0.00000  Uiso   1.00
C946   C     0.79017   0.62675   0.91720   0.00000  Uiso   1.00
C947   C     0.76607   0.60368   0.87438   0.00000  Uiso   1.00
C948   C     0.68140   0.87198   0.77748   0.00000  Uiso   1.00
C949   C     0.70983   0.62675   0.74947   0.00000  Uiso   1.00
C950   C     0.81860   0.87198   0.88918   0.00000  Uiso   1.00
C951   C     0.61876   0.82906   0.88825   0.00000  Uiso   1.00
C952   C     0.89251   0.66042   0.84751   0.00000  Uiso   1.00
C953   C     0.88124   0.82906   0.77842   0.00000  Uiso   1.00
C954   C     0.60749   0.66042   0.81915   0.00000  Uiso   1.00
C955   C     0.71588   0.89589   0.80943   0.00000  Uiso   1.00
C956   C     0.73393   0.60368   0.79229   0.00000  Uiso   1.00
C957   C     0.78412   0.89589   0.85723   0.00000  Uiso   1.00
C958   C     0.76127   0.55333   0.87676   0.00000  Uiso   1.00
C959   C     0.71305   0.94619   0.81364   0.00000  Uiso   1.00
C960   C     0.73873   0.55333   0.78991   0.00000  Uiso   1.00
Cu961  Cu    0.75000   0.79822   0.83333   0.00000  Uiso   1.00
Cu962  Cu    0.75000   0.70179   0.83333   0.00000  Uiso   1.00
H963   H     0.53224   0.82425   0.86816   0.00000  Uiso   1.00
H964   H     0.89521   0.59980   0.88774   0.00000  Uiso   1.00
H965   H     0.87870   0.89870   0.75927   0.00000  Uiso   1.00
H966   H     0.60479   0.59980   0.77893   0.00000  Uiso   1.00
H967   H     0.75353   0.50049   0.92189   0.00000  Uiso   1.00
H968   H     0.67151   0.99912   0.81356   0.00000  Uiso   1.00
H969   H     0.74647   0.50049   0.74478   0.00000  Uiso   1.00
H970   H     0.82849   0.99912   0.85311   0.00000  Uiso   1.00
H971   H     0.97431   0.68475   0.86287   0.00000  Uiso   1.00
H972   H     0.96776   0.82425   0.79850   0.00000  Uiso   1.00
H973   H     0.52569   0.68475   0.80379   0.00000  Uiso   1.00
H974   H     0.79905   0.63313   0.99102   0.00000  Uiso   1.00
H975   H     0.66488   0.83965   0.71261   0.00000  Uiso   1.00
H976   H     0.70095   0.63313   0.67564   0.00000  Uiso   1.00
H977   H     0.83513   0.83965   0.95406   0.00000  Uiso   1.00
H978   H     0.62130   0.89870   0.90740   0.00000  Uiso   1.00
N979   N     0.75000   0.62935   0.83333   0.00000  Uiso   1.00
N980   N     0.75000   0.87066   0.83333   0.00000  Uiso   1.00
O981   O     0.68573   0.79071   0.83334   0.00000  Uiso   1.00
O982   O     0.77986   0.61547   0.96500   0.00000  Uiso   1.00
O983   O     0.64336   0.87151   0.78921   0.00000  Uiso   1.00
O984   O     0.69143   0.85416   0.73170   0.00000  Uiso   1.00
O985   O     0.67976   0.65437   0.75554   0.00000  Uiso   1.00
O986   O     0.72014   0.61547   0.70167   0.00000  Uiso   1.00
O987   O     0.85664   0.87151   0.87745   0.00000  Uiso   1.00
O988   O     0.80857   0.85416   0.93497   0.00000  Uiso   1.00
O989   O     0.65102   0.81953   0.91590   0.00000  Uiso   1.00
O990   O     0.60267   0.87587   0.88580   0.00000  Uiso   1.00
O991   O     0.86846   0.64207   0.81488   0.00000  Uiso   1.00
O992   O     0.81427   0.70929   0.83333   0.00000  Uiso   1.00
O993   O     0.90768   0.63341   0.88851   0.00000  Uiso   1.00
O994   O     0.84898   0.81953   0.75077   0.00000  Uiso   1.00
O995   O     0.89733   0.87587   0.78087   0.00000  Uiso   1.00
O996   O     0.63154   0.64207   0.85179   0.00000  Uiso   1.00
O997   O     0.59232   0.63341   0.77816   0.00000  Uiso   1.00
O998   O     0.77011   0.53091   0.92167   0.00000  Uiso   1.00
O999   O     0.67420   0.96814   0.79651   0.00000  Uiso   1.00
O1000  O     0.72989   0.53091   0.74500   0.00000  Uiso   1.00
O1001  O     0.82580   0.96814   0.87016   0.00000  Uiso   1.00
O1002  O     0.81427   0.79072   0.83333   0.00000  Uiso   1.00
O1003  O     0.68573   0.70929   0.83334   0.00000  Uiso   1.00
O1004  O     0.75000   0.79071   0.76280   0.00000  Uiso   1.00
O1005  O     0.75000   0.70929   0.90387   0.00000  Uiso   1.00
O1006  O     0.75000   0.79071   0.90387   0.00000  Uiso   1.00
O1007  O     0.75000   0.70929   0.76280   0.00000  Uiso   1.00
O1008  O     0.82024   0.65437   0.91113   0.00000  Uiso   1.00
loop_
_geom_bond_atom_site_label_1
_geom_bond_atom_site_label_2
_geom_bond_distance
_geom_bond_site_symmetry_2
_ccdc_geom_bond_type
C1     C18     1.487   .     S
C1     O57     1.310   .     A
C1     O79     1.302   .     A
C2     C6      1.418   .     A
C2     C33     1.416   .     A
C2     O77     1.383   .     S
C3     C7      1.408   .     S
C3     O80     1.294   .     A
C3     O83     1.294   .     A
C4     C8      1.408   .     S
C4     O81     1.294   .     A
C4     O82     1.294   .     A
C5     C36     1.414   .     A
C5     C34     1.414   .     A
C5     C174    1.523   1_545 S
C6     C35     1.418   .     A
C6     C173    1.523   .     S
C7     C680    1.190   1_554 S
C8     C343    1.190   .     S
C9     H39     1.084   .     S
C9     C14     1.403   .     A
C9     C20     1.395   .     A
C10    C15     1.387   .     A
C10    C21     1.394   .     A
C10    H47     1.085   .     S
C11    H48     1.084   .     S
C11    C21     1.395   .     A
C11    C16     1.403   .     A
C12    O68     1.302   .     A
C12    O78     1.310   .     A
C12    C19     1.487   .     S
C13    H49     1.085   .     S
C13    C20     1.394   .     A
C13    C17     1.387   .     A
C14    C18     1.428   .     A
C14    C27     1.487   .     S
C15    C19     1.425   .     A
C15    C28     1.482   .     S
C16    C29     1.487   .     S
C16    C19     1.428   .     A
C17    C30     1.482   .     S
C17    C18     1.425   .     A
C20    C105    1.469   1_455 S
C21    C104    1.469   .     S
C22    O84     1.218   .     D
C22    O58     1.396   .     S
C22    C23     1.481   .     S
C23    C34     1.419   .     A
C23    N55     1.388   .     A
C24    O59     1.222   .     D
C24    O60     1.396   .     S
C24    C31     1.475   .     S
C25    C32     1.480   .     S
C25    O61     1.218   .     D
C25    O62     1.396   .     S
C26    O63     1.222   .     D
C26    O64     1.396   .     S
C26    C33     1.475   .     S
C27    O65     1.223   .     D
C27    O66     1.399   .     S
C28    O69     1.399   .     S
C28    O67     1.223   .     D
C29    O70     1.223   .     D
C29    O71     1.399   .     S
C30    O73     1.399   .     S
C30    O72     1.223   .     D
C31    N56     1.380   .     A
C31    C35     1.416   .     A
C32    C36     1.419   .     A
C32    N55     1.388   .     A
C33    N56     1.380   .     A
C34    O74     1.383   .     S
C35    O75     1.383   .     S
C36    O76     1.383   .     S
Cu37   N56     2.028   .     S
Cu37   O80     1.931   .     S
Cu37   Cu38    2.699   .     S
Cu37   O82     1.931   .     S
Cu37   O78     1.966   .     S
Cu37   O57     1.966   .     S
Cu38   O83     1.931   .     S
Cu38   O79     1.966   .     S
Cu38   N55     2.028   .     S
Cu38   O68     1.966   .     S
Cu38   O81     1.931   .     S
H40    O69     1.014   .     S
H41    O71     1.014   .     S
H42    O73     1.014   .     S
H43    O74     0.990   .     S
H44    O75     0.990   .     S
H45    O76     0.990   .     S
H46    O77     0.990   .     S
H50    O58     1.014   .     S
H51    O60     1.014   .     S
H52    O62     1.014   .     S
H53    O64     1.014   .     S
H54    O66     1.014   .     S
C85    C102    1.487   .     S
C85    O141    1.310   .     A
C85    O163    1.302   .     A
C86    C90     1.418   .     A
C86    C117    1.416   .     A
C86    O161    1.383   .     S
C87    C91     1.408   .     S
C87    O164    1.294   .     A
C87    O167    1.294   .     A
C88    C92     1.408   .     S
C88    O165    1.294   .     A
C88    O166    1.294   .     A
C89    C120    1.414   .     A
C89    C118    1.414   .     A
C89    C258    1.523   1_545 S
C90    C119    1.418   .     A
C90    C257    1.523   .     S
C91    C764    1.190   1_554 S
C92    C427    1.190   .     S
C93    H123    1.084   .     S
C93    C98     1.403   .     A
C93    C104    1.395   .     A
C94    C99     1.387   .     A
C94    C105    1.394   .     A
C94    H131    1.085   .     S
C95    H132    1.084   .     S
C95    C105    1.395   .     A
C95    C100    1.403   .     A
C96    O152    1.302   .     A
C96    O162    1.310   .     A
C96    C103    1.487   .     S
C97    H133    1.085   .     S
C97    C104    1.394   .     A
C97    C101    1.387   .     A
C98    C102    1.428   .     A
C98    C111    1.487   .     S
C99    C103    1.425   .     A
C99    C112    1.482   .     S
C100   C113    1.487   .     S
C100   C103    1.428   .     A
C101   C114    1.482   .     S
C101   C102    1.425   .     A
C105   C20     1.469   1_655 S
C106   O168    1.218   .     D
C106   O142    1.396   .     S
C106   C107    1.481   .     S
C107   C118    1.419   .     A
C107   N139    1.388   .     A
C108   O143    1.222   .     D
C108   O144    1.396   .     S
C108   C115    1.475   .     S
C109   C116    1.480   .     S
C109   O145    1.218   .     D
C109   O146    1.396   .     S
C110   O147    1.222   .     D
C110   O148    1.396   .     S
C110   C117    1.475   .     S
C111   O149    1.223   .     D
C111   O150    1.399   .     S
C112   O153    1.399   .     S
C112   O151    1.223   .     D
C113   O154    1.223   .     D
C113   O155    1.399   .     S
C114   O157    1.399   .     S
C114   O156    1.223   .     D
C115   N140    1.380   .     A
C115   C119    1.416   .     A
C116   C120    1.419   .     A
C116   N139    1.388   .     A
C117   N140    1.380   .     A
C118   O158    1.383   .     S
C119   O159    1.383   .     S
C120   O160    1.383   .     S
Cu121  N140    2.028   .     S
Cu121  O164    1.931   .     S
Cu121  Cu122   2.699   .     S
Cu121  O166    1.931   .     S
Cu121  O162    1.966   .     S
Cu121  O141    1.966   .     S
Cu122  O167    1.931   .     S
Cu122  O163    1.966   .     S
Cu122  N139    2.028   .     S
Cu122  O152    1.966   .     S
Cu122  O165    1.931   .     S
H124   O153    1.014   .     S
H125   O155    1.014   .     S
H126   O157    1.014   .     S
H127   O158    0.990   .     S
H128   O159    0.990   .     S
H129   O160    0.990   .     S
H130   O161    0.990   .     S
H134   O142    1.014   .     S
H135   O144    1.014   .     S
H136   O146    1.014   .     S
H137   O148    1.014   .     S
H138   O150    1.014   .     S
C169   C186    1.487   .     S
C169   O225    1.310   .     A
C169   O247    1.302   .     A
C170   C174    1.418   .     A
C170   C201    1.416   .     A
C170   O245    1.383   .     S
C171   C175    1.408   .     S
C171   O248    1.294   .     A
C171   O251    1.294   .     A
C172   C176    1.408   .     S
C172   O249    1.294   .     A
C172   O250    1.294   .     A
C173   C204    1.414   .     A
C173   C202    1.414   .     A
C174   C203    1.418   .     A
C174   C5      1.523   1_565 S
C175   C848    1.190   1_554 S
C176   C511    1.190   .     S
C177   H207    1.084   .     S
C177   C182    1.403   .     A
C177   C188    1.395   .     A
C178   C183    1.387   .     A
C178   C189    1.394   .     A
C178   H215    1.085   .     S
C179   H216    1.084   .     S
C179   C189    1.395   .     A
C179   C184    1.403   .     A
C180   O236    1.302   .     A
C180   O246    1.310   .     A
C180   C187    1.487   .     S
C181   H217    1.085   .     S
C181   C188    1.394   .     A
C181   C185    1.387   .     A
C182   C186    1.428   .     A
C182   C195    1.487   .     S
C183   C187    1.425   .     A
C183   C196    1.482   .     S
C184   C197    1.487   .     S
C184   C187    1.428   .     A
C185   C198    1.482   .     S
C185   C186    1.425   .     A
C188   C273    1.469   1_455 S
C189   C272    1.469   .     S
C190   O252    1.218   .     D
C190   O226    1.396   .     S
C190   C191    1.481   .     S
C191   C202    1.419   .     A
C191   N223    1.388   .     A
C192   O227    1.222   .     D
C192   O228    1.396   .     S
C192   C199    1.475   .     S
C193   C200    1.480   .     S
C193   O229    1.218   .     D
C193   O230    1.396   .     S
C194   O231    1.222   .     D
C194   O232    1.396   .     S
C194   C201    1.475   .     S
C195   O233    1.223   .     D
C195   O234    1.399   .     S
C196   O237    1.399   .     S
C196   O235    1.223   .     D
C197   O238    1.223   .     D
C197   O239    1.399   .     S
C198   O241    1.399   .     S
C198   O240    1.223   .     D
C199   N224    1.380   .     A
C199   C203    1.416   .     A
C200   C204    1.419   .     A
C200   N223    1.388   .     A
C201   N224    1.380   .     A
C202   O242    1.383   .     S
C203   O243    1.383   .     S
C204   O244    1.383   .     S
Cu205  N224    2.028   .     S
Cu205  O248    1.931   .     S
Cu205  Cu206   2.699   .     S
Cu205  O250    1.931   .     S
Cu205  O246    1.966   .     S
Cu205  O225    1.966   .     S
Cu206  O251    1.931   .     S
Cu206  O247    1.966   .     S
Cu206  N223    2.028   .     S
Cu206  O236    1.966   .     S
Cu206  O249    1.931   .     S
H208   O237    1.014   .     S
H209   O239    1.014   .     S
H210   O241    1.014   .     S
H211   O242    0.990   .     S
H212   O243    0.990   .     S
H213   O244    0.990   .     S
H214   O245    0.990   .     S
H218   O226    1.014   .     S
H219   O228    1.014   .     S
H220   O230    1.014   .     S
H221   O232    1.014   .     S
H222   O234    1.014   .     S
C253   C270    1.487   .     S
C253   O309    1.310   .     A
C253   O331    1.302   .     A
C254   C258    1.418   .     A
C254   C285    1.416   .     A
C254   O329    1.383   .     S
C255   C259    1.408   .     S
C255   O332    1.294   .     A
C255   O335    1.294   .     A
C256   C260    1.408   .     S
C256   O333    1.294   .     A
C256   O334    1.294   .     A
C257   C288    1.414   .     A
C257   C286    1.414   .     A
C258   C287    1.418   .     A
C258   C89     1.523   1_565 S
C259   C932    1.190   1_554 S
C260   C595    1.190   .     S
C261   H291    1.084   .     S
C261   C266    1.403   .     A
C261   C272    1.395   .     A
C262   C267    1.387   .     A
C262   C273    1.394   .     A
C262   H299    1.085   .     S
C263   H300    1.084   .     S
C263   C273    1.395   .     A
C263   C268    1.403   .     A
C264   O320    1.302   .     A
C264   O330    1.310   .     A
C264   C271    1.487   .     S
C265   H301    1.085   .     S
C265   C272    1.394   .     A
C265   C269    1.387   .     A
C266   C270    1.428   .     A
C266   C279    1.487   .     S
C267   C271    1.425   .     A
C267   C280    1.482   .     S
C268   C281    1.487   .     S
C268   C271    1.428   .     A
C269   C282    1.482   .     S
C269   C270    1.425   .     A
C273   C188    1.469   1_655 S
C274   O336    1.218   .     D
C274   O310    1.396   .     S
C274   C275    1.481   .     S
C275   C286    1.419   .     A
C275   N307    1.388   .     A
C276   O311    1.222   .     D
C276   O312    1.396   .     S
C276   C283    1.475   .     S
C277   C284    1.480   .     S
C277   O313    1.218   .     D
C277   O314    1.396   .     S
C278   O315    1.222   .     D
C278   O316    1.396   .     S
C278   C285    1.475   .     S
C279   O317    1.223   .     D
C279   O318    1.399   .     S
C280   O321    1.399   .     S
C280   O319    1.223   .     D
C281   O322    1.223   .     D
C281   O323    1.399   .     S
C282   O325    1.399   .     S
C282   O324    1.223   .     D
C283   N308    1.380   .     A
C283   C287    1.416   .     A
C284   C288    1.419   .     A
C284   N307    1.388   .     A
C285   N308    1.380   .     A
C286   O326    1.383   .     S
C287   O327    1.383   .     S
C288   O328    1.383   .     S
Cu289  N308    2.028   .     S
Cu289  O332    1.931   .     S
Cu289  Cu290   2.699   .     S
Cu289  O334    1.931   .     S
Cu289  O330    1.966   .     S
Cu289  O309    1.966   .     S
Cu290  O335    1.931   .     S
Cu290  O331    1.966   .     S
Cu290  N307    2.028   .     S
Cu290  O320    1.966   .     S
Cu290  O333    1.931   .     S
H292   O321    1.014   .     S
H293   O323    1.014   .     S
H294   O325    1.014   .     S
H295   O326    0.990   .     S
H296   O327    0.990   .     S
H297   O328    0.990   .     S
H298   O329    0.990   .     S
H302   O310    1.014   .     S
H303   O312    1.014   .     S
H304   O314    1.014   .     S
H305   O316    1.014   .     S
H306   O318    1.014   .     S
C337   C354    1.487   .     S
C337   O393    1.310   .     A
C337   O415    1.302   .     A
C338   C342    1.418   .     A
C338   C369    1.416   .     A
C338   O413    1.383   .     S
C339   C343    1.408   .     S
C339   O416    1.294   .     A
C339   O419    1.294   .     A
C340   C344    1.408   .     S
C340   O417    1.294   .     A
C340   O418    1.294   .     A
C341   C372    1.414   .     A
C341   C370    1.414   .     A
C341   C510    1.523   1_545 S
C342   C371    1.418   .     A
C342   C509    1.523   .     S
C344   C679    1.190   .     S
C345   H375    1.084   .     S
C345   C350    1.403   .     A
C345   C356    1.395   .     A
C346   C351    1.387   .     A
C346   C357    1.394   .     A
C346   H383    1.085   .     S
C347   H384    1.084   .     S
C347   C357    1.395   .     A
C347   C352    1.403   .     A
C348   O404    1.302   .     A
C348   O414    1.310   .     A
C348   C355    1.487   .     S
C349   H385    1.085   .     S
C349   C356    1.394   .     A
C349   C353    1.387   .     A
C350   C354    1.428   .     A
C350   C363    1.487   .     S
C351   C355    1.425   .     A
C351   C364    1.482   .     S
C352   C365    1.487   .     S
C352   C355    1.428   .     A
C353   C366    1.482   .     S
C353   C354    1.425   .     A
C356   C441    1.469   1_455 S
C357   C440    1.469   .     S
C358   O420    1.218   .     D
C358   O394    1.396   .     S
C358   C359    1.481   .     S
C359   C370    1.419   .     A
C359   N391    1.388   .     A
C360   O395    1.222   .     D
C360   O396    1.396   .     S
C360   C367    1.475   .     S
C361   C368    1.480   .     S
C361   O397    1.218   .     D
C361   O398    1.396   .     S
C362   O399    1.222   .     D
C362   O400    1.396   .     S
C362   C369    1.475   .     S
C363   O401    1.223   .     D
C363   O402    1.399   .     S
C364   O405    1.399   .     S
C364   O403    1.223   .     D
C365   O406    1.223   .     D
C365   O407    1.399   .     S
C366   O409    1.399   .     S
C366   O408    1.223   .     D
C367   N392    1.380   .     A
C367   C371    1.416   .     A
C368   C372    1.419   .     A
C368   N391    1.388   .     A
C369   N392    1.380   .     A
C370   O410    1.383   .     S
C371   O411    1.383   .     S
C372   O412    1.383   .     S
Cu373  N392    2.028   .     S
Cu373  O416    1.931   .     S
Cu373  Cu374   2.699   .     S
Cu373  O418    1.931   .     S
Cu373  O414    1.966   .     S
Cu373  O393    1.966   .     S
Cu374  O419    1.931   .     S
Cu374  O415    1.966   .     S
Cu374  N391    2.028   .     S
Cu374  O404    1.966   .     S
Cu374  O417    1.931   .     S
H376   O405    1.014   .     S
H377   O407    1.014   .     S
H378   O409    1.014   .     S
H379   O410    0.990   .     S
H380   O411    0.990   .     S
H381   O412    0.990   .     S
H382   O413    0.990   .     S
H386   O394    1.014   .     S
H387   O396    1.014   .     S
H388   O398    1.014   .     S
H389   O400    1.014   .     S
H390   O402    1.014   .     S
C421   C438    1.487   .     S
C421   O477    1.310   .     A
C421   O499    1.302   .     A
C422   C426    1.418   .     A
C422   C453    1.416   .     A
C422   O497    1.383   .     S
C423   C427    1.408   .     S
C423   O500    1.294   .     A
C423   O503    1.294   .     A
C424   C428    1.408   .     S
C424   O501    1.294   .     A
C424   O502    1.294   .     A
C425   C456    1.414   .     A
C425   C454    1.414   .     A
C425   C594    1.523   1_545 S
C426   C455    1.418   .     A
C426   C593    1.523   .     S
C428   C763    1.190   .     S
C429   H459    1.084   .     S
C429   C434    1.403   .     A
C429   C440    1.395   .     A
C430   C435    1.387   .     A
C430   C441    1.394   .     A
C430   H467    1.085   .     S
C431   H468    1.084   .     S
C431   C441    1.395   .     A
C431   C436    1.403   .     A
C432   O488    1.302   .     A
C432   O498    1.310   .     A
C432   C439    1.487   .     S
C433   H469    1.085   .     S
C433   C440    1.394   .     A
C433   C437    1.387   .     A
C434   C438    1.428   .     A
C434   C447    1.487   .     S
C435   C439    1.425   .     A
C435   C448    1.482   .     S
C436   C449    1.487   .     S
C436   C439    1.428   .     A
C437   C450    1.482   .     S
C437   C438    1.425   .     A
C441   C356    1.469   1_655 S
C442   O504    1.218   .     D
C442   O478    1.396   .     S
C442   C443    1.481   .     S
C443   C454    1.419   .     A
C443   N475    1.388   .     A
C444   O479    1.222   .     D
C444   O480    1.396   .     S
C444   C451    1.475   .     S
C445   C452    1.480   .     S
C445   O481    1.218   .     D
C445   O482    1.396   .     S
C446   O483    1.222   .     D
C446   O484    1.396   .     S
C446   C453    1.475   .     S
C447   O485    1.223   .     D
C447   O486    1.399   .     S
C448   O489    1.399   .     S
C448   O487    1.223   .     D
C449   O490    1.223   .     D
C449   O491    1.399   .     S
C450   O493    1.399   .     S
C450   O492    1.223   .     D
C451   N476    1.380   .     A
C451   C455    1.416   .     A
C452   C456    1.419   .     A
C452   N475    1.388   .     A
C453   N476    1.380   .     A
C454   O494    1.383   .     S
C455   O495    1.383   .     S
C456   O496    1.383   .     S
Cu457  N476    2.028   .     S
Cu457  O500    1.931   .     S
Cu457  Cu458   2.699   .     S
Cu457  O502    1.931   .     S
Cu457  O498    1.966   .     S
Cu457  O477    1.966   .     S
Cu458  O503    1.931   .     S
Cu458  O499    1.966   .     S
Cu458  N475    2.028   .     S
Cu458  O488    1.966   .     S
Cu458  O501    1.931   .     S
H460   O489    1.014   .     S
H461   O491    1.014   .     S
H462   O493    1.014   .     S
H463   O494    0.990   .     S
H464   O495    0.990   .     S
H465   O496    0.990   .     S
H466   O497    0.990   .     S
H470   O478    1.014   .     S
H471   O480    1.014   .     S
H472   O482    1.014   .     S
H473   O484    1.014   .     S
H474   O486    1.014   .     S
C505   C522    1.487   .     S
C505   O561    1.310   .     A
C505   O583    1.302   .     A
C506   C510    1.418   .     A
C506   C537    1.416   .     A
C506   O581    1.383   .     S
C507   C511    1.408   .     S
C507   O584    1.294   .     A
C507   O587    1.294   .     A
C508   C512    1.408   .     S
C508   O585    1.294   .     A
C508   O586    1.294   .     A
C509   C540    1.414   .     A
C509   C538    1.414   .     A
C510   C539    1.418   .     A
C510   C341    1.523   1_565 S
C512   C847    1.190   .     S
C513   H543    1.084   .     S
C513   C518    1.403   .     A
C513   C524    1.395   .     A
C514   C519    1.387   .     A
C514   C525    1.394   .     A
C514   H551    1.085   .     S
C515   H552    1.084   .     S
C515   C525    1.395   .     A
C515   C520    1.403   .     A
C516   O572    1.302   .     A
C516   O582    1.310   .     A
C516   C523    1.487   .     S
C517   H553    1.085   .     S
C517   C524    1.394   .     A
C517   C521    1.387   .     A
C518   C522    1.428   .     A
C518   C531    1.487   .     S
C519   C523    1.425   .     A
C519   C532    1.482   .     S
C520   C533    1.487   .     S
C520   C523    1.428   .     A
C521   C534    1.482   .     S
C521   C522    1.425   .     A
C524   C609    1.469   1_455 S
C525   C608    1.469   .     S
C526   O588    1.218   .     D
C526   O562    1.396   .     S
C526   C527    1.481   .     S
C527   C538    1.419   .     A
C527   N559    1.388   .     A
C528   O563    1.222   .     D
C528   O564    1.396   .     S
C528   C535    1.475   .     S
C529   C536    1.480   .     S
C529   O565    1.218   .     D
C529   O566    1.396   .     S
C530   O567    1.222   .     D
C530   O568    1.396   .     S
C530   C537    1.475   .     S
C531   O569    1.223   .     D
C531   O570    1.399   .     S
C532   O573    1.399   .     S
C532   O571    1.223   .     D
C533   O574    1.223   .     D
C533   O575    1.399   .     S
C534   O577    1.399   .     S
C534   O576    1.223   .     D
C535   N560    1.380   .     A
C535   C539    1.416   .     A
C536   C540    1.419   .     A
C536   N559    1.388   .     A
C537   N560    1.380   .     A
C538   O578    1.383   .     S
C539   O579    1.383   .     S
C540   O580    1.383   .     S
Cu541  N560    2.028   .     S
Cu541  O584    1.931   .     S
Cu541  Cu542   2.699   .     S
Cu541  O586    1.931   .     S
Cu541  O582    1.966   .     S
Cu541  O561    1.966   .     S
Cu542  O587    1.931   .     S
Cu542  O583    1.966   .     S
Cu542  N559    2.028   .     S
Cu542  O572    1.966   .     S
Cu542  O585    1.931   .     S
H544   O573    1.014   .     S
H545   O575    1.014   .     S
H546   O577    1.014   .     S
H547   O578    0.990   .     S
H548   O579    0.990   .     S
H549   O580    0.990   .     S
H550   O581    0.990   .     S
H554   O562    1.014   .     S
H555   O564    1.014   .     S
H556   O566    1.014   .     S
H557   O568    1.014   .     S
H558   O570    1.014   .     S
C589   C606    1.487   .     S
C589   O645    1.310   .     A
C589   O667    1.302   .     A
C590   C594    1.418   .     A
C590   C621    1.416   .     A
C590   O665    1.383   .     S
C591   C595    1.408   .     S
C591   O668    1.294   .     A
C591   O671    1.294   .     A
C592   C596    1.408   .     S
C592   O669    1.294   .     A
C592   O670    1.294   .     A
C593   C624    1.414   .     A
C593   C622    1.414   .     A
C594   C623    1.418   .     A
C594   C425    1.523   1_565 S
C596   C931    1.190   .     S
C597   H627    1.084   .     S
C597   C602    1.403   .     A
C597   C608    1.395   .     A
C598   C603    1.387   .     A
C598   C609    1.394   .     A
C598   H635    1.085   .     S
C599   H636    1.084   .     S
C599   C609    1.395   .     A
C599   C604    1.403   .     A
C600   O656    1.302   .     A
C600   O666    1.310   .     A
C600   C607    1.487   .     S
C601   H637    1.085   .     S
C601   C608    1.394   .     A
C601   C605    1.387   .     A
C602   C606    1.428   .     A
C602   C615    1.487   .     S
C603   C607    1.425   .     A
C603   C616    1.482   .     S
C604   C617    1.487   .     S
C604   C607    1.428   .     A
C605   C618    1.482   .     S
C605   C606    1.425   .     A
C609   C524    1.469   1_655 S
C610   O672    1.218   .     D
C610   O646    1.396   .     S
C610   C611    1.481   .     S
C611   C622    1.419   .     A
C611   N643    1.388   .     A
C612   O647    1.222   .     D
C612   O648    1.396   .     S
C612   C619    1.475   .     S
C613   C620    1.480   .     S
C613   O649    1.218   .     D
C613   O650    1.396   .     S
C614   O651    1.222   .     D
C614   O652    1.396   .     S
C614   C621    1.475   .     S
C615   O653    1.223   .     D
C615   O654    1.399   .     S
C616   O657    1.399   .     S
C616   O655    1.223   .     D
C617   O658    1.223   .     D
C617   O659    1.399   .     S
C618   O661    1.399   .     S
C618   O660    1.223   .     D
C619   N644    1.380   .     A
C619   C623    1.416   .     A
C620   C624    1.419   .     A
C620   N643    1.388   .     A
C621   N644    1.380   .     A
C622   O662    1.383   .     S
C623   O663    1.383   .     S
C624   O664    1.383   .     S
Cu625  N644    2.028   .     S
Cu625  O668    1.931   .     S
Cu625  Cu626   2.699   .     S
Cu625  O670    1.931   .     S
Cu625  O666    1.966   .     S
Cu625  O645    1.966   .     S
Cu626  O671    1.931   .     S
Cu626  O667    1.966   .     S
Cu626  N643    2.028   .     S
Cu626  O656    1.966   .     S
Cu626  O669    1.931   .     S
H628   O657    1.014   .     S
H629   O659    1.014   .     S
H630   O661    1.014   .     S
H631   O662    0.990   .     S
H632   O663    0.990   .     S
H633   O664    0.990   .     S
H634   O665    0.990   .     S
H638   O646    1.014   .     S
H639   O648    1.014   .     S
H640   O650    1.014   .     S
H641   O652    1.014   .     S
H642   O654    1.014   .     S
C673   C690    1.487   .     S
C673   O729    1.310   .     A
C673   O751    1.302   .     A
C674   C678    1.418   .     A
C674   C705    1.416   .     A
C674   O749    1.383   .     S
C675   C679    1.408   .     S
C675   O752    1.294   .     A
C675   O755    1.294   .     A
C676   C680    1.408   .     S
C676   O753    1.294   .     A
C676   O754    1.294   .     A
C677   C708    1.414   .     A
C677   C706    1.414   .     A
C677   C846    1.523   1_545 S
C678   C707    1.418   .     A
C678   C845    1.523   .     S
C680   C7      1.190   1_556 S
C681   H711    1.084   .     S
C681   C686    1.403   .     A
C681   C692    1.395   .     A
C682   C687    1.387   .     A
C682   C693    1.394   .     A
C682   H719    1.085   .     S
C683   H720    1.084   .     S
C683   C693    1.395   .     A
C683   C688    1.403   .     A
C684   O740    1.302   .     A
C684   O750    1.310   .     A
C684   C691    1.487   .     S
C685   H721    1.085   .     S
C685   C692    1.394   .     A
C685   C689    1.387   .     A
C686   C690    1.428   .     A
C686   C699    1.487   .     S
C687   C691    1.425   .     A
C687   C700    1.482   .     S
C688   C701    1.487   .     S
C688   C691    1.428   .     A
C689   C702    1.482   .     S
C689   C690    1.425   .     A
C692   C777    1.469   1_455 S
C693   C776    1.469   .     S
C694   O756    1.218   .     D
C694   O730    1.396   .     S
C694   C695    1.481   .     S
C695   C706    1.419   .     A
C695   N727    1.388   .     A
C696   O731    1.222   .     D
C696   O732    1.396   .     S
C696   C703    1.475   .     S
C697   C704    1.480   .     S
C697   O733    1.218   .     D
C697   O734    1.396   .     S
C698   O735    1.222   .     D
C698   O736    1.396   .     S
C698   C705    1.475   .     S
C699   O737    1.223   .     D
C699   O738    1.399   .     S
C700   O741    1.399   .     S
C700   O739    1.223   .     D
C701   O742    1.223   .     D
C701   O743    1.399   .     S
C702   O745    1.399   .     S
C702   O744    1.223   .     D
C703   N728    1.380   .     A
C703   C707    1.416   .     A
C704   C708    1.419   .     A
C704   N727    1.388   .     A
C705   N728    1.380   .     A
C706   O746    1.383   .     S
C707   O747    1.383   .     S
C708   O748    1.383   .     S
Cu709  N728    2.028   .     S
Cu709  O752    1.931   .     S
Cu709  Cu710   2.699   .     S
Cu709  O754    1.931   .     S
Cu709  O750    1.966   .     S
Cu709  O729    1.966   .     S
Cu710  O755    1.931   .     S
Cu710  O751    1.966   .     S
Cu710  N727    2.028   .     S
Cu710  O740    1.966   .     S
Cu710  O753    1.931   .     S
H712   O741    1.014   .     S
H713   O743    1.014   .     S
H714   O745    1.014   .     S
H715   O746    0.990   .     S
H716   O747    0.990   .     S
H717   O748    0.990   .     S
H718   O749    0.990   .     S
H722   O730    1.014   .     S
H723   O732    1.014   .     S
H724   O734    1.014   .     S
H725   O736    1.014   .     S
H726   O738    1.014   .     S
C757   C774    1.487   .     S
C757   O813    1.310   .     A
C757   O835    1.302   .     A
C758   C762    1.418   .     A
C758   C789    1.416   .     A
C758   O833    1.383   .     S
C759   C763    1.408   .     S
C759   O836    1.294   .     A
C759   O839    1.294   .     A
C760   C764    1.408   .     S
C760   O837    1.294   .     A
C760   O838    1.294   .     A
C761   C792    1.414   .     A
C761   C790    1.414   .     A
C761   C930    1.523   1_545 S
C762   C791    1.418   .     A
C762   C929    1.523   .     S
C764   C91     1.190   1_556 S
C765   H795    1.084   .     S
C765   C770    1.403   .     A
C765   C776    1.395   .     A
C766   C771    1.387   .     A
C766   C777    1.394   .     A
C766   H803    1.085   .     S
C767   H804    1.084   .     S
C767   C777    1.395   .     A
C767   C772    1.403   .     A
C768   O824    1.302   .     A
C768   O834    1.310   .     A
C768   C775    1.487   .     S
C769   H805    1.085   .     S
C769   C776    1.394   .     A
C769   C773    1.387   .     A
C770   C774    1.428   .     A
C770   C783    1.487   .     S
C771   C775    1.425   .     A
C771   C784    1.482   .     S
C772   C785    1.487   .     S
C772   C775    1.428   .     A
C773   C786    1.482   .     S
C773   C774    1.425   .     A
C777   C692    1.469   1_655 S
C778   O840    1.218   .     D
C778   O814    1.396   .     S
C778   C779    1.481   .     S
C779   C790    1.419   .     A
C779   N811    1.388   .     A
C780   O815    1.222   .     D
C780   O816    1.396   .     S
C780   C787    1.475   .     S
C781   C788    1.480   .     S
C781   O817    1.218   .     D
C781   O818    1.396   .     S
C782   O819    1.222   .     D
C782   O820    1.396   .     S
C782   C789    1.475   .     S
C783   O821    1.223   .     D
C783   O822    1.399   .     S
C784   O825    1.399   .     S
C784   O823    1.223   .     D
C785   O826    1.223   .     D
C785   O827    1.399   .     S
C786   O829    1.399   .     S
C786   O828    1.223   .     D
C787   N812    1.380   .     A
C787   C791    1.416   .     A
C788   C792    1.419   .     A
C788   N811    1.388   .     A
C789   N812    1.380   .     A
C790   O830    1.383   .     S
C791   O831    1.383   .     S
C792   O832    1.383   .     S
Cu793  N812    2.028   .     S
Cu793  O836    1.931   .     S
Cu793  Cu794   2.699   .     S
Cu793  O838    1.931   .     S
Cu793  O834    1.966   .     S
Cu793  O813    1.966   .     S
Cu794  O839    1.931   .     S
Cu794  O835    1.966   .     S
Cu794  N811    2.028   .     S
Cu794  O824    1.966   .     S
Cu794  O837    1.931   .     S
H796   O825    1.014   .     S
H797   O827    1.014   .     S
H798   O829    1.014   .     S
H799   O830    0.990   .     S
H800   O831    0.990   .     S
H801   O832    0.990   .     S
H802   O833    0.990   .     S
H806   O814    1.014   .     S
H807   O816    1.014   .     S
H808   O818    1.014   .     S
H809   O820    1.014   .     S
H810   O822    1.014   .     S
C841   C858    1.487   .     S
C841   O897    1.310   .     A
C841   O919    1.302   .     A
C842   C846    1.418   .     A
C842   C873    1.416   .     A
C842   O917    1.383   .     S
C843   C847    1.408   .     S
C843   O920    1.294   .     A
C843   O923    1.294   .     A
C844   C848    1.408   .     S
C844   O921    1.294   .     A
C844   O922    1.294   .     A
C845   C876    1.414   .     A
C845   C874    1.414   .     A
C846   C875    1.418   .     A
C846   C677    1.523   1_565 S
C848   C175    1.190   1_556 S
C849   H879    1.084   .     S
C849   C854    1.403   .     A
C849   C860    1.395   .     A
C850   C855    1.387   .     A
C850   C861    1.394   .     A
C850   H887    1.085   .     S
C851   H888    1.084   .     S
C851   C861    1.395   .     A
C851   C856    1.403   .     A
C852   O908    1.302   .     A
C852   O918    1.310   .     A
C852   C859    1.487   .     S
C853   H889    1.085   .     S
C853   C860    1.394   .     A
C853   C857    1.387   .     A
C854   C858    1.428   .     A
C854   C867    1.487   .     S
C855   C859    1.425   .     A
C855   C868    1.482   .     S
C856   C869    1.487   .     S
C856   C859    1.428   .     A
C857   C870    1.482   .     S
C857   C858    1.425   .     A
C860   C945    1.469   1_455 S
C861   C944    1.469   .     S
C862   O924    1.218   .     D
C862   O898    1.396   .     S
C862   C863    1.481   .     S
C863   C874    1.419   .     A
C863   N895    1.388   .     A
C864   O899    1.222   .     D
C864   O900    1.396   .     S
C864   C871    1.475   .     S
C865   C872    1.480   .     S
C865   O901    1.218   .     D
C865   O902    1.396   .     S
C866   O903    1.222   .     D
C866   O904    1.396   .     S
C866   C873    1.475   .     S
C867   O905    1.223   .     D
C867   O906    1.399   .     S
C868   O909    1.399   .     S
C868   O907    1.223   .     D
C869   O910    1.223   .     D
C869   O911    1.399   .     S
C870   O913    1.399   .     S
C870   O912    1.223   .     D
C871   N896    1.380   .     A
C871   C875    1.416   .     A
C872   C876    1.419   .     A
C872   N895    1.388   .     A
C873   N896    1.380   .     A
C874   O914    1.383   .     S
C875   O915    1.383   .     S
C876   O916    1.383   .     S
Cu877  N896    2.028   .     S
Cu877  O920    1.931   .     S
Cu877  Cu878   2.699   .     S
Cu877  O922    1.931   .     S
Cu877  O918    1.966   .     S
Cu877  O897    1.966   .     S
Cu878  O923    1.931   .     S
Cu878  O919    1.966   .     S
Cu878  N895    2.028   .     S
Cu878  O908    1.966   .     S
Cu878  O921    1.931   .     S
H880   O909    1.014   .     S
H881   O911    1.014   .     S
H882   O913    1.014   .     S
H883   O914    0.990   .     S
H884   O915    0.990   .     S
H885   O916    0.990   .     S
H886   O917    0.990   .     S
H890   O898    1.014   .     S
H891   O900    1.014   .     S
H892   O902    1.014   .     S
H893   O904    1.014   .     S
H894   O906    1.014   .     S
C925   C942    1.487   .     S
C925   O981    1.310   .     A
C925   O1003   1.302   .     A
C926   C930    1.418   .     A
C926   C957    1.416   .     A
C926   O1001   1.383   .     S
C927   C931    1.408   .     S
C927   O1004   1.294   .     A
C927   O1007   1.294   .     A
C928   C932    1.408   .     S
C928   O1005   1.294   .     A
C928   O1006   1.294   .     A
C929   C960    1.414   .     A
C929   C958    1.414   .     A
C930   C959    1.418   .     A
C930   C761    1.523   1_565 S
C932   C259    1.190   1_556 S
C933   H963    1.084   .     S
C933   C938    1.403   .     A
C933   C944    1.395   .     A
C934   C939    1.387   .     A
C934   C945    1.394   .     A
C934   H971    1.085   .     S
C935   H972    1.084   .     S
C935   C945    1.395   .     A
C935   C940    1.403   .     A
C936   O992    1.302   .     A
C936   O1002   1.310   .     A
C936   C943    1.487   .     S
C937   H973    1.085   .     S
C937   C944    1.394   .     A
C937   C941    1.387   .     A
C938   C942    1.428   .     A
C938   C951    1.487   .     S
C939   C943    1.425   .     A
C939   C952    1.482   .     S
C940   C953    1.487   .     S
C940   C943    1.428   .     A
C941   C954    1.482   .     S
C941   C942    1.425   .     A
C945   C860    1.469   1_655 S
C946   O1008   1.218   .     D
C946   O982    1.396   .     S
C946   C947    1.481   .     S
C947   C958    1.419   .     A
C947   N979    1.388   .     A
C948   O983    1.222   .     D
C948   O984    1.396   .     S
C948   C955    1.475   .     S
C949   C956    1.480   .     S
C949   O985    1.218   .     D
C949   O986    1.396   .     S
C950   O987    1.222   .     D
C950   O988    1.396   .     S
C950   C957    1.475   .     S
C951   O989    1.223   .     D
C951   O990    1.399   .     S
C952   O993    1.399   .     S
C952   O991    1.223   .     D
C953   O994    1.223   .     D
C953   O995    1.399   .     S
C954   O997    1.399   .     S
C954   O996    1.223   .     D
C955   N980    1.380   .     A
C955   C959    1.416   .     A
C956   C960    1.419   .     A
C956   N979    1.388   .     A
C957   N980    1.380   .     A
C958   O998    1.383   .     S
C959   O999    1.383   .     S
C960   O1000   1.383   .     S
Cu961  N980    2.028   .     S
Cu961  O1004   1.931   .     S
Cu961  Cu962   2.699   .     S
Cu961  O1006   1.931   .     S
Cu961  O1002   1.966   .     S
Cu961  O981    1.966   .     S
Cu962  O1007   1.931   .     S
Cu962  O1003   1.966   .     S
Cu962  N979    2.028   .     S
Cu962  O992    1.966   .     S
Cu962  O1005   1.931   .     S
H964   O993    1.014   .     S
H965   O995    1.014   .     S
H966   O997    1.014   .     S
H967   O998    0.990   .     S
H968   O999    0.990   .     S
H969   O1000   0.990   .     S
H970   O1001   0.990   .     S
H974   O982    1.014   .     S
H975   O984    1.014   .     S
H976   O986    1.014   .     S
H977   O988    1.014   .     S
H978   O990    1.014   .     S
