data_str_m2_o1_o16_pcu_sym.117
_audit_creation_date              2020-01-03
_audit_creation_method            'Materials Studio'
_symmetry_space_group_name_H-M    'P1'
_symmetry_Int_Tables_number       1
_symmetry_cell_setting            triclinic
loop_
_symmetry_equiv_pos_as_xyz
  x,y,z
_cell_length_a                    28.7617
_cell_length_b                    32.5847
_cell_length_c                    26.9232
_cell_angle_alpha                 89.0640
_cell_angle_beta                  71.6498
_cell_angle_gamma                 88.2350
loop_
_atom_site_label
_atom_site_type_symbol
_atom_site_fract_x
_atom_site_fract_y
_atom_site_fract_z
_atom_site_U_iso_or_equiv
_atom_site_adp_type
_atom_site_occupancy
C1     C     0.16559   0.24604   0.25079   0.00000  Uiso   1.00
C2     C     0.14849   0.15825   0.48694   0.00000  Uiso   1.00
C3     C     0.15148   0.17596   0.43740   0.00000  Uiso   1.00
C4     C     0.17881   0.17343   0.01508   0.00000  Uiso   1.00
C5     C     0.21298   0.20389   0.49153   0.00000  Uiso   1.00
C6     C     0.21365   0.22207   0.44414   0.00000  Uiso   1.00
C7     C     0.18217   0.20931   0.41835   0.00000  Uiso   1.00
C8     C     0.17570   0.16030   0.06620   0.00000  Uiso   1.00
C9     C     0.24619   0.20056   0.06415   0.00000  Uiso   1.00
C10    C     0.12476   0.15931   0.40693   0.00000  Uiso   1.00
C11    C     0.19900   0.31085   0.26775   0.00000  Uiso   1.00
C12    C     0.14016   0.16604   0.35004   0.00000  Uiso   1.00
C13    C     0.20184   0.01997   0.26566   0.00000  Uiso   1.00
C14    C     0.16850   0.04318   0.24811   0.00000  Uiso   1.00
C15    C     0.13249   0.02397   0.23320   0.00000  Uiso   1.00
C16    C     0.12807   0.31503   0.23700   0.00000  Uiso   1.00
C17    C     0.16377   0.29102   0.25146   0.00000  Uiso   1.00
C18    C     0.29787   0.19099   0.28359   0.00000  Uiso   1.00
C19    C     0.01395   0.19083   0.28377   0.00000  Uiso   1.00
C20    C     0.03542   0.14148   0.21759   0.00000  Uiso   1.00
C21    C     0.31933   0.14082   0.21816   0.00000  Uiso   1.00
C22    C     0.16748   0.08756   0.24935   0.00000  Uiso   1.00
C23    C     0.19319   0.16814   0.14959   0.00000  Uiso   1.00
C24    C     0.24690   0.21592   0.01510   0.00000  Uiso   1.00
C25    C     0.20773   0.17457   0.09199   0.00000  Uiso   1.00
C26    C     0.09070   0.12888   0.42821   0.00000  Uiso   1.00
C27    C     0.08683   0.11193   0.47701   0.00000  Uiso   1.00
C28    C     0.11687   0.12501   0.00505   0.00000  Uiso   1.00
Cu29   Cu    0.11978   0.16666   0.25000   0.00000  Uiso   1.00
Cu30   Cu    0.21355   0.16667   0.25000   0.00000  Uiso   1.00
H31    H     0.22889   0.03460   0.27923   0.00000  Uiso   1.00
H32    H     0.10568   0.04214   0.22098   0.00000  Uiso   1.00
H33    H     0.27094   0.21095   0.31016   0.00000  Uiso   1.00
H34    H     0.02388   0.21064   0.31044   0.00000  Uiso   1.00
H35    H     0.06248   0.12111   0.19182   0.00000  Uiso   1.00
H36    H     0.23856   0.24652   0.42697   0.00000  Uiso   1.00
H37    H     0.27541   0.23659   0.49393   0.00000  Uiso   1.00
H38    H     0.14702   0.14030   0.08787   0.00000  Uiso   1.00
H39    H     0.06992   0.11584   0.40531   0.00000  Uiso   1.00
H40    H     0.11470   0.10839   0.04062   0.00000  Uiso   1.00
H41    H     0.06210   0.08704   0.49210   0.00000  Uiso   1.00
H42    H     0.18278   0.22541   0.38267   0.00000  Uiso   1.00
H43    H     0.22285   0.29334   0.28445   0.00000  Uiso   1.00
N44    N     0.04931   0.16666   0.24999   0.00000  Uiso   1.00
N45    N     0.28402   0.16669   0.25000   0.00000  Uiso   1.00
O46    O     0.12708   0.22678   0.25001   0.00000  Uiso   1.00
O47    O     0.20627   0.22679   0.25001   0.00000  Uiso   1.00
O48    O     0.10775   0.16665   0.32549   0.00000  Uiso   1.00
O49    O     0.18694   0.16666   0.32549   0.00000  Uiso   1.00
O50    O     0.12706   0.10654   0.25000   0.00000  Uiso   1.00
O51    O     0.20625   0.10655   0.25000   0.00000  Uiso   1.00
O52    O     0.14640   0.16667   0.17451   0.00000  Uiso   1.00
O53    O     0.22559   0.16668   0.17451   0.00000  Uiso   1.00
C54    C     0.28977   0.20903   0.07991   0.00000  Uiso   1.00
C55    C     0.30854   0.24890   0.07390   0.00000  Uiso   1.00
C56    C     0.02421   0.25483   0.06974   0.00000  Uiso   1.00
C57    C     0.05425   0.22133   0.07389   0.00000  Uiso   1.00
C58    C     0.03444   0.18240   0.08526   0.00000  Uiso   1.00
C59    C     0.31979   0.17595   0.08607   0.00000  Uiso   1.00
H60    H     0.28629   0.27495   0.06843   0.00000  Uiso   1.00
H61    H     0.03897   0.28531   0.06296   0.00000  Uiso   1.00
H62    H     0.09202   0.22597   0.07138   0.00000  Uiso   1.00
H63    H     0.05655   0.15698   0.09223   0.00000  Uiso   1.00
H64    H     0.30702   0.14490   0.08820   0.00000  Uiso   1.00
C65    C     0.08134   0.29963   0.23417   0.00000  Uiso   1.00
C66    C     0.07929   0.27297   0.19467   0.00000  Uiso   1.00
C67    C     0.03389   0.26009   0.19347   0.00000  Uiso   1.00
C68    C     0.32402   0.27654   0.22768   0.00000  Uiso   1.00
C69    C     0.32579   0.30369   0.26651   0.00000  Uiso   1.00
C70    C     0.03755   0.31473   0.27023   0.00000  Uiso   1.00
H71    H     0.11255   0.26109   0.16635   0.00000  Uiso   1.00
H72    H     0.03170   0.23612   0.16779   0.00000  Uiso   1.00
H73    H     0.28952   0.26669   0.22483   0.00000  Uiso   1.00
H74    H     0.29262   0.31587   0.29434   0.00000  Uiso   1.00
H75    H     0.03843   0.00229   0.30080   0.00000  Uiso   1.00
Cl76   Cl    0.30459   0.10383   0.17940   0.00000  Uiso   1.00
C77    C     0.49893   0.24604   0.25079   0.00000  Uiso   1.00
C78    C     0.48182   0.15825   0.48694   0.00000  Uiso   1.00
C79    C     0.48481   0.17596   0.43740   0.00000  Uiso   1.00
C80    C     0.51215   0.17343   0.01508   0.00000  Uiso   1.00
C81    C     0.54631   0.20389   0.49153   0.00000  Uiso   1.00
C82    C     0.54698   0.22207   0.44414   0.00000  Uiso   1.00
C83    C     0.51550   0.20931   0.41835   0.00000  Uiso   1.00
C84    C     0.50903   0.16030   0.06620   0.00000  Uiso   1.00
C85    C     0.57952   0.20056   0.06415   0.00000  Uiso   1.00
C86    C     0.45809   0.15931   0.40693   0.00000  Uiso   1.00
C87    C     0.53234   0.31085   0.26775   0.00000  Uiso   1.00
C88    C     0.47349   0.16604   0.35004   0.00000  Uiso   1.00
C89    C     0.53518   0.01997   0.26566   0.00000  Uiso   1.00
C90    C     0.50184   0.04318   0.24811   0.00000  Uiso   1.00
C91    C     0.46582   0.02397   0.23320   0.00000  Uiso   1.00
C92    C     0.46140   0.31503   0.23700   0.00000  Uiso   1.00
C93    C     0.49710   0.29102   0.25146   0.00000  Uiso   1.00
C94    C     0.63120   0.19099   0.28359   0.00000  Uiso   1.00
C95    C     0.34728   0.19083   0.28377   0.00000  Uiso   1.00
C96    C     0.36875   0.14148   0.21759   0.00000  Uiso   1.00
C97    C     0.65267   0.14082   0.21816   0.00000  Uiso   1.00
C98    C     0.50081   0.08756   0.24935   0.00000  Uiso   1.00
C99    C     0.52653   0.16814   0.14959   0.00000  Uiso   1.00
C100   C     0.58023   0.21592   0.01510   0.00000  Uiso   1.00
C101   C     0.54106   0.17457   0.09199   0.00000  Uiso   1.00
C102   C     0.42403   0.12888   0.42821   0.00000  Uiso   1.00
C103   C     0.42016   0.11193   0.47701   0.00000  Uiso   1.00
C104   C     0.45021   0.12501   0.00505   0.00000  Uiso   1.00
Cu105  Cu    0.45311   0.16666   0.25000   0.00000  Uiso   1.00
Cu106  Cu    0.54689   0.16667   0.25000   0.00000  Uiso   1.00
H107   H     0.56222   0.03460   0.27923   0.00000  Uiso   1.00
H108   H     0.43902   0.04214   0.22098   0.00000  Uiso   1.00
H109   H     0.60428   0.21095   0.31016   0.00000  Uiso   1.00
H110   H     0.35722   0.21064   0.31044   0.00000  Uiso   1.00
H111   H     0.39581   0.12111   0.19182   0.00000  Uiso   1.00
H112   H     0.57189   0.24652   0.42697   0.00000  Uiso   1.00
H113   H     0.60874   0.23659   0.49393   0.00000  Uiso   1.00
H114   H     0.48036   0.14030   0.08787   0.00000  Uiso   1.00
H115   H     0.40325   0.11584   0.40531   0.00000  Uiso   1.00
H116   H     0.44803   0.10839   0.04062   0.00000  Uiso   1.00
H117   H     0.39543   0.08704   0.49210   0.00000  Uiso   1.00
H118   H     0.51611   0.22541   0.38267   0.00000  Uiso   1.00
H119   H     0.55618   0.29334   0.28445   0.00000  Uiso   1.00
N120   N     0.38265   0.16666   0.24999   0.00000  Uiso   1.00
N121   N     0.61735   0.16669   0.25000   0.00000  Uiso   1.00
O122   O     0.46042   0.22678   0.25001   0.00000  Uiso   1.00
O123   O     0.53961   0.22679   0.25001   0.00000  Uiso   1.00
O124   O     0.44108   0.16665   0.32549   0.00000  Uiso   1.00
O125   O     0.52027   0.16666   0.32549   0.00000  Uiso   1.00
O126   O     0.46039   0.10654   0.25000   0.00000  Uiso   1.00
O127   O     0.53958   0.10655   0.25000   0.00000  Uiso   1.00
O128   O     0.47973   0.16667   0.17451   0.00000  Uiso   1.00
O129   O     0.55892   0.16668   0.17451   0.00000  Uiso   1.00
C130   C     0.62311   0.20903   0.07991   0.00000  Uiso   1.00
C131   C     0.64187   0.24890   0.07390   0.00000  Uiso   1.00
C132   C     0.35754   0.25483   0.06974   0.00000  Uiso   1.00
C133   C     0.38758   0.22133   0.07389   0.00000  Uiso   1.00
C134   C     0.36777   0.18240   0.08526   0.00000  Uiso   1.00
C135   C     0.65312   0.17595   0.08607   0.00000  Uiso   1.00
H136   H     0.61962   0.27495   0.06843   0.00000  Uiso   1.00
H137   H     0.37231   0.28531   0.06296   0.00000  Uiso   1.00
H138   H     0.42535   0.22597   0.07138   0.00000  Uiso   1.00
H139   H     0.38988   0.15698   0.09223   0.00000  Uiso   1.00
H140   H     0.64036   0.14490   0.08820   0.00000  Uiso   1.00
C141   C     0.41467   0.29963   0.23417   0.00000  Uiso   1.00
C142   C     0.41262   0.27297   0.19467   0.00000  Uiso   1.00
C143   C     0.36723   0.26009   0.19347   0.00000  Uiso   1.00
C144   C     0.65735   0.27654   0.22768   0.00000  Uiso   1.00
C145   C     0.65912   0.30369   0.26651   0.00000  Uiso   1.00
C146   C     0.37088   0.31473   0.27023   0.00000  Uiso   1.00
H147   H     0.44588   0.26109   0.16635   0.00000  Uiso   1.00
H148   H     0.36504   0.23612   0.16779   0.00000  Uiso   1.00
H149   H     0.62285   0.26669   0.22483   0.00000  Uiso   1.00
H150   H     0.62595   0.31587   0.29434   0.00000  Uiso   1.00
H151   H     0.37177   0.00229   0.30080   0.00000  Uiso   1.00
Cl152  Cl    0.63792   0.10383   0.17940   0.00000  Uiso   1.00
C153   C     0.83226   0.24604   0.25079   0.00000  Uiso   1.00
C154   C     0.81515   0.15825   0.48694   0.00000  Uiso   1.00
C155   C     0.81814   0.17596   0.43740   0.00000  Uiso   1.00
C156   C     0.84548   0.17343   0.01508   0.00000  Uiso   1.00
C157   C     0.87964   0.20389   0.49153   0.00000  Uiso   1.00
C158   C     0.88031   0.22207   0.44414   0.00000  Uiso   1.00
C159   C     0.84884   0.20931   0.41835   0.00000  Uiso   1.00
C160   C     0.84236   0.16030   0.06620   0.00000  Uiso   1.00
C161   C     0.91286   0.20056   0.06415   0.00000  Uiso   1.00
C162   C     0.79143   0.15931   0.40693   0.00000  Uiso   1.00
C163   C     0.86567   0.31085   0.26775   0.00000  Uiso   1.00
C164   C     0.80683   0.16604   0.35004   0.00000  Uiso   1.00
C165   C     0.86851   0.01997   0.26566   0.00000  Uiso   1.00
C166   C     0.83517   0.04318   0.24811   0.00000  Uiso   1.00
C167   C     0.79916   0.02397   0.23320   0.00000  Uiso   1.00
C168   C     0.79473   0.31503   0.23700   0.00000  Uiso   1.00
C169   C     0.83043   0.29102   0.25146   0.00000  Uiso   1.00
C170   C     0.96454   0.19099   0.28359   0.00000  Uiso   1.00
C171   C     0.68061   0.19083   0.28377   0.00000  Uiso   1.00
C172   C     0.70209   0.14148   0.21759   0.00000  Uiso   1.00
C173   C     0.98600   0.14082   0.21816   0.00000  Uiso   1.00
C174   C     0.83414   0.08756   0.24935   0.00000  Uiso   1.00
C175   C     0.85986   0.16814   0.14959   0.00000  Uiso   1.00
C176   C     0.91357   0.21592   0.01510   0.00000  Uiso   1.00
C177   C     0.87439   0.17457   0.09199   0.00000  Uiso   1.00
C178   C     0.75737   0.12888   0.42821   0.00000  Uiso   1.00
C179   C     0.75350   0.11193   0.47701   0.00000  Uiso   1.00
C180   C     0.78354   0.12501   0.00505   0.00000  Uiso   1.00
Cu181  Cu    0.78645   0.16666   0.25000   0.00000  Uiso   1.00
Cu182  Cu    0.88022   0.16667   0.25000   0.00000  Uiso   1.00
H183   H     0.89555   0.03460   0.27923   0.00000  Uiso   1.00
H184   H     0.77235   0.04214   0.22098   0.00000  Uiso   1.00
H185   H     0.93761   0.21095   0.31016   0.00000  Uiso   1.00
H186   H     0.69055   0.21064   0.31044   0.00000  Uiso   1.00
H187   H     0.72915   0.12111   0.19182   0.00000  Uiso   1.00
H188   H     0.90522   0.24652   0.42697   0.00000  Uiso   1.00
H189   H     0.94207   0.23659   0.49393   0.00000  Uiso   1.00
H190   H     0.81369   0.14030   0.08787   0.00000  Uiso   1.00
H191   H     0.73659   0.11584   0.40531   0.00000  Uiso   1.00
H192   H     0.78136   0.10839   0.04062   0.00000  Uiso   1.00
H193   H     0.72876   0.08704   0.49210   0.00000  Uiso   1.00
H194   H     0.84945   0.22541   0.38267   0.00000  Uiso   1.00
H195   H     0.88952   0.29334   0.28445   0.00000  Uiso   1.00
N196   N     0.71598   0.16666   0.24999   0.00000  Uiso   1.00
N197   N     0.95069   0.16669   0.25000   0.00000  Uiso   1.00
O198   O     0.79375   0.22678   0.25001   0.00000  Uiso   1.00
O199   O     0.87294   0.22679   0.25001   0.00000  Uiso   1.00
O200   O     0.77441   0.16665   0.32549   0.00000  Uiso   1.00
O201   O     0.85360   0.16666   0.32549   0.00000  Uiso   1.00
O202   O     0.79373   0.10654   0.25000   0.00000  Uiso   1.00
O203   O     0.87292   0.10655   0.25000   0.00000  Uiso   1.00
O204   O     0.81306   0.16667   0.17451   0.00000  Uiso   1.00
O205   O     0.89225   0.16668   0.17451   0.00000  Uiso   1.00
C206   C     0.95644   0.20903   0.07991   0.00000  Uiso   1.00
C207   C     0.97520   0.24890   0.07390   0.00000  Uiso   1.00
C208   C     0.69087   0.25483   0.06974   0.00000  Uiso   1.00
C209   C     0.72092   0.22133   0.07389   0.00000  Uiso   1.00
C210   C     0.70110   0.18240   0.08526   0.00000  Uiso   1.00
C211   C     0.98646   0.17595   0.08607   0.00000  Uiso   1.00
H212   H     0.95295   0.27495   0.06843   0.00000  Uiso   1.00
H213   H     0.70564   0.28531   0.06296   0.00000  Uiso   1.00
H214   H     0.75869   0.22597   0.07138   0.00000  Uiso   1.00
H215   H     0.72322   0.15698   0.09223   0.00000  Uiso   1.00
H216   H     0.97369   0.14490   0.08820   0.00000  Uiso   1.00
C217   C     0.74801   0.29963   0.23417   0.00000  Uiso   1.00
C218   C     0.74596   0.27297   0.19467   0.00000  Uiso   1.00
C219   C     0.70056   0.26009   0.19347   0.00000  Uiso   1.00
C220   C     0.99068   0.27654   0.22768   0.00000  Uiso   1.00
C221   C     0.99245   0.30369   0.26651   0.00000  Uiso   1.00
C222   C     0.70422   0.31473   0.27023   0.00000  Uiso   1.00
H223   H     0.77921   0.26109   0.16635   0.00000  Uiso   1.00
H224   H     0.69837   0.23612   0.16779   0.00000  Uiso   1.00
H225   H     0.95618   0.26669   0.22483   0.00000  Uiso   1.00
H226   H     0.95928   0.31587   0.29434   0.00000  Uiso   1.00
H227   H     0.70510   0.00229   0.30080   0.00000  Uiso   1.00
Cl228  Cl    0.97126   0.10383   0.17940   0.00000  Uiso   1.00
C229   C     0.16559   0.57937   0.25079   0.00000  Uiso   1.00
C230   C     0.14849   0.49158   0.48694   0.00000  Uiso   1.00
C231   C     0.15148   0.50930   0.43740   0.00000  Uiso   1.00
C232   C     0.17881   0.50676   0.01508   0.00000  Uiso   1.00
C233   C     0.21298   0.53723   0.49153   0.00000  Uiso   1.00
C234   C     0.21365   0.55541   0.44414   0.00000  Uiso   1.00
C235   C     0.18217   0.54264   0.41835   0.00000  Uiso   1.00
C236   C     0.17570   0.49363   0.06620   0.00000  Uiso   1.00
C237   C     0.24619   0.53389   0.06415   0.00000  Uiso   1.00
C238   C     0.12476   0.49264   0.40693   0.00000  Uiso   1.00
C239   C     0.19900   0.64419   0.26775   0.00000  Uiso   1.00
C240   C     0.14016   0.49937   0.35004   0.00000  Uiso   1.00
C241   C     0.20184   0.35330   0.26566   0.00000  Uiso   1.00
C242   C     0.16850   0.37651   0.24811   0.00000  Uiso   1.00
C243   C     0.13249   0.35730   0.23320   0.00000  Uiso   1.00
C244   C     0.12807   0.64837   0.23700   0.00000  Uiso   1.00
C245   C     0.16377   0.62435   0.25146   0.00000  Uiso   1.00
C246   C     0.29787   0.52433   0.28359   0.00000  Uiso   1.00
C247   C     0.01395   0.52416   0.28377   0.00000  Uiso   1.00
C248   C     0.03542   0.47481   0.21759   0.00000  Uiso   1.00
C249   C     0.31933   0.47416   0.21816   0.00000  Uiso   1.00
C250   C     0.16748   0.42089   0.24935   0.00000  Uiso   1.00
C251   C     0.19319   0.50147   0.14959   0.00000  Uiso   1.00
C252   C     0.24690   0.54925   0.01510   0.00000  Uiso   1.00
C253   C     0.20773   0.50790   0.09199   0.00000  Uiso   1.00
C254   C     0.09070   0.46221   0.42821   0.00000  Uiso   1.00
C255   C     0.08683   0.44527   0.47701   0.00000  Uiso   1.00
C256   C     0.11687   0.45834   0.00505   0.00000  Uiso   1.00
Cu257  Cu    0.11978   0.49999   0.25000   0.00000  Uiso   1.00
Cu258  Cu    0.21355   0.50001   0.25000   0.00000  Uiso   1.00
H259   H     0.22889   0.36793   0.27923   0.00000  Uiso   1.00
H260   H     0.10568   0.37548   0.22098   0.00000  Uiso   1.00
H261   H     0.27094   0.54428   0.31016   0.00000  Uiso   1.00
H262   H     0.02388   0.54398   0.31044   0.00000  Uiso   1.00
H263   H     0.06248   0.45444   0.19182   0.00000  Uiso   1.00
H264   H     0.23856   0.57985   0.42697   0.00000  Uiso   1.00
H265   H     0.27541   0.56993   0.49393   0.00000  Uiso   1.00
H266   H     0.14702   0.47363   0.08787   0.00000  Uiso   1.00
H267   H     0.06992   0.44917   0.40531   0.00000  Uiso   1.00
H268   H     0.11470   0.44173   0.04062   0.00000  Uiso   1.00
H269   H     0.06210   0.42037   0.49210   0.00000  Uiso   1.00
H270   H     0.18278   0.55874   0.38267   0.00000  Uiso   1.00
H271   H     0.22285   0.62667   0.28445   0.00000  Uiso   1.00
N272   N     0.04931   0.49999   0.24999   0.00000  Uiso   1.00
N273   N     0.28402   0.50002   0.25000   0.00000  Uiso   1.00
O274   O     0.12708   0.56011   0.25001   0.00000  Uiso   1.00
O275   O     0.20627   0.56012   0.25001   0.00000  Uiso   1.00
O276   O     0.10775   0.49998   0.32549   0.00000  Uiso   1.00
O277   O     0.18694   0.49999   0.32549   0.00000  Uiso   1.00
O278   O     0.12706   0.43988   0.25000   0.00000  Uiso   1.00
O279   O     0.20625   0.43989   0.25000   0.00000  Uiso   1.00
O280   O     0.14640   0.50001   0.17451   0.00000  Uiso   1.00
O281   O     0.22559   0.50002   0.17451   0.00000  Uiso   1.00
C282   C     0.28977   0.54236   0.07991   0.00000  Uiso   1.00
C283   C     0.30854   0.58224   0.07390   0.00000  Uiso   1.00
C284   C     0.02421   0.58816   0.06974   0.00000  Uiso   1.00
C285   C     0.05425   0.55466   0.07389   0.00000  Uiso   1.00
C286   C     0.03444   0.51573   0.08526   0.00000  Uiso   1.00
C287   C     0.31979   0.50928   0.08607   0.00000  Uiso   1.00
H288   H     0.28629   0.60828   0.06843   0.00000  Uiso   1.00
H289   H     0.03897   0.61864   0.06296   0.00000  Uiso   1.00
H290   H     0.09202   0.55931   0.07138   0.00000  Uiso   1.00
H291   H     0.05655   0.49032   0.09223   0.00000  Uiso   1.00
H292   H     0.30702   0.47824   0.08820   0.00000  Uiso   1.00
C293   C     0.08134   0.63296   0.23417   0.00000  Uiso   1.00
C294   C     0.07929   0.60631   0.19467   0.00000  Uiso   1.00
C295   C     0.03389   0.59343   0.19347   0.00000  Uiso   1.00
C296   C     0.32402   0.60987   0.22768   0.00000  Uiso   1.00
C297   C     0.32579   0.63702   0.26651   0.00000  Uiso   1.00
C298   C     0.03755   0.64806   0.27023   0.00000  Uiso   1.00
H299   H     0.11255   0.59442   0.16635   0.00000  Uiso   1.00
H300   H     0.03170   0.56945   0.16779   0.00000  Uiso   1.00
H301   H     0.28952   0.60003   0.22483   0.00000  Uiso   1.00
H302   H     0.29262   0.64920   0.29434   0.00000  Uiso   1.00
H303   H     0.03843   0.33563   0.30080   0.00000  Uiso   1.00
Cl304  Cl    0.30459   0.43716   0.17940   0.00000  Uiso   1.00
C305   C     0.49893   0.57937   0.25079   0.00000  Uiso   1.00
C306   C     0.48182   0.49158   0.48694   0.00000  Uiso   1.00
C307   C     0.48481   0.50930   0.43740   0.00000  Uiso   1.00
C308   C     0.51215   0.50676   0.01508   0.00000  Uiso   1.00
C309   C     0.54631   0.53723   0.49153   0.00000  Uiso   1.00
C310   C     0.54698   0.55541   0.44414   0.00000  Uiso   1.00
C311   C     0.51550   0.54264   0.41835   0.00000  Uiso   1.00
C312   C     0.50903   0.49363   0.06620   0.00000  Uiso   1.00
C313   C     0.57952   0.53389   0.06415   0.00000  Uiso   1.00
C314   C     0.45809   0.49264   0.40693   0.00000  Uiso   1.00
C315   C     0.53234   0.64419   0.26775   0.00000  Uiso   1.00
C316   C     0.47349   0.49937   0.35004   0.00000  Uiso   1.00
C317   C     0.53518   0.35330   0.26566   0.00000  Uiso   1.00
C318   C     0.50184   0.37651   0.24811   0.00000  Uiso   1.00
C319   C     0.46582   0.35730   0.23320   0.00000  Uiso   1.00
C320   C     0.46140   0.64837   0.23700   0.00000  Uiso   1.00
C321   C     0.49710   0.62435   0.25146   0.00000  Uiso   1.00
C322   C     0.63120   0.52433   0.28359   0.00000  Uiso   1.00
C323   C     0.34728   0.52416   0.28377   0.00000  Uiso   1.00
C324   C     0.36875   0.47481   0.21759   0.00000  Uiso   1.00
C325   C     0.65267   0.47416   0.21816   0.00000  Uiso   1.00
C326   C     0.50081   0.42089   0.24935   0.00000  Uiso   1.00
C327   C     0.52653   0.50147   0.14959   0.00000  Uiso   1.00
C328   C     0.58023   0.54925   0.01510   0.00000  Uiso   1.00
C329   C     0.54106   0.50790   0.09199   0.00000  Uiso   1.00
C330   C     0.42403   0.46221   0.42821   0.00000  Uiso   1.00
C331   C     0.42016   0.44527   0.47701   0.00000  Uiso   1.00
C332   C     0.45021   0.45834   0.00505   0.00000  Uiso   1.00
Cu333  Cu    0.45311   0.49999   0.25000   0.00000  Uiso   1.00
Cu334  Cu    0.54689   0.50001   0.25000   0.00000  Uiso   1.00
H335   H     0.56222   0.36793   0.27923   0.00000  Uiso   1.00
H336   H     0.43902   0.37548   0.22098   0.00000  Uiso   1.00
H337   H     0.60428   0.54428   0.31016   0.00000  Uiso   1.00
H338   H     0.35722   0.54398   0.31044   0.00000  Uiso   1.00
H339   H     0.39581   0.45444   0.19182   0.00000  Uiso   1.00
H340   H     0.57189   0.57985   0.42697   0.00000  Uiso   1.00
H341   H     0.60874   0.56993   0.49393   0.00000  Uiso   1.00
H342   H     0.48036   0.47363   0.08787   0.00000  Uiso   1.00
H343   H     0.40325   0.44917   0.40531   0.00000  Uiso   1.00
H344   H     0.44803   0.44173   0.04062   0.00000  Uiso   1.00
H345   H     0.39543   0.42037   0.49210   0.00000  Uiso   1.00
H346   H     0.51611   0.55874   0.38267   0.00000  Uiso   1.00
H347   H     0.55618   0.62667   0.28445   0.00000  Uiso   1.00
N348   N     0.38265   0.49999   0.24999   0.00000  Uiso   1.00
N349   N     0.61735   0.50002   0.25000   0.00000  Uiso   1.00
O350   O     0.46042   0.56011   0.25001   0.00000  Uiso   1.00
O351   O     0.53961   0.56012   0.25001   0.00000  Uiso   1.00
O352   O     0.44108   0.49998   0.32549   0.00000  Uiso   1.00
O353   O     0.52027   0.49999   0.32549   0.00000  Uiso   1.00
O354   O     0.46039   0.43988   0.25000   0.00000  Uiso   1.00
O355   O     0.53958   0.43989   0.25000   0.00000  Uiso   1.00
O356   O     0.47973   0.50001   0.17451   0.00000  Uiso   1.00
O357   O     0.55892   0.50002   0.17451   0.00000  Uiso   1.00
C358   C     0.62311   0.54236   0.07991   0.00000  Uiso   1.00
C359   C     0.64187   0.58224   0.07390   0.00000  Uiso   1.00
C360   C     0.35754   0.58816   0.06974   0.00000  Uiso   1.00
C361   C     0.38758   0.55466   0.07389   0.00000  Uiso   1.00
C362   C     0.36777   0.51573   0.08526   0.00000  Uiso   1.00
C363   C     0.65312   0.50928   0.08607   0.00000  Uiso   1.00
H364   H     0.61962   0.60828   0.06843   0.00000  Uiso   1.00
H365   H     0.37231   0.61864   0.06296   0.00000  Uiso   1.00
H366   H     0.42535   0.55931   0.07138   0.00000  Uiso   1.00
H367   H     0.38988   0.49032   0.09223   0.00000  Uiso   1.00
H368   H     0.64036   0.47824   0.08820   0.00000  Uiso   1.00
C369   C     0.41467   0.63296   0.23417   0.00000  Uiso   1.00
C370   C     0.41262   0.60631   0.19467   0.00000  Uiso   1.00
C371   C     0.36723   0.59343   0.19347   0.00000  Uiso   1.00
C372   C     0.65735   0.60987   0.22768   0.00000  Uiso   1.00
C373   C     0.65912   0.63702   0.26651   0.00000  Uiso   1.00
C374   C     0.37088   0.64806   0.27023   0.00000  Uiso   1.00
H375   H     0.44588   0.59442   0.16635   0.00000  Uiso   1.00
H376   H     0.36504   0.56945   0.16779   0.00000  Uiso   1.00
H377   H     0.62285   0.60003   0.22483   0.00000  Uiso   1.00
H378   H     0.62595   0.64920   0.29434   0.00000  Uiso   1.00
H379   H     0.37177   0.33563   0.30080   0.00000  Uiso   1.00
Cl380  Cl    0.63792   0.43716   0.17940   0.00000  Uiso   1.00
C381   C     0.83226   0.57937   0.25079   0.00000  Uiso   1.00
C382   C     0.81515   0.49158   0.48694   0.00000  Uiso   1.00
C383   C     0.81814   0.50930   0.43740   0.00000  Uiso   1.00
C384   C     0.84548   0.50676   0.01508   0.00000  Uiso   1.00
C385   C     0.87964   0.53723   0.49153   0.00000  Uiso   1.00
C386   C     0.88031   0.55541   0.44414   0.00000  Uiso   1.00
C387   C     0.84884   0.54264   0.41835   0.00000  Uiso   1.00
C388   C     0.84236   0.49363   0.06620   0.00000  Uiso   1.00
C389   C     0.91286   0.53389   0.06415   0.00000  Uiso   1.00
C390   C     0.79143   0.49264   0.40693   0.00000  Uiso   1.00
C391   C     0.86567   0.64419   0.26775   0.00000  Uiso   1.00
C392   C     0.80683   0.49937   0.35004   0.00000  Uiso   1.00
C393   C     0.86851   0.35330   0.26566   0.00000  Uiso   1.00
C394   C     0.83517   0.37651   0.24811   0.00000  Uiso   1.00
C395   C     0.79916   0.35730   0.23320   0.00000  Uiso   1.00
C396   C     0.79473   0.64837   0.23700   0.00000  Uiso   1.00
C397   C     0.83043   0.62435   0.25146   0.00000  Uiso   1.00
C398   C     0.96454   0.52433   0.28359   0.00000  Uiso   1.00
C399   C     0.68061   0.52416   0.28377   0.00000  Uiso   1.00
C400   C     0.70209   0.47481   0.21759   0.00000  Uiso   1.00
C401   C     0.98600   0.47416   0.21816   0.00000  Uiso   1.00
C402   C     0.83414   0.42089   0.24935   0.00000  Uiso   1.00
C403   C     0.85986   0.50147   0.14959   0.00000  Uiso   1.00
C404   C     0.91357   0.54925   0.01510   0.00000  Uiso   1.00
C405   C     0.87439   0.50790   0.09199   0.00000  Uiso   1.00
C406   C     0.75737   0.46221   0.42821   0.00000  Uiso   1.00
C407   C     0.75350   0.44527   0.47701   0.00000  Uiso   1.00
C408   C     0.78354   0.45834   0.00505   0.00000  Uiso   1.00
Cu409  Cu    0.78645   0.49999   0.25000   0.00000  Uiso   1.00
Cu410  Cu    0.88022   0.50001   0.25000   0.00000  Uiso   1.00
H411   H     0.89555   0.36793   0.27923   0.00000  Uiso   1.00
H412   H     0.77235   0.37548   0.22098   0.00000  Uiso   1.00
H413   H     0.93761   0.54428   0.31016   0.00000  Uiso   1.00
H414   H     0.69055   0.54398   0.31044   0.00000  Uiso   1.00
H415   H     0.72915   0.45444   0.19182   0.00000  Uiso   1.00
H416   H     0.90522   0.57985   0.42697   0.00000  Uiso   1.00
H417   H     0.94207   0.56993   0.49393   0.00000  Uiso   1.00
H418   H     0.81369   0.47363   0.08787   0.00000  Uiso   1.00
H419   H     0.73659   0.44917   0.40531   0.00000  Uiso   1.00
H420   H     0.78136   0.44173   0.04062   0.00000  Uiso   1.00
H421   H     0.72876   0.42037   0.49210   0.00000  Uiso   1.00
H422   H     0.84945   0.55874   0.38267   0.00000  Uiso   1.00
H423   H     0.88952   0.62667   0.28445   0.00000  Uiso   1.00
N424   N     0.71598   0.49999   0.24999   0.00000  Uiso   1.00
N425   N     0.95069   0.50002   0.25000   0.00000  Uiso   1.00
O426   O     0.79375   0.56011   0.25001   0.00000  Uiso   1.00
O427   O     0.87294   0.56012   0.25001   0.00000  Uiso   1.00
O428   O     0.77441   0.49998   0.32549   0.00000  Uiso   1.00
O429   O     0.85360   0.49999   0.32549   0.00000  Uiso   1.00
O430   O     0.79373   0.43988   0.25000   0.00000  Uiso   1.00
O431   O     0.87292   0.43989   0.25000   0.00000  Uiso   1.00
O432   O     0.81306   0.50001   0.17451   0.00000  Uiso   1.00
O433   O     0.89225   0.50002   0.17451   0.00000  Uiso   1.00
C434   C     0.95644   0.54236   0.07991   0.00000  Uiso   1.00
C435   C     0.97520   0.58224   0.07390   0.00000  Uiso   1.00
C436   C     0.69087   0.58816   0.06974   0.00000  Uiso   1.00
C437   C     0.72092   0.55466   0.07389   0.00000  Uiso   1.00
C438   C     0.70110   0.51573   0.08526   0.00000  Uiso   1.00
C439   C     0.98646   0.50928   0.08607   0.00000  Uiso   1.00
H440   H     0.95295   0.60828   0.06843   0.00000  Uiso   1.00
H441   H     0.70564   0.61864   0.06296   0.00000  Uiso   1.00
H442   H     0.75869   0.55931   0.07138   0.00000  Uiso   1.00
H443   H     0.72322   0.49032   0.09223   0.00000  Uiso   1.00
H444   H     0.97369   0.47824   0.08820   0.00000  Uiso   1.00
C445   C     0.74801   0.63296   0.23417   0.00000  Uiso   1.00
C446   C     0.74596   0.60631   0.19467   0.00000  Uiso   1.00
C447   C     0.70056   0.59343   0.19347   0.00000  Uiso   1.00
C448   C     0.99068   0.60987   0.22768   0.00000  Uiso   1.00
C449   C     0.99245   0.63702   0.26651   0.00000  Uiso   1.00
C450   C     0.70422   0.64806   0.27023   0.00000  Uiso   1.00
H451   H     0.77921   0.59442   0.16635   0.00000  Uiso   1.00
H452   H     0.69837   0.56945   0.16779   0.00000  Uiso   1.00
H453   H     0.95618   0.60003   0.22483   0.00000  Uiso   1.00
H454   H     0.95928   0.64920   0.29434   0.00000  Uiso   1.00
H455   H     0.70510   0.33563   0.30080   0.00000  Uiso   1.00
Cl456  Cl    0.97126   0.43716   0.17940   0.00000  Uiso   1.00
C457   C     0.16559   0.91271   0.25079   0.00000  Uiso   1.00
C458   C     0.14849   0.82491   0.48694   0.00000  Uiso   1.00
C459   C     0.15148   0.84263   0.43740   0.00000  Uiso   1.00
C460   C     0.17881   0.84010   0.01508   0.00000  Uiso   1.00
C461   C     0.21298   0.87056   0.49153   0.00000  Uiso   1.00
C462   C     0.21365   0.88874   0.44414   0.00000  Uiso   1.00
C463   C     0.18217   0.87597   0.41835   0.00000  Uiso   1.00
C464   C     0.17570   0.82697   0.06620   0.00000  Uiso   1.00
C465   C     0.24619   0.86723   0.06415   0.00000  Uiso   1.00
C466   C     0.12476   0.82598   0.40693   0.00000  Uiso   1.00
C467   C     0.19900   0.97752   0.26775   0.00000  Uiso   1.00
C468   C     0.14016   0.83270   0.35004   0.00000  Uiso   1.00
C469   C     0.20184   0.68663   0.26566   0.00000  Uiso   1.00
C470   C     0.16850   0.70984   0.24811   0.00000  Uiso   1.00
C471   C     0.13249   0.69063   0.23320   0.00000  Uiso   1.00
C472   C     0.12807   0.98170   0.23700   0.00000  Uiso   1.00
C473   C     0.16377   0.95769   0.25146   0.00000  Uiso   1.00
C474   C     0.29787   0.85766   0.28359   0.00000  Uiso   1.00
C475   C     0.01395   0.85749   0.28377   0.00000  Uiso   1.00
C476   C     0.03542   0.80815   0.21759   0.00000  Uiso   1.00
C477   C     0.31933   0.80749   0.21816   0.00000  Uiso   1.00
C478   C     0.16748   0.75422   0.24935   0.00000  Uiso   1.00
C479   C     0.19319   0.83480   0.14959   0.00000  Uiso   1.00
C480   C     0.24690   0.88259   0.01510   0.00000  Uiso   1.00
C481   C     0.20773   0.84123   0.09199   0.00000  Uiso   1.00
C482   C     0.09070   0.79555   0.42821   0.00000  Uiso   1.00
C483   C     0.08683   0.77860   0.47701   0.00000  Uiso   1.00
C484   C     0.11687   0.79168   0.00505   0.00000  Uiso   1.00
Cu485  Cu    0.11978   0.83333   0.25000   0.00000  Uiso   1.00
Cu486  Cu    0.21355   0.83334   0.25000   0.00000  Uiso   1.00
H487   H     0.22889   0.70126   0.27923   0.00000  Uiso   1.00
H488   H     0.10568   0.70881   0.22098   0.00000  Uiso   1.00
H489   H     0.27094   0.87762   0.31016   0.00000  Uiso   1.00
H490   H     0.02388   0.87731   0.31044   0.00000  Uiso   1.00
H491   H     0.06248   0.78777   0.19182   0.00000  Uiso   1.00
H492   H     0.23856   0.91318   0.42697   0.00000  Uiso   1.00
H493   H     0.27541   0.90326   0.49393   0.00000  Uiso   1.00
H494   H     0.14702   0.80697   0.08787   0.00000  Uiso   1.00
H495   H     0.06992   0.78250   0.40531   0.00000  Uiso   1.00
H496   H     0.11470   0.77506   0.04062   0.00000  Uiso   1.00
H497   H     0.06210   0.75370   0.49210   0.00000  Uiso   1.00
H498   H     0.18278   0.89207   0.38267   0.00000  Uiso   1.00
H499   H     0.22285   0.96001   0.28445   0.00000  Uiso   1.00
N500   N     0.04931   0.83332   0.24999   0.00000  Uiso   1.00
N501   N     0.28402   0.83335   0.25000   0.00000  Uiso   1.00
O502   O     0.12708   0.89345   0.25001   0.00000  Uiso   1.00
O503   O     0.20627   0.89346   0.25001   0.00000  Uiso   1.00
O504   O     0.10775   0.83332   0.32549   0.00000  Uiso   1.00
O505   O     0.18694   0.83333   0.32549   0.00000  Uiso   1.00
O506   O     0.12706   0.77321   0.25000   0.00000  Uiso   1.00
O507   O     0.20625   0.77322   0.25000   0.00000  Uiso   1.00
O508   O     0.14640   0.83334   0.17451   0.00000  Uiso   1.00
O509   O     0.22559   0.83335   0.17451   0.00000  Uiso   1.00
C510   C     0.28977   0.87570   0.07991   0.00000  Uiso   1.00
C511   C     0.30854   0.91557   0.07390   0.00000  Uiso   1.00
C512   C     0.02421   0.92149   0.06974   0.00000  Uiso   1.00
C513   C     0.05425   0.88799   0.07389   0.00000  Uiso   1.00
C514   C     0.03444   0.84906   0.08526   0.00000  Uiso   1.00
C515   C     0.31979   0.84262   0.08607   0.00000  Uiso   1.00
H516   H     0.28629   0.94162   0.06843   0.00000  Uiso   1.00
H517   H     0.03897   0.95197   0.06296   0.00000  Uiso   1.00
H518   H     0.09202   0.89264   0.07138   0.00000  Uiso   1.00
H519   H     0.05655   0.82365   0.09223   0.00000  Uiso   1.00
H520   H     0.30702   0.81157   0.08820   0.00000  Uiso   1.00
C521   C     0.08134   0.96629   0.23417   0.00000  Uiso   1.00
C522   C     0.07929   0.93964   0.19467   0.00000  Uiso   1.00
C523   C     0.03389   0.92676   0.19347   0.00000  Uiso   1.00
C524   C     0.32402   0.94320   0.22768   0.00000  Uiso   1.00
C525   C     0.32579   0.97035   0.26651   0.00000  Uiso   1.00
C526   C     0.03755   0.98140   0.27023   0.00000  Uiso   1.00
H527   H     0.11255   0.92775   0.16635   0.00000  Uiso   1.00
H528   H     0.03170   0.90279   0.16779   0.00000  Uiso   1.00
H529   H     0.28952   0.93336   0.22483   0.00000  Uiso   1.00
H530   H     0.29262   0.98253   0.29434   0.00000  Uiso   1.00
H531   H     0.03843   0.66896   0.30080   0.00000  Uiso   1.00
Cl532  Cl    0.30459   0.77049   0.17940   0.00000  Uiso   1.00
C533   C     0.49893   0.91271   0.25079   0.00000  Uiso   1.00
C534   C     0.48182   0.82491   0.48694   0.00000  Uiso   1.00
C535   C     0.48481   0.84263   0.43740   0.00000  Uiso   1.00
C536   C     0.51215   0.84010   0.01508   0.00000  Uiso   1.00
C537   C     0.54631   0.87056   0.49153   0.00000  Uiso   1.00
C538   C     0.54698   0.88874   0.44414   0.00000  Uiso   1.00
C539   C     0.51550   0.87597   0.41835   0.00000  Uiso   1.00
C540   C     0.50903   0.82697   0.06620   0.00000  Uiso   1.00
C541   C     0.57952   0.86723   0.06415   0.00000  Uiso   1.00
C542   C     0.45809   0.82598   0.40693   0.00000  Uiso   1.00
C543   C     0.53234   0.97752   0.26775   0.00000  Uiso   1.00
C544   C     0.47349   0.83270   0.35004   0.00000  Uiso   1.00
C545   C     0.53518   0.68663   0.26566   0.00000  Uiso   1.00
C546   C     0.50184   0.70984   0.24811   0.00000  Uiso   1.00
C547   C     0.46582   0.69063   0.23320   0.00000  Uiso   1.00
C548   C     0.46140   0.98170   0.23700   0.00000  Uiso   1.00
C549   C     0.49710   0.95769   0.25146   0.00000  Uiso   1.00
C550   C     0.63120   0.85766   0.28359   0.00000  Uiso   1.00
C551   C     0.34728   0.85749   0.28377   0.00000  Uiso   1.00
C552   C     0.36875   0.80815   0.21759   0.00000  Uiso   1.00
C553   C     0.65267   0.80749   0.21816   0.00000  Uiso   1.00
C554   C     0.50081   0.75422   0.24935   0.00000  Uiso   1.00
C555   C     0.52653   0.83480   0.14959   0.00000  Uiso   1.00
C556   C     0.58023   0.88259   0.01510   0.00000  Uiso   1.00
C557   C     0.54106   0.84123   0.09199   0.00000  Uiso   1.00
C558   C     0.42403   0.79555   0.42821   0.00000  Uiso   1.00
C559   C     0.42016   0.77860   0.47701   0.00000  Uiso   1.00
C560   C     0.45021   0.79168   0.00505   0.00000  Uiso   1.00
Cu561  Cu    0.45311   0.83333   0.25000   0.00000  Uiso   1.00
Cu562  Cu    0.54689   0.83334   0.25000   0.00000  Uiso   1.00
H563   H     0.56222   0.70126   0.27923   0.00000  Uiso   1.00
H564   H     0.43902   0.70881   0.22098   0.00000  Uiso   1.00
H565   H     0.60428   0.87762   0.31016   0.00000  Uiso   1.00
H566   H     0.35722   0.87731   0.31044   0.00000  Uiso   1.00
H567   H     0.39581   0.78777   0.19182   0.00000  Uiso   1.00
H568   H     0.57189   0.91318   0.42697   0.00000  Uiso   1.00
H569   H     0.60874   0.90326   0.49393   0.00000  Uiso   1.00
H570   H     0.48036   0.80697   0.08787   0.00000  Uiso   1.00
H571   H     0.40325   0.78250   0.40531   0.00000  Uiso   1.00
H572   H     0.44803   0.77506   0.04062   0.00000  Uiso   1.00
H573   H     0.39543   0.75370   0.49210   0.00000  Uiso   1.00
H574   H     0.51611   0.89207   0.38267   0.00000  Uiso   1.00
H575   H     0.55618   0.96001   0.28445   0.00000  Uiso   1.00
N576   N     0.38265   0.83332   0.24999   0.00000  Uiso   1.00
N577   N     0.61735   0.83335   0.25000   0.00000  Uiso   1.00
O578   O     0.46042   0.89345   0.25001   0.00000  Uiso   1.00
O579   O     0.53961   0.89346   0.25001   0.00000  Uiso   1.00
O580   O     0.44108   0.83332   0.32549   0.00000  Uiso   1.00
O581   O     0.52027   0.83333   0.32549   0.00000  Uiso   1.00
O582   O     0.46039   0.77321   0.25000   0.00000  Uiso   1.00
O583   O     0.53958   0.77322   0.25000   0.00000  Uiso   1.00
O584   O     0.47973   0.83334   0.17451   0.00000  Uiso   1.00
O585   O     0.55892   0.83335   0.17451   0.00000  Uiso   1.00
C586   C     0.62311   0.87570   0.07991   0.00000  Uiso   1.00
C587   C     0.64187   0.91557   0.07390   0.00000  Uiso   1.00
C588   C     0.35754   0.92149   0.06974   0.00000  Uiso   1.00
C589   C     0.38758   0.88799   0.07389   0.00000  Uiso   1.00
C590   C     0.36777   0.84906   0.08526   0.00000  Uiso   1.00
C591   C     0.65312   0.84262   0.08607   0.00000  Uiso   1.00
H592   H     0.61962   0.94162   0.06843   0.00000  Uiso   1.00
H593   H     0.37231   0.95197   0.06296   0.00000  Uiso   1.00
H594   H     0.42535   0.89264   0.07138   0.00000  Uiso   1.00
H595   H     0.38988   0.82365   0.09223   0.00000  Uiso   1.00
H596   H     0.64036   0.81157   0.08820   0.00000  Uiso   1.00
C597   C     0.41467   0.96629   0.23417   0.00000  Uiso   1.00
C598   C     0.41262   0.93964   0.19467   0.00000  Uiso   1.00
C599   C     0.36723   0.92676   0.19347   0.00000  Uiso   1.00
C600   C     0.65735   0.94320   0.22768   0.00000  Uiso   1.00
C601   C     0.65912   0.97035   0.26651   0.00000  Uiso   1.00
C602   C     0.37088   0.98140   0.27023   0.00000  Uiso   1.00
H603   H     0.44588   0.92775   0.16635   0.00000  Uiso   1.00
H604   H     0.36504   0.90279   0.16779   0.00000  Uiso   1.00
H605   H     0.62285   0.93336   0.22483   0.00000  Uiso   1.00
H606   H     0.62595   0.98253   0.29434   0.00000  Uiso   1.00
H607   H     0.37177   0.66896   0.30080   0.00000  Uiso   1.00
Cl608  Cl    0.63792   0.77049   0.17940   0.00000  Uiso   1.00
C609   C     0.83226   0.91271   0.25079   0.00000  Uiso   1.00
C610   C     0.81515   0.82491   0.48694   0.00000  Uiso   1.00
C611   C     0.81814   0.84263   0.43740   0.00000  Uiso   1.00
C612   C     0.84548   0.84010   0.01508   0.00000  Uiso   1.00
C613   C     0.87964   0.87056   0.49153   0.00000  Uiso   1.00
C614   C     0.88031   0.88874   0.44414   0.00000  Uiso   1.00
C615   C     0.84884   0.87597   0.41835   0.00000  Uiso   1.00
C616   C     0.84236   0.82697   0.06620   0.00000  Uiso   1.00
C617   C     0.91286   0.86723   0.06415   0.00000  Uiso   1.00
C618   C     0.79143   0.82598   0.40693   0.00000  Uiso   1.00
C619   C     0.86567   0.97752   0.26775   0.00000  Uiso   1.00
C620   C     0.80683   0.83270   0.35004   0.00000  Uiso   1.00
C621   C     0.86851   0.68663   0.26566   0.00000  Uiso   1.00
C622   C     0.83517   0.70984   0.24811   0.00000  Uiso   1.00
C623   C     0.79916   0.69063   0.23320   0.00000  Uiso   1.00
C624   C     0.79473   0.98170   0.23700   0.00000  Uiso   1.00
C625   C     0.83043   0.95769   0.25146   0.00000  Uiso   1.00
C626   C     0.96454   0.85766   0.28359   0.00000  Uiso   1.00
C627   C     0.68061   0.85749   0.28377   0.00000  Uiso   1.00
C628   C     0.70209   0.80815   0.21759   0.00000  Uiso   1.00
C629   C     0.98600   0.80749   0.21816   0.00000  Uiso   1.00
C630   C     0.83414   0.75422   0.24935   0.00000  Uiso   1.00
C631   C     0.85986   0.83480   0.14959   0.00000  Uiso   1.00
C632   C     0.91357   0.88259   0.01510   0.00000  Uiso   1.00
C633   C     0.87439   0.84123   0.09199   0.00000  Uiso   1.00
C634   C     0.75737   0.79555   0.42821   0.00000  Uiso   1.00
C635   C     0.75350   0.77860   0.47701   0.00000  Uiso   1.00
C636   C     0.78354   0.79168   0.00505   0.00000  Uiso   1.00
Cu637  Cu    0.78645   0.83333   0.25000   0.00000  Uiso   1.00
Cu638  Cu    0.88022   0.83334   0.25000   0.00000  Uiso   1.00
H639   H     0.89555   0.70126   0.27923   0.00000  Uiso   1.00
H640   H     0.77235   0.70881   0.22098   0.00000  Uiso   1.00
H641   H     0.93761   0.87762   0.31016   0.00000  Uiso   1.00
H642   H     0.69055   0.87731   0.31044   0.00000  Uiso   1.00
H643   H     0.72915   0.78777   0.19182   0.00000  Uiso   1.00
H644   H     0.90522   0.91318   0.42697   0.00000  Uiso   1.00
H645   H     0.94207   0.90326   0.49393   0.00000  Uiso   1.00
H646   H     0.81369   0.80697   0.08787   0.00000  Uiso   1.00
H647   H     0.73659   0.78250   0.40531   0.00000  Uiso   1.00
H648   H     0.78136   0.77506   0.04062   0.00000  Uiso   1.00
H649   H     0.72876   0.75370   0.49210   0.00000  Uiso   1.00
H650   H     0.84945   0.89207   0.38267   0.00000  Uiso   1.00
H651   H     0.88952   0.96001   0.28445   0.00000  Uiso   1.00
N652   N     0.71598   0.83332   0.24999   0.00000  Uiso   1.00
N653   N     0.95069   0.83335   0.25000   0.00000  Uiso   1.00
O654   O     0.79375   0.89345   0.25001   0.00000  Uiso   1.00
O655   O     0.87294   0.89346   0.25001   0.00000  Uiso   1.00
O656   O     0.77441   0.83332   0.32549   0.00000  Uiso   1.00
O657   O     0.85360   0.83333   0.32549   0.00000  Uiso   1.00
O658   O     0.79373   0.77321   0.25000   0.00000  Uiso   1.00
O659   O     0.87292   0.77322   0.25000   0.00000  Uiso   1.00
O660   O     0.81306   0.83334   0.17451   0.00000  Uiso   1.00
O661   O     0.89225   0.83335   0.17451   0.00000  Uiso   1.00
C662   C     0.95644   0.87570   0.07991   0.00000  Uiso   1.00
C663   C     0.97520   0.91557   0.07390   0.00000  Uiso   1.00
C664   C     0.69087   0.92149   0.06974   0.00000  Uiso   1.00
C665   C     0.72092   0.88799   0.07389   0.00000  Uiso   1.00
C666   C     0.70110   0.84906   0.08526   0.00000  Uiso   1.00
C667   C     0.98646   0.84262   0.08607   0.00000  Uiso   1.00
H668   H     0.95295   0.94162   0.06843   0.00000  Uiso   1.00
H669   H     0.70564   0.95197   0.06296   0.00000  Uiso   1.00
H670   H     0.75869   0.89264   0.07138   0.00000  Uiso   1.00
H671   H     0.72322   0.82365   0.09223   0.00000  Uiso   1.00
H672   H     0.97369   0.81157   0.08820   0.00000  Uiso   1.00
C673   C     0.74801   0.96629   0.23417   0.00000  Uiso   1.00
C674   C     0.74596   0.93964   0.19467   0.00000  Uiso   1.00
C675   C     0.70056   0.92676   0.19347   0.00000  Uiso   1.00
C676   C     0.99068   0.94320   0.22768   0.00000  Uiso   1.00
C677   C     0.99245   0.97035   0.26651   0.00000  Uiso   1.00
C678   C     0.70422   0.98140   0.27023   0.00000  Uiso   1.00
H679   H     0.77921   0.92775   0.16635   0.00000  Uiso   1.00
H680   H     0.69837   0.90279   0.16779   0.00000  Uiso   1.00
H681   H     0.95618   0.93336   0.22483   0.00000  Uiso   1.00
H682   H     0.95928   0.98253   0.29434   0.00000  Uiso   1.00
H683   H     0.70510   0.66896   0.30080   0.00000  Uiso   1.00
Cl684  Cl    0.97126   0.77049   0.17940   0.00000  Uiso   1.00
C685   C     0.16559   0.24604   0.75079   0.00000  Uiso   1.00
C686   C     0.14849   0.15825   0.98694   0.00000  Uiso   1.00
C687   C     0.15148   0.17596   0.93740   0.00000  Uiso   1.00
C688   C     0.17881   0.17343   0.51508   0.00000  Uiso   1.00
C689   C     0.21298   0.20389   0.99153   0.00000  Uiso   1.00
C690   C     0.21365   0.22207   0.94414   0.00000  Uiso   1.00
C691   C     0.18217   0.20931   0.91835   0.00000  Uiso   1.00
C692   C     0.17570   0.16030   0.56620   0.00000  Uiso   1.00
C693   C     0.24619   0.20056   0.56415   0.00000  Uiso   1.00
C694   C     0.12476   0.15931   0.90693   0.00000  Uiso   1.00
C695   C     0.19900   0.31085   0.76775   0.00000  Uiso   1.00
C696   C     0.14016   0.16604   0.85004   0.00000  Uiso   1.00
C697   C     0.20184   0.01997   0.76566   0.00000  Uiso   1.00
C698   C     0.16850   0.04318   0.74811   0.00000  Uiso   1.00
C699   C     0.13249   0.02397   0.73320   0.00000  Uiso   1.00
C700   C     0.12807   0.31503   0.73700   0.00000  Uiso   1.00
C701   C     0.16377   0.29102   0.75146   0.00000  Uiso   1.00
C702   C     0.29787   0.19099   0.78359   0.00000  Uiso   1.00
C703   C     0.01395   0.19083   0.78377   0.00000  Uiso   1.00
C704   C     0.03542   0.14148   0.71759   0.00000  Uiso   1.00
C705   C     0.31933   0.14082   0.71816   0.00000  Uiso   1.00
C706   C     0.16748   0.08756   0.74935   0.00000  Uiso   1.00
C707   C     0.19319   0.16814   0.64959   0.00000  Uiso   1.00
C708   C     0.24690   0.21592   0.51510   0.00000  Uiso   1.00
C709   C     0.20773   0.17457   0.59199   0.00000  Uiso   1.00
C710   C     0.09070   0.12888   0.92821   0.00000  Uiso   1.00
C711   C     0.08683   0.11193   0.97701   0.00000  Uiso   1.00
C712   C     0.11687   0.12501   0.50505   0.00000  Uiso   1.00
Cu713  Cu    0.11978   0.16666   0.75000   0.00000  Uiso   1.00
Cu714  Cu    0.21355   0.16667   0.75000   0.00000  Uiso   1.00
H715   H     0.22889   0.03460   0.77923   0.00000  Uiso   1.00
H716   H     0.10568   0.04214   0.72098   0.00000  Uiso   1.00
H717   H     0.27094   0.21095   0.81016   0.00000  Uiso   1.00
H718   H     0.02388   0.21064   0.81044   0.00000  Uiso   1.00
H719   H     0.06248   0.12111   0.69182   0.00000  Uiso   1.00
H720   H     0.23856   0.24652   0.92697   0.00000  Uiso   1.00
H721   H     0.27541   0.23659   0.99393   0.00000  Uiso   1.00
H722   H     0.14702   0.14030   0.58787   0.00000  Uiso   1.00
H723   H     0.06992   0.11584   0.90531   0.00000  Uiso   1.00
H724   H     0.11470   0.10839   0.54062   0.00000  Uiso   1.00
H725   H     0.06210   0.08704   0.99210   0.00000  Uiso   1.00
H726   H     0.18278   0.22541   0.88267   0.00000  Uiso   1.00
H727   H     0.22285   0.29334   0.78445   0.00000  Uiso   1.00
N728   N     0.04931   0.16666   0.74999   0.00000  Uiso   1.00
N729   N     0.28402   0.16669   0.75000   0.00000  Uiso   1.00
O730   O     0.12708   0.22678   0.75001   0.00000  Uiso   1.00
O731   O     0.20627   0.22679   0.75001   0.00000  Uiso   1.00
O732   O     0.10775   0.16665   0.82549   0.00000  Uiso   1.00
O733   O     0.18694   0.16666   0.82549   0.00000  Uiso   1.00
O734   O     0.12706   0.10654   0.75000   0.00000  Uiso   1.00
O735   O     0.20625   0.10655   0.75000   0.00000  Uiso   1.00
O736   O     0.14640   0.16667   0.67451   0.00000  Uiso   1.00
O737   O     0.22559   0.16668   0.67451   0.00000  Uiso   1.00
C738   C     0.28977   0.20903   0.57991   0.00000  Uiso   1.00
C739   C     0.30854   0.24890   0.57390   0.00000  Uiso   1.00
C740   C     0.02421   0.25483   0.56974   0.00000  Uiso   1.00
C741   C     0.05425   0.22133   0.57389   0.00000  Uiso   1.00
C742   C     0.03444   0.18240   0.58526   0.00000  Uiso   1.00
C743   C     0.31979   0.17595   0.58607   0.00000  Uiso   1.00
H744   H     0.28629   0.27495   0.56843   0.00000  Uiso   1.00
H745   H     0.03897   0.28531   0.56296   0.00000  Uiso   1.00
H746   H     0.09202   0.22597   0.57138   0.00000  Uiso   1.00
H747   H     0.05655   0.15698   0.59223   0.00000  Uiso   1.00
H748   H     0.30702   0.14490   0.58820   0.00000  Uiso   1.00
C749   C     0.08134   0.29963   0.73417   0.00000  Uiso   1.00
C750   C     0.07929   0.27297   0.69467   0.00000  Uiso   1.00
C751   C     0.03389   0.26009   0.69347   0.00000  Uiso   1.00
C752   C     0.32402   0.27654   0.72768   0.00000  Uiso   1.00
C753   C     0.32579   0.30369   0.76651   0.00000  Uiso   1.00
C754   C     0.03755   0.31473   0.77023   0.00000  Uiso   1.00
H755   H     0.11255   0.26109   0.66635   0.00000  Uiso   1.00
H756   H     0.03170   0.23612   0.66779   0.00000  Uiso   1.00
H757   H     0.28952   0.26669   0.72483   0.00000  Uiso   1.00
H758   H     0.29262   0.31587   0.79434   0.00000  Uiso   1.00
H759   H     0.03843   0.00229   0.80080   0.00000  Uiso   1.00
Cl760  Cl    0.30459   0.10383   0.67940   0.00000  Uiso   1.00
C761   C     0.49893   0.24604   0.75079   0.00000  Uiso   1.00
C762   C     0.48182   0.15825   0.98694   0.00000  Uiso   1.00
C763   C     0.48481   0.17596   0.93740   0.00000  Uiso   1.00
C764   C     0.51215   0.17343   0.51508   0.00000  Uiso   1.00
C765   C     0.54631   0.20389   0.99153   0.00000  Uiso   1.00
C766   C     0.54698   0.22207   0.94414   0.00000  Uiso   1.00
C767   C     0.51550   0.20931   0.91835   0.00000  Uiso   1.00
C768   C     0.50903   0.16030   0.56620   0.00000  Uiso   1.00
C769   C     0.57952   0.20056   0.56415   0.00000  Uiso   1.00
C770   C     0.45809   0.15931   0.90693   0.00000  Uiso   1.00
C771   C     0.53234   0.31085   0.76775   0.00000  Uiso   1.00
C772   C     0.47349   0.16604   0.85004   0.00000  Uiso   1.00
C773   C     0.53518   0.01997   0.76566   0.00000  Uiso   1.00
C774   C     0.50184   0.04318   0.74811   0.00000  Uiso   1.00
C775   C     0.46582   0.02397   0.73320   0.00000  Uiso   1.00
C776   C     0.46140   0.31503   0.73700   0.00000  Uiso   1.00
C777   C     0.49710   0.29102   0.75146   0.00000  Uiso   1.00
C778   C     0.63120   0.19099   0.78359   0.00000  Uiso   1.00
C779   C     0.34728   0.19083   0.78377   0.00000  Uiso   1.00
C780   C     0.36875   0.14148   0.71759   0.00000  Uiso   1.00
C781   C     0.65267   0.14082   0.71816   0.00000  Uiso   1.00
C782   C     0.50081   0.08756   0.74935   0.00000  Uiso   1.00
C783   C     0.52653   0.16814   0.64959   0.00000  Uiso   1.00
C784   C     0.58023   0.21592   0.51510   0.00000  Uiso   1.00
C785   C     0.54106   0.17457   0.59199   0.00000  Uiso   1.00
C786   C     0.42403   0.12888   0.92821   0.00000  Uiso   1.00
C787   C     0.42016   0.11193   0.97701   0.00000  Uiso   1.00
C788   C     0.45021   0.12501   0.50505   0.00000  Uiso   1.00
Cu789  Cu    0.45311   0.16666   0.75000   0.00000  Uiso   1.00
Cu790  Cu    0.54689   0.16667   0.75000   0.00000  Uiso   1.00
H791   H     0.56222   0.03460   0.77923   0.00000  Uiso   1.00
H792   H     0.43902   0.04214   0.72098   0.00000  Uiso   1.00
H793   H     0.60428   0.21095   0.81016   0.00000  Uiso   1.00
H794   H     0.35722   0.21064   0.81044   0.00000  Uiso   1.00
H795   H     0.39581   0.12111   0.69182   0.00000  Uiso   1.00
H796   H     0.57189   0.24652   0.92697   0.00000  Uiso   1.00
H797   H     0.60874   0.23659   0.99393   0.00000  Uiso   1.00
H798   H     0.48036   0.14030   0.58787   0.00000  Uiso   1.00
H799   H     0.40325   0.11584   0.90531   0.00000  Uiso   1.00
H800   H     0.44803   0.10839   0.54062   0.00000  Uiso   1.00
H801   H     0.39543   0.08704   0.99210   0.00000  Uiso   1.00
H802   H     0.51611   0.22541   0.88267   0.00000  Uiso   1.00
H803   H     0.55618   0.29334   0.78445   0.00000  Uiso   1.00
N804   N     0.38265   0.16666   0.74999   0.00000  Uiso   1.00
N805   N     0.61735   0.16669   0.75000   0.00000  Uiso   1.00
O806   O     0.46042   0.22678   0.75001   0.00000  Uiso   1.00
O807   O     0.53961   0.22679   0.75001   0.00000  Uiso   1.00
O808   O     0.44108   0.16665   0.82549   0.00000  Uiso   1.00
O809   O     0.52027   0.16666   0.82549   0.00000  Uiso   1.00
O810   O     0.46039   0.10654   0.75000   0.00000  Uiso   1.00
O811   O     0.53958   0.10655   0.75000   0.00000  Uiso   1.00
O812   O     0.47973   0.16667   0.67451   0.00000  Uiso   1.00
O813   O     0.55892   0.16668   0.67451   0.00000  Uiso   1.00
C814   C     0.62311   0.20903   0.57991   0.00000  Uiso   1.00
C815   C     0.64187   0.24890   0.57390   0.00000  Uiso   1.00
C816   C     0.35754   0.25483   0.56974   0.00000  Uiso   1.00
C817   C     0.38758   0.22133   0.57389   0.00000  Uiso   1.00
C818   C     0.36777   0.18240   0.58526   0.00000  Uiso   1.00
C819   C     0.65312   0.17595   0.58607   0.00000  Uiso   1.00
H820   H     0.61962   0.27495   0.56843   0.00000  Uiso   1.00
H821   H     0.37231   0.28531   0.56296   0.00000  Uiso   1.00
H822   H     0.42535   0.22597   0.57138   0.00000  Uiso   1.00
H823   H     0.38988   0.15698   0.59223   0.00000  Uiso   1.00
H824   H     0.64036   0.14490   0.58820   0.00000  Uiso   1.00
C825   C     0.41467   0.29963   0.73417   0.00000  Uiso   1.00
C826   C     0.41262   0.27297   0.69467   0.00000  Uiso   1.00
C827   C     0.36723   0.26009   0.69347   0.00000  Uiso   1.00
C828   C     0.65735   0.27654   0.72768   0.00000  Uiso   1.00
C829   C     0.65912   0.30369   0.76651   0.00000  Uiso   1.00
C830   C     0.37088   0.31473   0.77023   0.00000  Uiso   1.00
H831   H     0.44588   0.26109   0.66635   0.00000  Uiso   1.00
H832   H     0.36504   0.23612   0.66779   0.00000  Uiso   1.00
H833   H     0.62285   0.26669   0.72483   0.00000  Uiso   1.00
H834   H     0.62595   0.31587   0.79434   0.00000  Uiso   1.00
H835   H     0.37177   0.00229   0.80080   0.00000  Uiso   1.00
Cl836  Cl    0.63792   0.10383   0.67940   0.00000  Uiso   1.00
C837   C     0.83226   0.24604   0.75079   0.00000  Uiso   1.00
C838   C     0.81515   0.15825   0.98694   0.00000  Uiso   1.00
C839   C     0.81814   0.17596   0.93740   0.00000  Uiso   1.00
C840   C     0.84548   0.17343   0.51508   0.00000  Uiso   1.00
C841   C     0.87964   0.20389   0.99153   0.00000  Uiso   1.00
C842   C     0.88031   0.22207   0.94414   0.00000  Uiso   1.00
C843   C     0.84884   0.20931   0.91835   0.00000  Uiso   1.00
C844   C     0.84236   0.16030   0.56620   0.00000  Uiso   1.00
C845   C     0.91286   0.20056   0.56415   0.00000  Uiso   1.00
C846   C     0.79143   0.15931   0.90693   0.00000  Uiso   1.00
C847   C     0.86567   0.31085   0.76775   0.00000  Uiso   1.00
C848   C     0.80683   0.16604   0.85004   0.00000  Uiso   1.00
C849   C     0.86851   0.01997   0.76566   0.00000  Uiso   1.00
C850   C     0.83517   0.04318   0.74811   0.00000  Uiso   1.00
C851   C     0.79916   0.02397   0.73320   0.00000  Uiso   1.00
C852   C     0.79473   0.31503   0.73700   0.00000  Uiso   1.00
C853   C     0.83043   0.29102   0.75146   0.00000  Uiso   1.00
C854   C     0.96454   0.19099   0.78359   0.00000  Uiso   1.00
C855   C     0.68061   0.19083   0.78377   0.00000  Uiso   1.00
C856   C     0.70209   0.14148   0.71759   0.00000  Uiso   1.00
C857   C     0.98600   0.14082   0.71816   0.00000  Uiso   1.00
C858   C     0.83414   0.08756   0.74935   0.00000  Uiso   1.00
C859   C     0.85986   0.16814   0.64959   0.00000  Uiso   1.00
C860   C     0.91357   0.21592   0.51510   0.00000  Uiso   1.00
C861   C     0.87439   0.17457   0.59199   0.00000  Uiso   1.00
C862   C     0.75737   0.12888   0.92821   0.00000  Uiso   1.00
C863   C     0.75350   0.11193   0.97701   0.00000  Uiso   1.00
C864   C     0.78354   0.12501   0.50505   0.00000  Uiso   1.00
Cu865  Cu    0.78645   0.16666   0.75000   0.00000  Uiso   1.00
Cu866  Cu    0.88022   0.16667   0.75000   0.00000  Uiso   1.00
H867   H     0.89555   0.03460   0.77923   0.00000  Uiso   1.00
H868   H     0.77235   0.04214   0.72098   0.00000  Uiso   1.00
H869   H     0.93761   0.21095   0.81016   0.00000  Uiso   1.00
H870   H     0.69055   0.21064   0.81044   0.00000  Uiso   1.00
H871   H     0.72915   0.12111   0.69182   0.00000  Uiso   1.00
H872   H     0.90522   0.24652   0.92697   0.00000  Uiso   1.00
H873   H     0.94207   0.23659   0.99393   0.00000  Uiso   1.00
H874   H     0.81369   0.14030   0.58787   0.00000  Uiso   1.00
H875   H     0.73659   0.11584   0.90531   0.00000  Uiso   1.00
H876   H     0.78136   0.10839   0.54062   0.00000  Uiso   1.00
H877   H     0.72876   0.08704   0.99210   0.00000  Uiso   1.00
H878   H     0.84945   0.22541   0.88267   0.00000  Uiso   1.00
H879   H     0.88952   0.29334   0.78445   0.00000  Uiso   1.00
N880   N     0.71598   0.16666   0.74999   0.00000  Uiso   1.00
N881   N     0.95069   0.16669   0.75000   0.00000  Uiso   1.00
O882   O     0.79375   0.22678   0.75001   0.00000  Uiso   1.00
O883   O     0.87294   0.22679   0.75001   0.00000  Uiso   1.00
O884   O     0.77441   0.16665   0.82549   0.00000  Uiso   1.00
O885   O     0.85360   0.16666   0.82549   0.00000  Uiso   1.00
O886   O     0.79373   0.10654   0.75000   0.00000  Uiso   1.00
O887   O     0.87292   0.10655   0.75000   0.00000  Uiso   1.00
O888   O     0.81306   0.16667   0.67451   0.00000  Uiso   1.00
O889   O     0.89225   0.16668   0.67451   0.00000  Uiso   1.00
C890   C     0.95644   0.20903   0.57991   0.00000  Uiso   1.00
C891   C     0.97520   0.24890   0.57390   0.00000  Uiso   1.00
C892   C     0.69087   0.25483   0.56974   0.00000  Uiso   1.00
C893   C     0.72092   0.22133   0.57389   0.00000  Uiso   1.00
C894   C     0.70110   0.18240   0.58526   0.00000  Uiso   1.00
C895   C     0.98646   0.17595   0.58607   0.00000  Uiso   1.00
H896   H     0.95295   0.27495   0.56843   0.00000  Uiso   1.00
H897   H     0.70564   0.28531   0.56296   0.00000  Uiso   1.00
H898   H     0.75869   0.22597   0.57138   0.00000  Uiso   1.00
H899   H     0.72322   0.15698   0.59223   0.00000  Uiso   1.00
H900   H     0.97369   0.14490   0.58820   0.00000  Uiso   1.00
C901   C     0.74801   0.29963   0.73417   0.00000  Uiso   1.00
C902   C     0.74596   0.27297   0.69467   0.00000  Uiso   1.00
C903   C     0.70056   0.26009   0.69347   0.00000  Uiso   1.00
C904   C     0.99068   0.27654   0.72768   0.00000  Uiso   1.00
C905   C     0.99245   0.30369   0.76651   0.00000  Uiso   1.00
C906   C     0.70422   0.31473   0.77023   0.00000  Uiso   1.00
H907   H     0.77921   0.26109   0.66635   0.00000  Uiso   1.00
H908   H     0.69837   0.23612   0.66779   0.00000  Uiso   1.00
H909   H     0.95618   0.26669   0.72483   0.00000  Uiso   1.00
H910   H     0.95928   0.31587   0.79434   0.00000  Uiso   1.00
H911   H     0.70510   0.00229   0.80080   0.00000  Uiso   1.00
Cl912  Cl    0.97126   0.10383   0.67940   0.00000  Uiso   1.00
C913   C     0.16559   0.57937   0.75079   0.00000  Uiso   1.00
C914   C     0.14849   0.49158   0.98694   0.00000  Uiso   1.00
C915   C     0.15148   0.50930   0.93740   0.00000  Uiso   1.00
C916   C     0.17881   0.50676   0.51508   0.00000  Uiso   1.00
C917   C     0.21298   0.53723   0.99153   0.00000  Uiso   1.00
C918   C     0.21365   0.55541   0.94414   0.00000  Uiso   1.00
C919   C     0.18217   0.54264   0.91835   0.00000  Uiso   1.00
C920   C     0.17570   0.49363   0.56620   0.00000  Uiso   1.00
C921   C     0.24619   0.53389   0.56415   0.00000  Uiso   1.00
C922   C     0.12476   0.49264   0.90693   0.00000  Uiso   1.00
C923   C     0.19900   0.64419   0.76775   0.00000  Uiso   1.00
C924   C     0.14016   0.49937   0.85004   0.00000  Uiso   1.00
C925   C     0.20184   0.35330   0.76566   0.00000  Uiso   1.00
C926   C     0.16850   0.37651   0.74811   0.00000  Uiso   1.00
C927   C     0.13249   0.35730   0.73320   0.00000  Uiso   1.00
C928   C     0.12807   0.64837   0.73700   0.00000  Uiso   1.00
C929   C     0.16377   0.62435   0.75146   0.00000  Uiso   1.00
C930   C     0.29787   0.52433   0.78359   0.00000  Uiso   1.00
C931   C     0.01395   0.52416   0.78377   0.00000  Uiso   1.00
C932   C     0.03542   0.47481   0.71759   0.00000  Uiso   1.00
C933   C     0.31933   0.47416   0.71816   0.00000  Uiso   1.00
C934   C     0.16748   0.42089   0.74935   0.00000  Uiso   1.00
C935   C     0.19319   0.50147   0.64959   0.00000  Uiso   1.00
C936   C     0.24690   0.54925   0.51510   0.00000  Uiso   1.00
C937   C     0.20773   0.50790   0.59199   0.00000  Uiso   1.00
C938   C     0.09070   0.46221   0.92821   0.00000  Uiso   1.00
C939   C     0.08683   0.44527   0.97701   0.00000  Uiso   1.00
C940   C     0.11687   0.45834   0.50505   0.00000  Uiso   1.00
Cu941  Cu    0.11978   0.49999   0.75000   0.00000  Uiso   1.00
Cu942  Cu    0.21355   0.50001   0.75000   0.00000  Uiso   1.00
H943   H     0.22889   0.36793   0.77923   0.00000  Uiso   1.00
H944   H     0.10568   0.37548   0.72098   0.00000  Uiso   1.00
H945   H     0.27094   0.54428   0.81016   0.00000  Uiso   1.00
H946   H     0.02388   0.54398   0.81044   0.00000  Uiso   1.00
H947   H     0.06248   0.45444   0.69182   0.00000  Uiso   1.00
H948   H     0.23856   0.57985   0.92697   0.00000  Uiso   1.00
H949   H     0.27541   0.56993   0.99393   0.00000  Uiso   1.00
H950   H     0.14702   0.47363   0.58787   0.00000  Uiso   1.00
H951   H     0.06992   0.44917   0.90531   0.00000  Uiso   1.00
H952   H     0.11470   0.44173   0.54062   0.00000  Uiso   1.00
H953   H     0.06210   0.42037   0.99210   0.00000  Uiso   1.00
H954   H     0.18278   0.55874   0.88267   0.00000  Uiso   1.00
H955   H     0.22285   0.62667   0.78445   0.00000  Uiso   1.00
N956   N     0.04931   0.49999   0.74999   0.00000  Uiso   1.00
N957   N     0.28402   0.50002   0.75000   0.00000  Uiso   1.00
O958   O     0.12708   0.56011   0.75001   0.00000  Uiso   1.00
O959   O     0.20627   0.56012   0.75001   0.00000  Uiso   1.00
O960   O     0.10775   0.49998   0.82549   0.00000  Uiso   1.00
O961   O     0.18694   0.49999   0.82549   0.00000  Uiso   1.00
O962   O     0.12706   0.43988   0.75000   0.00000  Uiso   1.00
O963   O     0.20625   0.43989   0.75000   0.00000  Uiso   1.00
O964   O     0.14640   0.50001   0.67451   0.00000  Uiso   1.00
O965   O     0.22559   0.50002   0.67451   0.00000  Uiso   1.00
C966   C     0.28977   0.54236   0.57991   0.00000  Uiso   1.00
C967   C     0.30854   0.58224   0.57390   0.00000  Uiso   1.00
C968   C     0.02421   0.58816   0.56974   0.00000  Uiso   1.00
C969   C     0.05425   0.55466   0.57389   0.00000  Uiso   1.00
C970   C     0.03444   0.51573   0.58526   0.00000  Uiso   1.00
C971   C     0.31979   0.50928   0.58607   0.00000  Uiso   1.00
H972   H     0.28629   0.60828   0.56843   0.00000  Uiso   1.00
H973   H     0.03897   0.61864   0.56296   0.00000  Uiso   1.00
H974   H     0.09202   0.55931   0.57138   0.00000  Uiso   1.00
H975   H     0.05655   0.49032   0.59223   0.00000  Uiso   1.00
H976   H     0.30702   0.47824   0.58820   0.00000  Uiso   1.00
C977   C     0.08134   0.63296   0.73417   0.00000  Uiso   1.00
C978   C     0.07929   0.60631   0.69467   0.00000  Uiso   1.00
C979   C     0.03389   0.59343   0.69347   0.00000  Uiso   1.00
C980   C     0.32402   0.60987   0.72768   0.00000  Uiso   1.00
C981   C     0.32579   0.63702   0.76651   0.00000  Uiso   1.00
C982   C     0.03755   0.64806   0.77023   0.00000  Uiso   1.00
H983   H     0.11255   0.59442   0.66635   0.00000  Uiso   1.00
H984   H     0.03170   0.56945   0.66779   0.00000  Uiso   1.00
H985   H     0.28952   0.60003   0.72483   0.00000  Uiso   1.00
H986   H     0.29262   0.64920   0.79434   0.00000  Uiso   1.00
H987   H     0.03843   0.33563   0.80080   0.00000  Uiso   1.00
Cl988  Cl    0.30459   0.43716   0.67940   0.00000  Uiso   1.00
C989   C     0.49893   0.57937   0.75079   0.00000  Uiso   1.00
C990   C     0.48182   0.49158   0.98694   0.00000  Uiso   1.00
C991   C     0.48481   0.50930   0.93740   0.00000  Uiso   1.00
C992   C     0.51215   0.50676   0.51508   0.00000  Uiso   1.00
C993   C     0.54631   0.53723   0.99153   0.00000  Uiso   1.00
C994   C     0.54698   0.55541   0.94414   0.00000  Uiso   1.00
C995   C     0.51550   0.54264   0.91835   0.00000  Uiso   1.00
C996   C     0.50903   0.49363   0.56620   0.00000  Uiso   1.00
C997   C     0.57952   0.53389   0.56415   0.00000  Uiso   1.00
C998   C     0.45809   0.49264   0.90693   0.00000  Uiso   1.00
C999   C     0.53234   0.64419   0.76775   0.00000  Uiso   1.00
C1000  C     0.47349   0.49937   0.85004   0.00000  Uiso   1.00
C1001  C     0.53518   0.35330   0.76566   0.00000  Uiso   1.00
C1002  C     0.50184   0.37651   0.74811   0.00000  Uiso   1.00
C1003  C     0.46582   0.35730   0.73320   0.00000  Uiso   1.00
C1004  C     0.46140   0.64837   0.73700   0.00000  Uiso   1.00
C1005  C     0.49710   0.62435   0.75146   0.00000  Uiso   1.00
C1006  C     0.63120   0.52433   0.78359   0.00000  Uiso   1.00
C1007  C     0.34728   0.52416   0.78377   0.00000  Uiso   1.00
C1008  C     0.36875   0.47481   0.71759   0.00000  Uiso   1.00
C1009  C     0.65267   0.47416   0.71816   0.00000  Uiso   1.00
C1010  C     0.50081   0.42089   0.74935   0.00000  Uiso   1.00
C1011  C     0.52653   0.50147   0.64959   0.00000  Uiso   1.00
C1012  C     0.58023   0.54925   0.51510   0.00000  Uiso   1.00
C1013  C     0.54106   0.50790   0.59199   0.00000  Uiso   1.00
C1014  C     0.42403   0.46221   0.92821   0.00000  Uiso   1.00
C1015  C     0.42016   0.44527   0.97701   0.00000  Uiso   1.00
C1016  C     0.45021   0.45834   0.50505   0.00000  Uiso   1.00
Cu1017 Cu    0.45311   0.49999   0.75000   0.00000  Uiso   1.00
Cu1018 Cu    0.54689   0.50001   0.75000   0.00000  Uiso   1.00
H1019  H     0.56222   0.36793   0.77923   0.00000  Uiso   1.00
H1020  H     0.43902   0.37548   0.72098   0.00000  Uiso   1.00
H1021  H     0.60428   0.54428   0.81016   0.00000  Uiso   1.00
H1022  H     0.35722   0.54398   0.81044   0.00000  Uiso   1.00
H1023  H     0.39581   0.45444   0.69182   0.00000  Uiso   1.00
H1024  H     0.57189   0.57985   0.92697   0.00000  Uiso   1.00
H1025  H     0.60874   0.56993   0.99393   0.00000  Uiso   1.00
H1026  H     0.48036   0.47363   0.58787   0.00000  Uiso   1.00
H1027  H     0.40325   0.44917   0.90531   0.00000  Uiso   1.00
H1028  H     0.44803   0.44173   0.54062   0.00000  Uiso   1.00
H1029  H     0.39543   0.42037   0.99210   0.00000  Uiso   1.00
H1030  H     0.51611   0.55874   0.88267   0.00000  Uiso   1.00
H1031  H     0.55618   0.62667   0.78445   0.00000  Uiso   1.00
N1032  N     0.38265   0.49999   0.74999   0.00000  Uiso   1.00
N1033  N     0.61735   0.50002   0.75000   0.00000  Uiso   1.00
O1034  O     0.46042   0.56011   0.75001   0.00000  Uiso   1.00
O1035  O     0.53961   0.56012   0.75001   0.00000  Uiso   1.00
O1036  O     0.44108   0.49998   0.82549   0.00000  Uiso   1.00
O1037  O     0.52027   0.49999   0.82549   0.00000  Uiso   1.00
O1038  O     0.46039   0.43988   0.75000   0.00000  Uiso   1.00
O1039  O     0.53958   0.43989   0.75000   0.00000  Uiso   1.00
O1040  O     0.47973   0.50001   0.67451   0.00000  Uiso   1.00
O1041  O     0.55892   0.50002   0.67451   0.00000  Uiso   1.00
C1042  C     0.62311   0.54236   0.57991   0.00000  Uiso   1.00
C1043  C     0.64187   0.58224   0.57390   0.00000  Uiso   1.00
C1044  C     0.35754   0.58816   0.56974   0.00000  Uiso   1.00
C1045  C     0.38758   0.55466   0.57389   0.00000  Uiso   1.00
C1046  C     0.36777   0.51573   0.58526   0.00000  Uiso   1.00
C1047  C     0.65312   0.50928   0.58607   0.00000  Uiso   1.00
H1048  H     0.61962   0.60828   0.56843   0.00000  Uiso   1.00
H1049  H     0.37231   0.61864   0.56296   0.00000  Uiso   1.00
H1050  H     0.42535   0.55931   0.57138   0.00000  Uiso   1.00
H1051  H     0.38988   0.49032   0.59223   0.00000  Uiso   1.00
H1052  H     0.64036   0.47824   0.58820   0.00000  Uiso   1.00
C1053  C     0.41467   0.63296   0.73417   0.00000  Uiso   1.00
C1054  C     0.41262   0.60631   0.69467   0.00000  Uiso   1.00
C1055  C     0.36723   0.59343   0.69347   0.00000  Uiso   1.00
C1056  C     0.65735   0.60987   0.72768   0.00000  Uiso   1.00
C1057  C     0.65912   0.63702   0.76651   0.00000  Uiso   1.00
C1058  C     0.37088   0.64806   0.77023   0.00000  Uiso   1.00
H1059  H     0.44588   0.59442   0.66635   0.00000  Uiso   1.00
H1060  H     0.36504   0.56945   0.66779   0.00000  Uiso   1.00
H1061  H     0.62285   0.60003   0.72483   0.00000  Uiso   1.00
H1062  H     0.62595   0.64920   0.79434   0.00000  Uiso   1.00
H1063  H     0.37177   0.33563   0.80080   0.00000  Uiso   1.00
Cl1064 Cl    0.63792   0.43716   0.67940   0.00000  Uiso   1.00
C1065  C     0.83226   0.57937   0.75079   0.00000  Uiso   1.00
C1066  C     0.81515   0.49158   0.98694   0.00000  Uiso   1.00
C1067  C     0.81814   0.50930   0.93740   0.00000  Uiso   1.00
C1068  C     0.84548   0.50676   0.51508   0.00000  Uiso   1.00
C1069  C     0.87964   0.53723   0.99153   0.00000  Uiso   1.00
C1070  C     0.88031   0.55541   0.94414   0.00000  Uiso   1.00
C1071  C     0.84884   0.54264   0.91835   0.00000  Uiso   1.00
C1072  C     0.84236   0.49363   0.56620   0.00000  Uiso   1.00
C1073  C     0.91286   0.53389   0.56415   0.00000  Uiso   1.00
C1074  C     0.79143   0.49264   0.90693   0.00000  Uiso   1.00
C1075  C     0.86567   0.64419   0.76775   0.00000  Uiso   1.00
C1076  C     0.80683   0.49937   0.85004   0.00000  Uiso   1.00
C1077  C     0.86851   0.35330   0.76566   0.00000  Uiso   1.00
C1078  C     0.83517   0.37651   0.74811   0.00000  Uiso   1.00
C1079  C     0.79916   0.35730   0.73320   0.00000  Uiso   1.00
C1080  C     0.79473   0.64837   0.73700   0.00000  Uiso   1.00
C1081  C     0.83043   0.62435   0.75146   0.00000  Uiso   1.00
C1082  C     0.96454   0.52433   0.78359   0.00000  Uiso   1.00
C1083  C     0.68061   0.52416   0.78377   0.00000  Uiso   1.00
C1084  C     0.70209   0.47481   0.71759   0.00000  Uiso   1.00
C1085  C     0.98600   0.47416   0.71816   0.00000  Uiso   1.00
C1086  C     0.83414   0.42089   0.74935   0.00000  Uiso   1.00
C1087  C     0.85986   0.50147   0.64959   0.00000  Uiso   1.00
C1088  C     0.91357   0.54925   0.51510   0.00000  Uiso   1.00
C1089  C     0.87439   0.50790   0.59199   0.00000  Uiso   1.00
C1090  C     0.75737   0.46221   0.92821   0.00000  Uiso   1.00
C1091  C     0.75350   0.44527   0.97701   0.00000  Uiso   1.00
C1092  C     0.78354   0.45834   0.50505   0.00000  Uiso   1.00
Cu1093 Cu    0.78645   0.49999   0.75000   0.00000  Uiso   1.00
Cu1094 Cu    0.88022   0.50001   0.75000   0.00000  Uiso   1.00
H1095  H     0.89555   0.36793   0.77923   0.00000  Uiso   1.00
H1096  H     0.77235   0.37548   0.72098   0.00000  Uiso   1.00
H1097  H     0.93761   0.54428   0.81016   0.00000  Uiso   1.00
H1098  H     0.69055   0.54398   0.81044   0.00000  Uiso   1.00
H1099  H     0.72915   0.45444   0.69182   0.00000  Uiso   1.00
H1100  H     0.90522   0.57985   0.92697   0.00000  Uiso   1.00
H1101  H     0.94207   0.56993   0.99393   0.00000  Uiso   1.00
H1102  H     0.81369   0.47363   0.58787   0.00000  Uiso   1.00
H1103  H     0.73659   0.44917   0.90531   0.00000  Uiso   1.00
H1104  H     0.78136   0.44173   0.54062   0.00000  Uiso   1.00
H1105  H     0.72876   0.42037   0.99210   0.00000  Uiso   1.00
H1106  H     0.84945   0.55874   0.88267   0.00000  Uiso   1.00
H1107  H     0.88952   0.62667   0.78445   0.00000  Uiso   1.00
N1108  N     0.71598   0.49999   0.74999   0.00000  Uiso   1.00
N1109  N     0.95069   0.50002   0.75000   0.00000  Uiso   1.00
O1110  O     0.79375   0.56011   0.75001   0.00000  Uiso   1.00
O1111  O     0.87294   0.56012   0.75001   0.00000  Uiso   1.00
O1112  O     0.77441   0.49998   0.82549   0.00000  Uiso   1.00
O1113  O     0.85360   0.49999   0.82549   0.00000  Uiso   1.00
O1114  O     0.79373   0.43988   0.75000   0.00000  Uiso   1.00
O1115  O     0.87292   0.43989   0.75000   0.00000  Uiso   1.00
O1116  O     0.81306   0.50001   0.67451   0.00000  Uiso   1.00
O1117  O     0.89225   0.50002   0.67451   0.00000  Uiso   1.00
C1118  C     0.95644   0.54236   0.57991   0.00000  Uiso   1.00
C1119  C     0.97520   0.58224   0.57390   0.00000  Uiso   1.00
C1120  C     0.69087   0.58816   0.56974   0.00000  Uiso   1.00
C1121  C     0.72092   0.55466   0.57389   0.00000  Uiso   1.00
C1122  C     0.70110   0.51573   0.58526   0.00000  Uiso   1.00
C1123  C     0.98646   0.50928   0.58607   0.00000  Uiso   1.00
H1124  H     0.95295   0.60828   0.56843   0.00000  Uiso   1.00
H1125  H     0.70564   0.61864   0.56296   0.00000  Uiso   1.00
H1126  H     0.75869   0.55931   0.57138   0.00000  Uiso   1.00
H1127  H     0.72322   0.49032   0.59223   0.00000  Uiso   1.00
H1128  H     0.97369   0.47824   0.58820   0.00000  Uiso   1.00
C1129  C     0.74801   0.63296   0.73417   0.00000  Uiso   1.00
C1130  C     0.74596   0.60631   0.69467   0.00000  Uiso   1.00
C1131  C     0.70056   0.59343   0.69347   0.00000  Uiso   1.00
C1132  C     0.99068   0.60987   0.72768   0.00000  Uiso   1.00
C1133  C     0.99245   0.63702   0.76651   0.00000  Uiso   1.00
C1134  C     0.70422   0.64806   0.77023   0.00000  Uiso   1.00
H1135  H     0.77921   0.59442   0.66635   0.00000  Uiso   1.00
H1136  H     0.69837   0.56945   0.66779   0.00000  Uiso   1.00
H1137  H     0.95618   0.60003   0.72483   0.00000  Uiso   1.00
H1138  H     0.95928   0.64920   0.79434   0.00000  Uiso   1.00
H1139  H     0.70510   0.33563   0.80080   0.00000  Uiso   1.00
Cl1140 Cl    0.97126   0.43716   0.67940   0.00000  Uiso   1.00
C1141  C     0.16559   0.91271   0.75079   0.00000  Uiso   1.00
C1142  C     0.14849   0.82491   0.98694   0.00000  Uiso   1.00
C1143  C     0.15148   0.84263   0.93740   0.00000  Uiso   1.00
C1144  C     0.17881   0.84010   0.51508   0.00000  Uiso   1.00
C1145  C     0.21298   0.87056   0.99153   0.00000  Uiso   1.00
C1146  C     0.21365   0.88874   0.94414   0.00000  Uiso   1.00
C1147  C     0.18217   0.87597   0.91835   0.00000  Uiso   1.00
C1148  C     0.17570   0.82697   0.56620   0.00000  Uiso   1.00
C1149  C     0.24619   0.86723   0.56415   0.00000  Uiso   1.00
C1150  C     0.12476   0.82598   0.90693   0.00000  Uiso   1.00
C1151  C     0.19900   0.97752   0.76775   0.00000  Uiso   1.00
C1152  C     0.14016   0.83270   0.85004   0.00000  Uiso   1.00
C1153  C     0.20184   0.68663   0.76566   0.00000  Uiso   1.00
C1154  C     0.16850   0.70984   0.74811   0.00000  Uiso   1.00
C1155  C     0.13249   0.69063   0.73320   0.00000  Uiso   1.00
C1156  C     0.12807   0.98170   0.73700   0.00000  Uiso   1.00
C1157  C     0.16377   0.95769   0.75146   0.00000  Uiso   1.00
C1158  C     0.29787   0.85766   0.78359   0.00000  Uiso   1.00
C1159  C     0.01395   0.85749   0.78377   0.00000  Uiso   1.00
C1160  C     0.03542   0.80815   0.71759   0.00000  Uiso   1.00
C1161  C     0.31933   0.80749   0.71816   0.00000  Uiso   1.00
C1162  C     0.16748   0.75422   0.74935   0.00000  Uiso   1.00
C1163  C     0.19319   0.83480   0.64959   0.00000  Uiso   1.00
C1164  C     0.24690   0.88259   0.51510   0.00000  Uiso   1.00
C1165  C     0.20773   0.84123   0.59199   0.00000  Uiso   1.00
C1166  C     0.09070   0.79555   0.92821   0.00000  Uiso   1.00
C1167  C     0.08683   0.77860   0.97701   0.00000  Uiso   1.00
C1168  C     0.11687   0.79168   0.50505   0.00000  Uiso   1.00
Cu1169 Cu    0.11978   0.83333   0.75000   0.00000  Uiso   1.00
Cu1170 Cu    0.21355   0.83334   0.75000   0.00000  Uiso   1.00
H1171  H     0.22889   0.70126   0.77923   0.00000  Uiso   1.00
H1172  H     0.10568   0.70881   0.72098   0.00000  Uiso   1.00
H1173  H     0.27094   0.87762   0.81016   0.00000  Uiso   1.00
H1174  H     0.02388   0.87731   0.81044   0.00000  Uiso   1.00
H1175  H     0.06248   0.78777   0.69182   0.00000  Uiso   1.00
H1176  H     0.23856   0.91318   0.92697   0.00000  Uiso   1.00
H1177  H     0.27541   0.90326   0.99393   0.00000  Uiso   1.00
H1178  H     0.14702   0.80697   0.58787   0.00000  Uiso   1.00
H1179  H     0.06992   0.78250   0.90531   0.00000  Uiso   1.00
H1180  H     0.11470   0.77506   0.54062   0.00000  Uiso   1.00
H1181  H     0.06210   0.75370   0.99210   0.00000  Uiso   1.00
H1182  H     0.18278   0.89207   0.88267   0.00000  Uiso   1.00
H1183  H     0.22285   0.96001   0.78445   0.00000  Uiso   1.00
N1184  N     0.04931   0.83332   0.74999   0.00000  Uiso   1.00
N1185  N     0.28402   0.83335   0.75000   0.00000  Uiso   1.00
O1186  O     0.12708   0.89345   0.75001   0.00000  Uiso   1.00
O1187  O     0.20627   0.89346   0.75001   0.00000  Uiso   1.00
O1188  O     0.10775   0.83332   0.82549   0.00000  Uiso   1.00
O1189  O     0.18694   0.83333   0.82549   0.00000  Uiso   1.00
O1190  O     0.12706   0.77321   0.75000   0.00000  Uiso   1.00
O1191  O     0.20625   0.77322   0.75000   0.00000  Uiso   1.00
O1192  O     0.14640   0.83334   0.67451   0.00000  Uiso   1.00
O1193  O     0.22559   0.83335   0.67451   0.00000  Uiso   1.00
C1194  C     0.28977   0.87570   0.57991   0.00000  Uiso   1.00
C1195  C     0.30854   0.91557   0.57390   0.00000  Uiso   1.00
C1196  C     0.02421   0.92149   0.56974   0.00000  Uiso   1.00
C1197  C     0.05425   0.88799   0.57389   0.00000  Uiso   1.00
C1198  C     0.03444   0.84906   0.58526   0.00000  Uiso   1.00
C1199  C     0.31979   0.84262   0.58607   0.00000  Uiso   1.00
H1200  H     0.28629   0.94162   0.56843   0.00000  Uiso   1.00
H1201  H     0.03897   0.95197   0.56296   0.00000  Uiso   1.00
H1202  H     0.09202   0.89264   0.57138   0.00000  Uiso   1.00
H1203  H     0.05655   0.82365   0.59223   0.00000  Uiso   1.00
H1204  H     0.30702   0.81157   0.58820   0.00000  Uiso   1.00
C1205  C     0.08134   0.96629   0.73417   0.00000  Uiso   1.00
C1206  C     0.07929   0.93964   0.69467   0.00000  Uiso   1.00
C1207  C     0.03389   0.92676   0.69347   0.00000  Uiso   1.00
C1208  C     0.32402   0.94320   0.72768   0.00000  Uiso   1.00
C1209  C     0.32579   0.97035   0.76651   0.00000  Uiso   1.00
C1210  C     0.03755   0.98140   0.77023   0.00000  Uiso   1.00
H1211  H     0.11255   0.92775   0.66635   0.00000  Uiso   1.00
H1212  H     0.03170   0.90279   0.66779   0.00000  Uiso   1.00
H1213  H     0.28952   0.93336   0.72483   0.00000  Uiso   1.00
H1214  H     0.29262   0.98253   0.79434   0.00000  Uiso   1.00
H1215  H     0.03843   0.66896   0.80080   0.00000  Uiso   1.00
Cl1216 Cl    0.30459   0.77049   0.67940   0.00000  Uiso   1.00
C1217  C     0.49893   0.91271   0.75079   0.00000  Uiso   1.00
C1218  C     0.48182   0.82491   0.98694   0.00000  Uiso   1.00
C1219  C     0.48481   0.84263   0.93740   0.00000  Uiso   1.00
C1220  C     0.51215   0.84010   0.51508   0.00000  Uiso   1.00
C1221  C     0.54631   0.87056   0.99153   0.00000  Uiso   1.00
C1222  C     0.54698   0.88874   0.94414   0.00000  Uiso   1.00
C1223  C     0.51550   0.87597   0.91835   0.00000  Uiso   1.00
C1224  C     0.50903   0.82697   0.56620   0.00000  Uiso   1.00
C1225  C     0.57952   0.86723   0.56415   0.00000  Uiso   1.00
C1226  C     0.45809   0.82598   0.90693   0.00000  Uiso   1.00
C1227  C     0.53234   0.97752   0.76775   0.00000  Uiso   1.00
C1228  C     0.47349   0.83270   0.85004   0.00000  Uiso   1.00
C1229  C     0.53518   0.68663   0.76566   0.00000  Uiso   1.00
C1230  C     0.50184   0.70984   0.74811   0.00000  Uiso   1.00
C1231  C     0.46582   0.69063   0.73320   0.00000  Uiso   1.00
C1232  C     0.46140   0.98170   0.73700   0.00000  Uiso   1.00
C1233  C     0.49710   0.95769   0.75146   0.00000  Uiso   1.00
C1234  C     0.63120   0.85766   0.78359   0.00000  Uiso   1.00
C1235  C     0.34728   0.85749   0.78377   0.00000  Uiso   1.00
C1236  C     0.36875   0.80815   0.71759   0.00000  Uiso   1.00
C1237  C     0.65267   0.80749   0.71816   0.00000  Uiso   1.00
C1238  C     0.50081   0.75422   0.74935   0.00000  Uiso   1.00
C1239  C     0.52653   0.83480   0.64959   0.00000  Uiso   1.00
C1240  C     0.58023   0.88259   0.51510   0.00000  Uiso   1.00
C1241  C     0.54106   0.84123   0.59199   0.00000  Uiso   1.00
C1242  C     0.42403   0.79555   0.92821   0.00000  Uiso   1.00
C1243  C     0.42016   0.77860   0.97701   0.00000  Uiso   1.00
C1244  C     0.45021   0.79168   0.50505   0.00000  Uiso   1.00
Cu1245 Cu    0.45311   0.83333   0.75000   0.00000  Uiso   1.00
Cu1246 Cu    0.54689   0.83334   0.75000   0.00000  Uiso   1.00
H1247  H     0.56222   0.70126   0.77923   0.00000  Uiso   1.00
H1248  H     0.43902   0.70881   0.72098   0.00000  Uiso   1.00
H1249  H     0.60428   0.87762   0.81016   0.00000  Uiso   1.00
H1250  H     0.35722   0.87731   0.81044   0.00000  Uiso   1.00
H1251  H     0.39581   0.78777   0.69182   0.00000  Uiso   1.00
H1252  H     0.57189   0.91318   0.92697   0.00000  Uiso   1.00
H1253  H     0.60874   0.90326   0.99393   0.00000  Uiso   1.00
H1254  H     0.48036   0.80697   0.58787   0.00000  Uiso   1.00
H1255  H     0.40325   0.78250   0.90531   0.00000  Uiso   1.00
H1256  H     0.44803   0.77506   0.54062   0.00000  Uiso   1.00
H1257  H     0.39543   0.75370   0.99210   0.00000  Uiso   1.00
H1258  H     0.51611   0.89207   0.88267   0.00000  Uiso   1.00
H1259  H     0.55618   0.96001   0.78445   0.00000  Uiso   1.00
N1260  N     0.38265   0.83332   0.74999   0.00000  Uiso   1.00
N1261  N     0.61735   0.83335   0.75000   0.00000  Uiso   1.00
O1262  O     0.46042   0.89345   0.75001   0.00000  Uiso   1.00
O1263  O     0.53961   0.89346   0.75001   0.00000  Uiso   1.00
O1264  O     0.44108   0.83332   0.82549   0.00000  Uiso   1.00
O1265  O     0.52027   0.83333   0.82549   0.00000  Uiso   1.00
O1266  O     0.46039   0.77321   0.75000   0.00000  Uiso   1.00
O1267  O     0.53958   0.77322   0.75000   0.00000  Uiso   1.00
O1268  O     0.47973   0.83334   0.67451   0.00000  Uiso   1.00
O1269  O     0.55892   0.83335   0.67451   0.00000  Uiso   1.00
C1270  C     0.62311   0.87570   0.57991   0.00000  Uiso   1.00
C1271  C     0.64187   0.91557   0.57390   0.00000  Uiso   1.00
C1272  C     0.35754   0.92149   0.56974   0.00000  Uiso   1.00
C1273  C     0.38758   0.88799   0.57389   0.00000  Uiso   1.00
C1274  C     0.36777   0.84906   0.58526   0.00000  Uiso   1.00
C1275  C     0.65312   0.84262   0.58607   0.00000  Uiso   1.00
H1276  H     0.61962   0.94162   0.56843   0.00000  Uiso   1.00
H1277  H     0.37231   0.95197   0.56296   0.00000  Uiso   1.00
H1278  H     0.42535   0.89264   0.57138   0.00000  Uiso   1.00
H1279  H     0.38988   0.82365   0.59223   0.00000  Uiso   1.00
H1280  H     0.64036   0.81157   0.58820   0.00000  Uiso   1.00
C1281  C     0.41467   0.96629   0.73417   0.00000  Uiso   1.00
C1282  C     0.41262   0.93964   0.69467   0.00000  Uiso   1.00
C1283  C     0.36723   0.92676   0.69347   0.00000  Uiso   1.00
C1284  C     0.65735   0.94320   0.72768   0.00000  Uiso   1.00
C1285  C     0.65912   0.97035   0.76651   0.00000  Uiso   1.00
C1286  C     0.37088   0.98140   0.77023   0.00000  Uiso   1.00
H1287  H     0.44588   0.92775   0.66635   0.00000  Uiso   1.00
H1288  H     0.36504   0.90279   0.66779   0.00000  Uiso   1.00
H1289  H     0.62285   0.93336   0.72483   0.00000  Uiso   1.00
H1290  H     0.62595   0.98253   0.79434   0.00000  Uiso   1.00
H1291  H     0.37177   0.66896   0.80080   0.00000  Uiso   1.00
Cl1292 Cl    0.63792   0.77049   0.67940   0.00000  Uiso   1.00
C1293  C     0.83226   0.91271   0.75079   0.00000  Uiso   1.00
C1294  C     0.81515   0.82491   0.98694   0.00000  Uiso   1.00
C1295  C     0.81814   0.84263   0.93740   0.00000  Uiso   1.00
C1296  C     0.84548   0.84010   0.51508   0.00000  Uiso   1.00
C1297  C     0.87964   0.87056   0.99153   0.00000  Uiso   1.00
C1298  C     0.88031   0.88874   0.94414   0.00000  Uiso   1.00
C1299  C     0.84884   0.87597   0.91835   0.00000  Uiso   1.00
C1300  C     0.84236   0.82697   0.56620   0.00000  Uiso   1.00
C1301  C     0.91286   0.86723   0.56415   0.00000  Uiso   1.00
C1302  C     0.79143   0.82598   0.90693   0.00000  Uiso   1.00
C1303  C     0.86567   0.97752   0.76775   0.00000  Uiso   1.00
C1304  C     0.80683   0.83270   0.85004   0.00000  Uiso   1.00
C1305  C     0.86851   0.68663   0.76566   0.00000  Uiso   1.00
C1306  C     0.83517   0.70984   0.74811   0.00000  Uiso   1.00
C1307  C     0.79916   0.69063   0.73320   0.00000  Uiso   1.00
C1308  C     0.79473   0.98170   0.73700   0.00000  Uiso   1.00
C1309  C     0.83043   0.95769   0.75146   0.00000  Uiso   1.00
C1310  C     0.96454   0.85766   0.78359   0.00000  Uiso   1.00
C1311  C     0.68061   0.85749   0.78377   0.00000  Uiso   1.00
C1312  C     0.70209   0.80815   0.71759   0.00000  Uiso   1.00
C1313  C     0.98600   0.80749   0.71816   0.00000  Uiso   1.00
C1314  C     0.83414   0.75422   0.74935   0.00000  Uiso   1.00
C1315  C     0.85986   0.83480   0.64959   0.00000  Uiso   1.00
C1316  C     0.91357   0.88259   0.51510   0.00000  Uiso   1.00
C1317  C     0.87439   0.84123   0.59199   0.00000  Uiso   1.00
C1318  C     0.75737   0.79555   0.92821   0.00000  Uiso   1.00
C1319  C     0.75350   0.77860   0.97701   0.00000  Uiso   1.00
C1320  C     0.78354   0.79168   0.50505   0.00000  Uiso   1.00
Cu1321 Cu    0.78645   0.83333   0.75000   0.00000  Uiso   1.00
Cu1322 Cu    0.88022   0.83334   0.75000   0.00000  Uiso   1.00
H1323  H     0.89555   0.70126   0.77923   0.00000  Uiso   1.00
H1324  H     0.77235   0.70881   0.72098   0.00000  Uiso   1.00
H1325  H     0.93761   0.87762   0.81016   0.00000  Uiso   1.00
H1326  H     0.69055   0.87731   0.81044   0.00000  Uiso   1.00
H1327  H     0.72915   0.78777   0.69182   0.00000  Uiso   1.00
H1328  H     0.90522   0.91318   0.92697   0.00000  Uiso   1.00
H1329  H     0.94207   0.90326   0.99393   0.00000  Uiso   1.00
H1330  H     0.81369   0.80697   0.58787   0.00000  Uiso   1.00
H1331  H     0.73659   0.78250   0.90531   0.00000  Uiso   1.00
H1332  H     0.78136   0.77506   0.54062   0.00000  Uiso   1.00
H1333  H     0.72876   0.75370   0.99210   0.00000  Uiso   1.00
H1334  H     0.84945   0.89207   0.88267   0.00000  Uiso   1.00
H1335  H     0.88952   0.96001   0.78445   0.00000  Uiso   1.00
N1336  N     0.71598   0.83332   0.74999   0.00000  Uiso   1.00
N1337  N     0.95069   0.83335   0.75000   0.00000  Uiso   1.00
O1338  O     0.79375   0.89345   0.75001   0.00000  Uiso   1.00
O1339  O     0.87294   0.89346   0.75001   0.00000  Uiso   1.00
O1340  O     0.77441   0.83332   0.82549   0.00000  Uiso   1.00
O1341  O     0.85360   0.83333   0.82549   0.00000  Uiso   1.00
O1342  O     0.79373   0.77321   0.75000   0.00000  Uiso   1.00
O1343  O     0.87292   0.77322   0.75000   0.00000  Uiso   1.00
O1344  O     0.81306   0.83334   0.67451   0.00000  Uiso   1.00
O1345  O     0.89225   0.83335   0.67451   0.00000  Uiso   1.00
C1346  C     0.95644   0.87570   0.57991   0.00000  Uiso   1.00
C1347  C     0.97520   0.91557   0.57390   0.00000  Uiso   1.00
C1348  C     0.69087   0.92149   0.56974   0.00000  Uiso   1.00
C1349  C     0.72092   0.88799   0.57389   0.00000  Uiso   1.00
C1350  C     0.70110   0.84906   0.58526   0.00000  Uiso   1.00
C1351  C     0.98646   0.84262   0.58607   0.00000  Uiso   1.00
H1352  H     0.95295   0.94162   0.56843   0.00000  Uiso   1.00
H1353  H     0.70564   0.95197   0.56296   0.00000  Uiso   1.00
H1354  H     0.75869   0.89264   0.57138   0.00000  Uiso   1.00
H1355  H     0.72322   0.82365   0.59223   0.00000  Uiso   1.00
H1356  H     0.97369   0.81157   0.58820   0.00000  Uiso   1.00
C1357  C     0.74801   0.96629   0.73417   0.00000  Uiso   1.00
C1358  C     0.74596   0.93964   0.69467   0.00000  Uiso   1.00
C1359  C     0.70056   0.92676   0.69347   0.00000  Uiso   1.00
C1360  C     0.99068   0.94320   0.72768   0.00000  Uiso   1.00
C1361  C     0.99245   0.97035   0.76651   0.00000  Uiso   1.00
C1362  C     0.70422   0.98140   0.77023   0.00000  Uiso   1.00
H1363  H     0.77921   0.92775   0.66635   0.00000  Uiso   1.00
H1364  H     0.69837   0.90279   0.66779   0.00000  Uiso   1.00
H1365  H     0.95618   0.93336   0.72483   0.00000  Uiso   1.00
H1366  H     0.95928   0.98253   0.79434   0.00000  Uiso   1.00
H1367  H     0.70510   0.66896   0.80080   0.00000  Uiso   1.00
Cl1368 Cl    0.97126   0.77049   0.67940   0.00000  Uiso   1.00
loop_
_geom_bond_atom_site_label_1
_geom_bond_atom_site_label_2
_geom_bond_distance
_geom_bond_site_symmetry_2
_ccdc_geom_bond_type
C1     O46     1.296   .     A
C1     O47     1.305   .     A
C1     C17     1.465   .     S
C2     C3      1.423   .     A
C2     C688    1.426   .     S
C2     C712    1.415   .     S
C3     C7      1.407   .     A
C3     C10     1.413   .     A
C4     C8      1.411   .     A
C4     C686    1.426   1_554 S
C4     C689    1.414   1_554 S
C5     C6      1.393   .     A
C5     C688    1.414   .     S
C5     C708    1.389   .     S
C6     C7      1.380   .     A
C6     H36     1.084   .     S
C7     H42     1.083   .     S
C8     C25     1.410   .     A
C8     H38     1.078   .     S
C9     C25     1.421   .     A
C9     C24     1.399   .     A
C9     C54     1.479   .     S
C10    C26     1.400   .     A
C10    C12     1.469   .     S
C11    H43     1.077   .     S
C11    C17     1.402   .     A
C11    C241    1.387   .     S
C12    O48     1.301   .     A
C12    O49     1.299   .     A
C13    H31     1.083   .     S
C13    C14     1.394   .     A
C13    C467    1.387   1_545 S
C14    C15     1.391   .     A
C14    C22     1.446   .     S
C15    H32     1.086   .     S
C15    C472    1.386   1_545 S
C16    C17     1.418   .     A
C16    C65     1.473   .     S
C16    C243    1.386   .     S
C18    N45     1.369   .     A
C18    H33     1.082   .     S
C18    C95     1.423   .     S
C19    N44     1.369   .     A
C19    H34     1.082   .     S
C19    C170    1.423   1_455 S
C20    H35     1.082   .     S
C20    N44     1.362   .     A
C20    C173    1.417   1_455 S
C21    Cl76    1.753   .     S
C21    N45     1.378   .     A
C21    C96     1.417   .     S
C22    O50     1.295   .     A
C22    O51     1.297   .     A
C23    O53     1.308   .     A
C23    O52     1.303   .     A
C23    C25     1.487   .     S
C24    C689    1.389   1_554 S
C24    H721    1.085   1_554 S
C26    C27     1.390   .     A
C26    H39     1.084   .     S
C27    H41     1.083   .     S
C27    C712    1.394   .     S
C28    H40     1.078   .     S
C28    C686    1.415   1_554 S
C28    C711    1.394   1_554 S
Cu29   O50     1.964   .     S
Cu29   O48     1.951   .     S
Cu29   Cu30    2.697   .     S
Cu29   N44     2.027   .     S
Cu29   O46     1.977   .     S
Cu29   O52     1.933   .     S
Cu30   O51     1.977   .     S
Cu30   N45     2.027   .     S
Cu30   O53     1.951   .     S
Cu30   O47     1.964   .     S
Cu30   O49     1.933   .     S
H37    C708    1.085   .     S
C54    C59     1.401   .     A
C54    C55     1.410   .     A
C55    H60     1.083   .     S
C55    C132    1.398   .     S
C56    C57     1.396   .     A
C56    H61     1.082   .     S
C56    C207    1.398   1_455 S
C57    C58     1.396   .     A
C57    H62     1.082   .     S
C58    H63     1.078   .     S
C58    C211    1.396   1_455 S
C59    H64     1.081   .     S
C59    C134    1.396   .     S
C65    C70     1.407   .     A
C65    C66     1.401   .     A
C66    C67     1.394   .     A
C66    H71     1.083   .     S
C67    H72     1.068   .     S
C67    C220    1.391   1_455 S
C68    C69     1.395   .     A
C68    H73     1.078   .     S
C68    C143    1.391   .     S
C69    H74     1.079   .     S
C69    C146    1.391   .     S
C70    C221    1.391   1_455 S
C70    H303    1.084   .     S
H75    C526    1.084   1_545 S
C77    O122    1.296   .     A
C77    O123    1.305   .     A
C77    C93     1.465   .     S
C78    C79     1.423   .     A
C78    C764    1.426   .     S
C78    C788    1.415   .     S
C79    C83     1.407   .     A
C79    C86     1.413   .     A
C80    C84     1.411   .     A
C80    C762    1.426   1_554 S
C80    C765    1.414   1_554 S
C81    C82     1.393   .     A
C81    C764    1.414   .     S
C81    C784    1.389   .     S
C82    C83     1.380   .     A
C82    H112    1.084   .     S
C83    H118    1.083   .     S
C84    C101    1.410   .     A
C84    H114    1.078   .     S
C85    C101    1.421   .     A
C85    C100    1.399   .     A
C85    C130    1.479   .     S
C86    C102    1.400   .     A
C86    C88     1.469   .     S
C87    H119    1.077   .     S
C87    C93     1.402   .     A
C87    C317    1.387   .     S
C88    O124    1.301   .     A
C88    O125    1.299   .     A
C89    H107    1.083   .     S
C89    C90     1.394   .     A
C89    C543    1.387   1_545 S
C90    C91     1.391   .     A
C90    C98     1.446   .     S
C91    H108    1.086   .     S
C91    C548    1.386   1_545 S
C92    C93     1.418   .     A
C92    C141    1.473   .     S
C92    C319    1.386   .     S
C94    N121    1.369   .     A
C94    H109    1.082   .     S
C94    C171    1.423   .     S
C95    N120    1.369   .     A
C95    H110    1.082   .     S
C96    H111    1.082   .     S
C96    N120    1.362   .     A
C97    Cl152   1.753   .     S
C97    N121    1.378   .     A
C97    C172    1.417   .     S
C98    O126    1.295   .     A
C98    O127    1.297   .     A
C99    O129    1.308   .     A
C99    O128    1.303   .     A
C99    C101    1.487   .     S
C100   C765    1.389   1_554 S
C100   H797    1.085   1_554 S
C102   C103    1.390   .     A
C102   H115    1.084   .     S
C103   H117    1.083   .     S
C103   C788    1.394   .     S
C104   H116    1.078   .     S
C104   C762    1.415   1_554 S
C104   C787    1.394   1_554 S
Cu105  O126    1.964   .     S
Cu105  O124    1.951   .     S
Cu105  Cu106   2.697   .     S
Cu105  N120    2.027   .     S
Cu105  O122    1.977   .     S
Cu105  O128    1.933   .     S
Cu106  O127    1.977   .     S
Cu106  N121    2.027   .     S
Cu106  O129    1.951   .     S
Cu106  O123    1.964   .     S
Cu106  O125    1.933   .     S
H113   C784    1.085   .     S
C130   C135    1.401   .     A
C130   C131    1.410   .     A
C131   H136    1.083   .     S
C131   C208    1.398   .     S
C132   C133    1.396   .     A
C132   H137    1.082   .     S
C133   C134    1.396   .     A
C133   H138    1.082   .     S
C134   H139    1.078   .     S
C135   H140    1.081   .     S
C135   C210    1.396   .     S
C141   C146    1.407   .     A
C141   C142    1.401   .     A
C142   C143    1.394   .     A
C142   H147    1.083   .     S
C143   H148    1.068   .     S
C144   C145    1.395   .     A
C144   H149    1.078   .     S
C144   C219    1.391   .     S
C145   H150    1.079   .     S
C145   C222    1.391   .     S
C146   H379    1.084   .     S
H151   C602    1.084   1_545 S
C153   O198    1.296   .     A
C153   O199    1.305   .     A
C153   C169    1.465   .     S
C154   C155    1.423   .     A
C154   C840    1.426   .     S
C154   C864    1.415   .     S
C155   C159    1.407   .     A
C155   C162    1.413   .     A
C156   C160    1.411   .     A
C156   C838    1.426   1_554 S
C156   C841    1.414   1_554 S
C157   C158    1.393   .     A
C157   C840    1.414   .     S
C157   C860    1.389   .     S
C158   C159    1.380   .     A
C158   H188    1.084   .     S
C159   H194    1.083   .     S
C160   C177    1.410   .     A
C160   H190    1.078   .     S
C161   C177    1.421   .     A
C161   C176    1.399   .     A
C161   C206    1.479   .     S
C162   C178    1.400   .     A
C162   C164    1.469   .     S
C163   H195    1.077   .     S
C163   C169    1.402   .     A
C163   C393    1.387   .     S
C164   O200    1.301   .     A
C164   O201    1.299   .     A
C165   H183    1.083   .     S
C165   C166    1.394   .     A
C165   C619    1.387   1_545 S
C166   C167    1.391   .     A
C166   C174    1.446   .     S
C167   H184    1.086   .     S
C167   C624    1.386   1_545 S
C168   C169    1.418   .     A
C168   C217    1.473   .     S
C168   C395    1.386   .     S
C170   N197    1.369   .     A
C170   H185    1.082   .     S
C170   C19     1.423   1_655 S
C171   N196    1.369   .     A
C171   H186    1.082   .     S
C172   H187    1.082   .     S
C172   N196    1.362   .     A
C173   Cl228   1.753   .     S
C173   N197    1.378   .     A
C173   C20     1.417   1_655 S
C174   O202    1.295   .     A
C174   O203    1.297   .     A
C175   O205    1.308   .     A
C175   O204    1.303   .     A
C175   C177    1.487   .     S
C176   C841    1.389   1_554 S
C176   H873    1.085   1_554 S
C178   C179    1.390   .     A
C178   H191    1.084   .     S
C179   H193    1.083   .     S
C179   C864    1.394   .     S
C180   H192    1.078   .     S
C180   C838    1.415   1_554 S
C180   C863    1.394   1_554 S
Cu181  O202    1.964   .     S
Cu181  O200    1.951   .     S
Cu181  Cu182   2.697   .     S
Cu181  N196    2.027   .     S
Cu181  O198    1.977   .     S
Cu181  O204    1.933   .     S
Cu182  O203    1.977   .     S
Cu182  N197    2.027   .     S
Cu182  O205    1.951   .     S
Cu182  O199    1.964   .     S
Cu182  O201    1.933   .     S
H189   C860    1.085   .     S
C206   C211    1.401   .     A
C206   C207    1.410   .     A
C207   H212    1.083   .     S
C207   C56     1.398   1_655 S
C208   C209    1.396   .     A
C208   H213    1.082   .     S
C209   C210    1.396   .     A
C209   H214    1.082   .     S
C210   H215    1.078   .     S
C211   H216    1.081   .     S
C211   C58     1.396   1_655 S
C217   C222    1.407   .     A
C217   C218    1.401   .     A
C218   C219    1.394   .     A
C218   H223    1.083   .     S
C219   H224    1.068   .     S
C220   C221    1.395   .     A
C220   H225    1.078   .     S
C220   C67     1.391   1_655 S
C221   H226    1.079   .     S
C221   C70     1.391   1_655 S
C222   H455    1.084   .     S
H227   C678    1.084   1_545 S
C229   O274    1.296   .     A
C229   O275    1.305   .     A
C229   C245    1.465   .     S
C230   C231    1.423   .     A
C230   C916    1.426   .     S
C230   C940    1.415   .     S
C231   C235    1.407   .     A
C231   C238    1.413   .     A
C232   C236    1.411   .     A
C232   C914    1.426   1_554 S
C232   C917    1.414   1_554 S
C233   C234    1.393   .     A
C233   C916    1.414   .     S
C233   C936    1.389   .     S
C234   C235    1.380   .     A
C234   H264    1.084   .     S
C235   H270    1.083   .     S
C236   C253    1.410   .     A
C236   H266    1.078   .     S
C237   C253    1.421   .     A
C237   C252    1.399   .     A
C237   C282    1.479   .     S
C238   C254    1.400   .     A
C238   C240    1.469   .     S
C239   H271    1.077   .     S
C239   C245    1.402   .     A
C239   C469    1.387   .     S
C240   O276    1.301   .     A
C240   O277    1.299   .     A
C241   H259    1.083   .     S
C241   C242    1.394   .     A
C242   C243    1.391   .     A
C242   C250    1.446   .     S
C243   H260    1.086   .     S
C244   C245    1.418   .     A
C244   C293    1.473   .     S
C244   C471    1.386   .     S
C246   N273    1.369   .     A
C246   H261    1.082   .     S
C246   C323    1.423   .     S
C247   N272    1.369   .     A
C247   H262    1.082   .     S
C247   C398    1.423   1_455 S
C248   H263    1.082   .     S
C248   N272    1.362   .     A
C248   C401    1.417   1_455 S
C249   Cl304   1.753   .     S
C249   N273    1.378   .     A
C249   C324    1.417   .     S
C250   O278    1.295   .     A
C250   O279    1.297   .     A
C251   O281    1.308   .     A
C251   O280    1.303   .     A
C251   C253    1.487   .     S
C252   C917    1.389   1_554 S
C252   H949    1.085   1_554 S
C254   C255    1.390   .     A
C254   H267    1.084   .     S
C255   H269    1.083   .     S
C255   C940    1.394   .     S
C256   H268    1.078   .     S
C256   C914    1.415   1_554 S
C256   C939    1.394   1_554 S
Cu257  O278    1.964   .     S
Cu257  O276    1.951   .     S
Cu257  Cu258   2.697   .     S
Cu257  N272    2.027   .     S
Cu257  O274    1.977   .     S
Cu257  O280    1.933   .     S
Cu258  O279    1.977   .     S
Cu258  N273    2.027   .     S
Cu258  O281    1.951   .     S
Cu258  O275    1.964   .     S
Cu258  O277    1.933   .     S
H265   C936    1.085   .     S
C282   C287    1.401   .     A
C282   C283    1.410   .     A
C283   H288    1.083   .     S
C283   C360    1.398   .     S
C284   C285    1.396   .     A
C284   H289    1.082   .     S
C284   C435    1.398   1_455 S
C285   C286    1.396   .     A
C285   H290    1.082   .     S
C286   H291    1.078   .     S
C286   C439    1.396   1_455 S
C287   H292    1.081   .     S
C287   C362    1.396   .     S
C293   C298    1.407   .     A
C293   C294    1.401   .     A
C294   C295    1.394   .     A
C294   H299    1.083   .     S
C295   H300    1.068   .     S
C295   C448    1.391   1_455 S
C296   C297    1.395   .     A
C296   H301    1.078   .     S
C296   C371    1.391   .     S
C297   H302    1.079   .     S
C297   C374    1.391   .     S
C298   C449    1.391   1_455 S
C298   H531    1.084   .     S
C305   O350    1.296   .     A
C305   O351    1.305   .     A
C305   C321    1.465   .     S
C306   C307    1.423   .     A
C306   C992    1.426   .     S
C306   C1016   1.415   .     S
C307   C311    1.407   .     A
C307   C314    1.413   .     A
C308   C312    1.411   .     A
C308   C990    1.426   1_554 S
C308   C993    1.414   1_554 S
C309   C310    1.393   .     A
C309   C992    1.414   .     S
C309   C1012   1.389   .     S
C310   C311    1.380   .     A
C310   H340    1.084   .     S
C311   H346    1.083   .     S
C312   C329    1.410   .     A
C312   H342    1.078   .     S
C313   C329    1.421   .     A
C313   C328    1.399   .     A
C313   C358    1.479   .     S
C314   C330    1.400   .     A
C314   C316    1.469   .     S
C315   H347    1.077   .     S
C315   C321    1.402   .     A
C315   C545    1.387   .     S
C316   O352    1.301   .     A
C316   O353    1.299   .     A
C317   H335    1.083   .     S
C317   C318    1.394   .     A
C318   C319    1.391   .     A
C318   C326    1.446   .     S
C319   H336    1.086   .     S
C320   C321    1.418   .     A
C320   C369    1.473   .     S
C320   C547    1.386   .     S
C322   N349    1.369   .     A
C322   H337    1.082   .     S
C322   C399    1.423   .     S
C323   N348    1.369   .     A
C323   H338    1.082   .     S
C324   H339    1.082   .     S
C324   N348    1.362   .     A
C325   Cl380   1.753   .     S
C325   N349    1.378   .     A
C325   C400    1.417   .     S
C326   O354    1.295   .     A
C326   O355    1.297   .     A
C327   O357    1.308   .     A
C327   O356    1.303   .     A
C327   C329    1.487   .     S
C328   C993    1.389   1_554 S
C328   H1025   1.085   1_554 S
C330   C331    1.390   .     A
C330   H343    1.084   .     S
C331   H345    1.083   .     S
C331   C1016   1.394   .     S
C332   H344    1.078   .     S
C332   C990    1.415   1_554 S
C332   C1015   1.394   1_554 S
Cu333  O354    1.964   .     S
Cu333  O352    1.951   .     S
Cu333  Cu334   2.697   .     S
Cu333  N348    2.027   .     S
Cu333  O350    1.977   .     S
Cu333  O356    1.933   .     S
Cu334  O355    1.977   .     S
Cu334  N349    2.027   .     S
Cu334  O357    1.951   .     S
Cu334  O351    1.964   .     S
Cu334  O353    1.933   .     S
H341   C1012   1.085   .     S
C358   C363    1.401   .     A
C358   C359    1.410   .     A
C359   H364    1.083   .     S
C359   C436    1.398   .     S
C360   C361    1.396   .     A
C360   H365    1.082   .     S
C361   C362    1.396   .     A
C361   H366    1.082   .     S
C362   H367    1.078   .     S
C363   H368    1.081   .     S
C363   C438    1.396   .     S
C369   C374    1.407   .     A
C369   C370    1.401   .     A
C370   C371    1.394   .     A
C370   H375    1.083   .     S
C371   H376    1.068   .     S
C372   C373    1.395   .     A
C372   H377    1.078   .     S
C372   C447    1.391   .     S
C373   H378    1.079   .     S
C373   C450    1.391   .     S
C374   H607    1.084   .     S
C381   O426    1.296   .     A
C381   O427    1.305   .     A
C381   C397    1.465   .     S
C382   C383    1.423   .     A
C382   C1068   1.426   .     S
C382   C1092   1.415   .     S
C383   C387    1.407   .     A
C383   C390    1.413   .     A
C384   C388    1.411   .     A
C384   C1066   1.426   1_554 S
C384   C1069   1.414   1_554 S
C385   C386    1.393   .     A
C385   C1068   1.414   .     S
C385   C1088   1.389   .     S
C386   C387    1.380   .     A
C386   H416    1.084   .     S
C387   H422    1.083   .     S
C388   C405    1.410   .     A
C388   H418    1.078   .     S
C389   C405    1.421   .     A
C389   C404    1.399   .     A
C389   C434    1.479   .     S
C390   C406    1.400   .     A
C390   C392    1.469   .     S
C391   H423    1.077   .     S
C391   C397    1.402   .     A
C391   C621    1.387   .     S
C392   O428    1.301   .     A
C392   O429    1.299   .     A
C393   H411    1.083   .     S
C393   C394    1.394   .     A
C394   C395    1.391   .     A
C394   C402    1.446   .     S
C395   H412    1.086   .     S
C396   C397    1.418   .     A
C396   C445    1.473   .     S
C396   C623    1.386   .     S
C398   N425    1.369   .     A
C398   H413    1.082   .     S
C398   C247    1.423   1_655 S
C399   N424    1.369   .     A
C399   H414    1.082   .     S
C400   H415    1.082   .     S
C400   N424    1.362   .     A
C401   Cl456   1.753   .     S
C401   N425    1.378   .     A
C401   C248    1.417   1_655 S
C402   O430    1.295   .     A
C402   O431    1.297   .     A
C403   O433    1.308   .     A
C403   O432    1.303   .     A
C403   C405    1.487   .     S
C404   C1069   1.389   1_554 S
C404   H1101   1.085   1_554 S
C406   C407    1.390   .     A
C406   H419    1.084   .     S
C407   H421    1.083   .     S
C407   C1092   1.394   .     S
C408   H420    1.078   .     S
C408   C1066   1.415   1_554 S
C408   C1091   1.394   1_554 S
Cu409  O430    1.964   .     S
Cu409  O428    1.951   .     S
Cu409  Cu410   2.697   .     S
Cu409  N424    2.027   .     S
Cu409  O426    1.977   .     S
Cu409  O432    1.933   .     S
Cu410  O431    1.977   .     S
Cu410  N425    2.027   .     S
Cu410  O433    1.951   .     S
Cu410  O427    1.964   .     S
Cu410  O429    1.933   .     S
H417   C1088   1.085   .     S
C434   C439    1.401   .     A
C434   C435    1.410   .     A
C435   H440    1.083   .     S
C435   C284    1.398   1_655 S
C436   C437    1.396   .     A
C436   H441    1.082   .     S
C437   C438    1.396   .     A
C437   H442    1.082   .     S
C438   H443    1.078   .     S
C439   H444    1.081   .     S
C439   C286    1.396   1_655 S
C445   C450    1.407   .     A
C445   C446    1.401   .     A
C446   C447    1.394   .     A
C446   H451    1.083   .     S
C447   H452    1.068   .     S
C448   C449    1.395   .     A
C448   H453    1.078   .     S
C448   C295    1.391   1_655 S
C449   H454    1.079   .     S
C449   C298    1.391   1_655 S
C450   H683    1.084   .     S
C457   O502    1.296   .     A
C457   O503    1.305   .     A
C457   C473    1.465   .     S
C458   C459    1.423   .     A
C458   C1144   1.426   .     S
C458   C1168   1.415   .     S
C459   C463    1.407   .     A
C459   C466    1.413   .     A
C460   C464    1.411   .     A
C460   C1142   1.426   1_554 S
C460   C1145   1.414   1_554 S
C461   C462    1.393   .     A
C461   C1144   1.414   .     S
C461   C1164   1.389   .     S
C462   C463    1.380   .     A
C462   H492    1.084   .     S
C463   H498    1.083   .     S
C464   C481    1.410   .     A
C464   H494    1.078   .     S
C465   C481    1.421   .     A
C465   C480    1.399   .     A
C465   C510    1.479   .     S
C466   C482    1.400   .     A
C466   C468    1.469   .     S
C467   H499    1.077   .     S
C467   C473    1.402   .     A
C467   C13     1.387   1_565 S
C468   O504    1.301   .     A
C468   O505    1.299   .     A
C469   H487    1.083   .     S
C469   C470    1.394   .     A
C470   C471    1.391   .     A
C470   C478    1.446   .     S
C471   H488    1.086   .     S
C472   C473    1.418   .     A
C472   C521    1.473   .     S
C472   C15     1.386   1_565 S
C474   N501    1.369   .     A
C474   H489    1.082   .     S
C474   C551    1.423   .     S
C475   N500    1.369   .     A
C475   H490    1.082   .     S
C475   C626    1.423   1_455 S
C476   H491    1.082   .     S
C476   N500    1.362   .     A
C476   C629    1.417   1_455 S
C477   Cl532   1.753   .     S
C477   N501    1.378   .     A
C477   C552    1.417   .     S
C478   O506    1.295   .     A
C478   O507    1.297   .     A
C479   O509    1.308   .     A
C479   O508    1.303   .     A
C479   C481    1.487   .     S
C480   C1145   1.389   1_554 S
C480   H1177   1.085   1_554 S
C482   C483    1.390   .     A
C482   H495    1.084   .     S
C483   H497    1.083   .     S
C483   C1168   1.394   .     S
C484   H496    1.078   .     S
C484   C1142   1.415   1_554 S
C484   C1167   1.394   1_554 S
Cu485  O506    1.964   .     S
Cu485  O504    1.951   .     S
Cu485  Cu486   2.697   .     S
Cu485  N500    2.027   .     S
Cu485  O502    1.977   .     S
Cu485  O508    1.933   .     S
Cu486  O507    1.977   .     S
Cu486  N501    2.027   .     S
Cu486  O509    1.951   .     S
Cu486  O503    1.964   .     S
Cu486  O505    1.933   .     S
H493   C1164   1.085   .     S
C510   C515    1.401   .     A
C510   C511    1.410   .     A
C511   H516    1.083   .     S
C511   C588    1.398   .     S
C512   C513    1.396   .     A
C512   H517    1.082   .     S
C512   C663    1.398   1_455 S
C513   C514    1.396   .     A
C513   H518    1.082   .     S
C514   H519    1.078   .     S
C514   C667    1.396   1_455 S
C515   H520    1.081   .     S
C515   C590    1.396   .     S
C521   C526    1.407   .     A
C521   C522    1.401   .     A
C522   C523    1.394   .     A
C522   H527    1.083   .     S
C523   H528    1.068   .     S
C523   C676    1.391   1_455 S
C524   C525    1.395   .     A
C524   H529    1.078   .     S
C524   C599    1.391   .     S
C525   H530    1.079   .     S
C525   C602    1.391   .     S
C526   C677    1.391   1_455 S
C526   H75     1.084   1_565 S
C533   O578    1.296   .     A
C533   O579    1.305   .     A
C533   C549    1.465   .     S
C534   C535    1.423   .     A
C534   C1220   1.426   .     S
C534   C1244   1.415   .     S
C535   C539    1.407   .     A
C535   C542    1.413   .     A
C536   C540    1.411   .     A
C536   C1218   1.426   1_554 S
C536   C1221   1.414   1_554 S
C537   C538    1.393   .     A
C537   C1220   1.414   .     S
C537   C1240   1.389   .     S
C538   C539    1.380   .     A
C538   H568    1.084   .     S
C539   H574    1.083   .     S
C540   C557    1.410   .     A
C540   H570    1.078   .     S
C541   C557    1.421   .     A
C541   C556    1.399   .     A
C541   C586    1.479   .     S
C542   C558    1.400   .     A
C542   C544    1.469   .     S
C543   H575    1.077   .     S
C543   C549    1.402   .     A
C543   C89     1.387   1_565 S
C544   O580    1.301   .     A
C544   O581    1.299   .     A
C545   H563    1.083   .     S
C545   C546    1.394   .     A
C546   C547    1.391   .     A
C546   C554    1.446   .     S
C547   H564    1.086   .     S
C548   C549    1.418   .     A
C548   C597    1.473   .     S
C548   C91     1.386   1_565 S
C550   N577    1.369   .     A
C550   H565    1.082   .     S
C550   C627    1.423   .     S
C551   N576    1.369   .     A
C551   H566    1.082   .     S
C552   H567    1.082   .     S
C552   N576    1.362   .     A
C553   Cl608   1.753   .     S
C553   N577    1.378   .     A
C553   C628    1.417   .     S
C554   O582    1.295   .     A
C554   O583    1.297   .     A
C555   O585    1.308   .     A
C555   O584    1.303   .     A
C555   C557    1.487   .     S
C556   C1221   1.389   1_554 S
C556   H1253   1.085   1_554 S
C558   C559    1.390   .     A
C558   H571    1.084   .     S
C559   H573    1.083   .     S
C559   C1244   1.394   .     S
C560   H572    1.078   .     S
C560   C1218   1.415   1_554 S
C560   C1243   1.394   1_554 S
Cu561  O582    1.964   .     S
Cu561  O580    1.951   .     S
Cu561  Cu562   2.697   .     S
Cu561  N576    2.027   .     S
Cu561  O578    1.977   .     S
Cu561  O584    1.933   .     S
Cu562  O583    1.977   .     S
Cu562  N577    2.027   .     S
Cu562  O585    1.951   .     S
Cu562  O579    1.964   .     S
Cu562  O581    1.933   .     S
H569   C1240   1.085   .     S
C586   C591    1.401   .     A
C586   C587    1.410   .     A
C587   H592    1.083   .     S
C587   C664    1.398   .     S
C588   C589    1.396   .     A
C588   H593    1.082   .     S
C589   C590    1.396   .     A
C589   H594    1.082   .     S
C590   H595    1.078   .     S
C591   H596    1.081   .     S
C591   C666    1.396   .     S
C597   C602    1.407   .     A
C597   C598    1.401   .     A
C598   C599    1.394   .     A
C598   H603    1.083   .     S
C599   H604    1.068   .     S
C600   C601    1.395   .     A
C600   H605    1.078   .     S
C600   C675    1.391   .     S
C601   H606    1.079   .     S
C601   C678    1.391   .     S
C602   H151    1.084   1_565 S
C609   O654    1.296   .     A
C609   O655    1.305   .     A
C609   C625    1.465   .     S
C610   C611    1.423   .     A
C610   C1296   1.426   .     S
C610   C1320   1.415   .     S
C611   C615    1.407   .     A
C611   C618    1.413   .     A
C612   C616    1.411   .     A
C612   C1294   1.426   1_554 S
C612   C1297   1.414   1_554 S
C613   C614    1.393   .     A
C613   C1296   1.414   .     S
C613   C1316   1.389   .     S
C614   C615    1.380   .     A
C614   H644    1.084   .     S
C615   H650    1.083   .     S
C616   C633    1.410   .     A
C616   H646    1.078   .     S
C617   C633    1.421   .     A
C617   C632    1.399   .     A
C617   C662    1.479   .     S
C618   C634    1.400   .     A
C618   C620    1.469   .     S
C619   H651    1.077   .     S
C619   C625    1.402   .     A
C619   C165    1.387   1_565 S
C620   O656    1.301   .     A
C620   O657    1.299   .     A
C621   H639    1.083   .     S
C621   C622    1.394   .     A
C622   C623    1.391   .     A
C622   C630    1.446   .     S
C623   H640    1.086   .     S
C624   C625    1.418   .     A
C624   C673    1.473   .     S
C624   C167    1.386   1_565 S
C626   N653    1.369   .     A
C626   H641    1.082   .     S
C626   C475    1.423   1_655 S
C627   N652    1.369   .     A
C627   H642    1.082   .     S
C628   H643    1.082   .     S
C628   N652    1.362   .     A
C629   Cl684   1.753   .     S
C629   N653    1.378   .     A
C629   C476    1.417   1_655 S
C630   O658    1.295   .     A
C630   O659    1.297   .     A
C631   O661    1.308   .     A
C631   O660    1.303   .     A
C631   C633    1.487   .     S
C632   C1297   1.389   1_554 S
C632   H1329   1.085   1_554 S
C634   C635    1.390   .     A
C634   H647    1.084   .     S
C635   H649    1.083   .     S
C635   C1320   1.394   .     S
C636   H648    1.078   .     S
C636   C1294   1.415   1_554 S
C636   C1319   1.394   1_554 S
Cu637  O658    1.964   .     S
Cu637  O656    1.951   .     S
Cu637  Cu638   2.697   .     S
Cu637  N652    2.027   .     S
Cu637  O654    1.977   .     S
Cu637  O660    1.933   .     S
Cu638  O659    1.977   .     S
Cu638  N653    2.027   .     S
Cu638  O661    1.951   .     S
Cu638  O655    1.964   .     S
Cu638  O657    1.933   .     S
H645   C1316   1.085   .     S
C662   C667    1.401   .     A
C662   C663    1.410   .     A
C663   H668    1.083   .     S
C663   C512    1.398   1_655 S
C664   C665    1.396   .     A
C664   H669    1.082   .     S
C665   C666    1.396   .     A
C665   H670    1.082   .     S
C666   H671    1.078   .     S
C667   H672    1.081   .     S
C667   C514    1.396   1_655 S
C673   C678    1.407   .     A
C673   C674    1.401   .     A
C674   C675    1.394   .     A
C674   H679    1.083   .     S
C675   H680    1.068   .     S
C676   C677    1.395   .     A
C676   H681    1.078   .     S
C676   C523    1.391   1_655 S
C677   H682    1.079   .     S
C677   C526    1.391   1_655 S
C678   H227    1.084   1_565 S
C685   O730    1.296   .     A
C685   O731    1.305   .     A
C685   C701    1.465   .     S
C686   C687    1.423   .     A
C686   C4      1.426   1_556 S
C686   C28     1.415   1_556 S
C687   C691    1.407   .     A
C687   C694    1.413   .     A
C688   C692    1.411   .     A
C689   C690    1.393   .     A
C689   C4      1.414   1_556 S
C689   C24     1.389   1_556 S
C690   C691    1.380   .     A
C690   H720    1.084   .     S
C691   H726    1.083   .     S
C692   C709    1.410   .     A
C692   H722    1.078   .     S
C693   C709    1.421   .     A
C693   C708    1.399   .     A
C693   C738    1.479   .     S
C694   C710    1.400   .     A
C694   C696    1.469   .     S
C695   H727    1.077   .     S
C695   C701    1.402   .     A
C695   C925    1.387   .     S
C696   O732    1.301   .     A
C696   O733    1.299   .     A
C697   H715    1.083   .     S
C697   C698    1.394   .     A
C697   C1151   1.387   1_545 S
C698   C699    1.391   .     A
C698   C706    1.446   .     S
C699   H716    1.086   .     S
C699   C1156   1.386   1_545 S
C700   C701    1.418   .     A
C700   C749    1.473   .     S
C700   C927    1.386   .     S
C702   N729    1.369   .     A
C702   H717    1.082   .     S
C702   C779    1.423   .     S
C703   N728    1.369   .     A
C703   H718    1.082   .     S
C703   C854    1.423   1_455 S
C704   H719    1.082   .     S
C704   N728    1.362   .     A
C704   C857    1.417   1_455 S
C705   Cl760   1.753   .     S
C705   N729    1.378   .     A
C705   C780    1.417   .     S
C706   O734    1.295   .     A
C706   O735    1.297   .     A
C707   O737    1.308   .     A
C707   O736    1.303   .     A
C707   C709    1.487   .     S
C710   C711    1.390   .     A
C710   H723    1.084   .     S
C711   H725    1.083   .     S
C711   C28     1.394   1_556 S
C712   H724    1.078   .     S
Cu713  O734    1.964   .     S
Cu713  O732    1.951   .     S
Cu713  Cu714   2.697   .     S
Cu713  N728    2.027   .     S
Cu713  O730    1.977   .     S
Cu713  O736    1.933   .     S
Cu714  O735    1.977   .     S
Cu714  N729    2.027   .     S
Cu714  O737    1.951   .     S
Cu714  O731    1.964   .     S
Cu714  O733    1.933   .     S
H721   C24     1.085   1_556 S
C738   C743    1.401   .     A
C738   C739    1.410   .     A
C739   H744    1.083   .     S
C739   C816    1.398   .     S
C740   C741    1.396   .     A
C740   H745    1.082   .     S
C740   C891    1.398   1_455 S
C741   C742    1.396   .     A
C741   H746    1.082   .     S
C742   H747    1.078   .     S
C742   C895    1.396   1_455 S
C743   H748    1.081   .     S
C743   C818    1.396   .     S
C749   C754    1.407   .     A
C749   C750    1.401   .     A
C750   C751    1.394   .     A
C750   H755    1.083   .     S
C751   H756    1.068   .     S
C751   C904    1.391   1_455 S
C752   C753    1.395   .     A
C752   H757    1.078   .     S
C752   C827    1.391   .     S
C753   H758    1.079   .     S
C753   C830    1.391   .     S
C754   C905    1.391   1_455 S
C754   H987    1.084   .     S
H759   C1210   1.084   1_545 S
C761   O806    1.296   .     A
C761   O807    1.305   .     A
C761   C777    1.465   .     S
C762   C763    1.423   .     A
C762   C80     1.426   1_556 S
C762   C104    1.415   1_556 S
C763   C767    1.407   .     A
C763   C770    1.413   .     A
C764   C768    1.411   .     A
C765   C766    1.393   .     A
C765   C80     1.414   1_556 S
C765   C100    1.389   1_556 S
C766   C767    1.380   .     A
C766   H796    1.084   .     S
C767   H802    1.083   .     S
C768   C785    1.410   .     A
C768   H798    1.078   .     S
C769   C785    1.421   .     A
C769   C784    1.399   .     A
C769   C814    1.479   .     S
C770   C786    1.400   .     A
C770   C772    1.469   .     S
C771   H803    1.077   .     S
C771   C777    1.402   .     A
C771   C1001   1.387   .     S
C772   O808    1.301   .     A
C772   O809    1.299   .     A
C773   H791    1.083   .     S
C773   C774    1.394   .     A
C773   C1227   1.387   1_545 S
C774   C775    1.391   .     A
C774   C782    1.446   .     S
C775   H792    1.086   .     S
C775   C1232   1.386   1_545 S
C776   C777    1.418   .     A
C776   C825    1.473   .     S
C776   C1003   1.386   .     S
C778   N805    1.369   .     A
C778   H793    1.082   .     S
C778   C855    1.423   .     S
C779   N804    1.369   .     A
C779   H794    1.082   .     S
C780   H795    1.082   .     S
C780   N804    1.362   .     A
C781   Cl836   1.753   .     S
C781   N805    1.378   .     A
C781   C856    1.417   .     S
C782   O810    1.295   .     A
C782   O811    1.297   .     A
C783   O813    1.308   .     A
C783   O812    1.303   .     A
C783   C785    1.487   .     S
C786   C787    1.390   .     A
C786   H799    1.084   .     S
C787   H801    1.083   .     S
C787   C104    1.394   1_556 S
C788   H800    1.078   .     S
Cu789  O810    1.964   .     S
Cu789  O808    1.951   .     S
Cu789  Cu790   2.697   .     S
Cu789  N804    2.027   .     S
Cu789  O806    1.977   .     S
Cu789  O812    1.933   .     S
Cu790  O811    1.977   .     S
Cu790  N805    2.027   .     S
Cu790  O813    1.951   .     S
Cu790  O807    1.964   .     S
Cu790  O809    1.933   .     S
H797   C100    1.085   1_556 S
C814   C819    1.401   .     A
C814   C815    1.410   .     A
C815   H820    1.083   .     S
C815   C892    1.398   .     S
C816   C817    1.396   .     A
C816   H821    1.082   .     S
C817   C818    1.396   .     A
C817   H822    1.082   .     S
C818   H823    1.078   .     S
C819   H824    1.081   .     S
C819   C894    1.396   .     S
C825   C830    1.407   .     A
C825   C826    1.401   .     A
C826   C827    1.394   .     A
C826   H831    1.083   .     S
C827   H832    1.068   .     S
C828   C829    1.395   .     A
C828   H833    1.078   .     S
C828   C903    1.391   .     S
C829   H834    1.079   .     S
C829   C906    1.391   .     S
C830   H1063   1.084   .     S
H835   C1286   1.084   1_545 S
C837   O882    1.296   .     A
C837   O883    1.305   .     A
C837   C853    1.465   .     S
C838   C839    1.423   .     A
C838   C156    1.426   1_556 S
C838   C180    1.415   1_556 S
C839   C843    1.407   .     A
C839   C846    1.413   .     A
C840   C844    1.411   .     A
C841   C842    1.393   .     A
C841   C156    1.414   1_556 S
C841   C176    1.389   1_556 S
C842   C843    1.380   .     A
C842   H872    1.084   .     S
C843   H878    1.083   .     S
C844   C861    1.410   .     A
C844   H874    1.078   .     S
C845   C861    1.421   .     A
C845   C860    1.399   .     A
C845   C890    1.479   .     S
C846   C862    1.400   .     A
C846   C848    1.469   .     S
C847   H879    1.077   .     S
C847   C853    1.402   .     A
C847   C1077   1.387   .     S
C848   O884    1.301   .     A
C848   O885    1.299   .     A
C849   H867    1.083   .     S
C849   C850    1.394   .     A
C849   C1303   1.387   1_545 S
C850   C851    1.391   .     A
C850   C858    1.446   .     S
C851   H868    1.086   .     S
C851   C1308   1.386   1_545 S
C852   C853    1.418   .     A
C852   C901    1.473   .     S
C852   C1079   1.386   .     S
C854   N881    1.369   .     A
C854   H869    1.082   .     S
C854   C703    1.423   1_655 S
C855   N880    1.369   .     A
C855   H870    1.082   .     S
C856   H871    1.082   .     S
C856   N880    1.362   .     A
C857   Cl912   1.753   .     S
C857   N881    1.378   .     A
C857   C704    1.417   1_655 S
C858   O886    1.295   .     A
C858   O887    1.297   .     A
C859   O889    1.308   .     A
C859   O888    1.303   .     A
C859   C861    1.487   .     S
C862   C863    1.390   .     A
C862   H875    1.084   .     S
C863   H877    1.083   .     S
C863   C180    1.394   1_556 S
C864   H876    1.078   .     S
Cu865  O886    1.964   .     S
Cu865  O884    1.951   .     S
Cu865  Cu866   2.697   .     S
Cu865  N880    2.027   .     S
Cu865  O882    1.977   .     S
Cu865  O888    1.933   .     S
Cu866  O887    1.977   .     S
Cu866  N881    2.027   .     S
Cu866  O889    1.951   .     S
Cu866  O883    1.964   .     S
Cu866  O885    1.933   .     S
H873   C176    1.085   1_556 S
C890   C895    1.401   .     A
C890   C891    1.410   .     A
C891   H896    1.083   .     S
C891   C740    1.398   1_655 S
C892   C893    1.396   .     A
C892   H897    1.082   .     S
C893   C894    1.396   .     A
C893   H898    1.082   .     S
C894   H899    1.078   .     S
C895   H900    1.081   .     S
C895   C742    1.396   1_655 S
C901   C906    1.407   .     A
C901   C902    1.401   .     A
C902   C903    1.394   .     A
C902   H907    1.083   .     S
C903   H908    1.068   .     S
C904   C905    1.395   .     A
C904   H909    1.078   .     S
C904   C751    1.391   1_655 S
C905   H910    1.079   .     S
C905   C754    1.391   1_655 S
C906   H1139   1.084   .     S
H911   C1362   1.084   1_545 S
C913   O958    1.296   .     A
C913   O959    1.305   .     A
C913   C929    1.465   .     S
C914   C915    1.423   .     A
C914   C232    1.426   1_556 S
C914   C256    1.415   1_556 S
C915   C919    1.407   .     A
C915   C922    1.413   .     A
C916   C920    1.411   .     A
C917   C918    1.393   .     A
C917   C232    1.414   1_556 S
C917   C252    1.389   1_556 S
C918   C919    1.380   .     A
C918   H948    1.084   .     S
C919   H954    1.083   .     S
C920   C937    1.410   .     A
C920   H950    1.078   .     S
C921   C937    1.421   .     A
C921   C936    1.399   .     A
C921   C966    1.479   .     S
C922   C938    1.400   .     A
C922   C924    1.469   .     S
C923   H955    1.077   .     S
C923   C929    1.402   .     A
C923   C1153   1.387   .     S
C924   O960    1.301   .     A
C924   O961    1.299   .     A
C925   H943    1.083   .     S
C925   C926    1.394   .     A
C926   C927    1.391   .     A
C926   C934    1.446   .     S
C927   H944    1.086   .     S
C928   C929    1.418   .     A
C928   C977    1.473   .     S
C928   C1155   1.386   .     S
C930   N957    1.369   .     A
C930   H945    1.082   .     S
C930   C1007   1.423   .     S
C931   N956    1.369   .     A
C931   H946    1.082   .     S
C931   C1082   1.423   1_455 S
C932   H947    1.082   .     S
C932   N956    1.362   .     A
C932   C1085   1.417   1_455 S
C933   Cl988   1.753   .     S
C933   N957    1.378   .     A
C933   C1008   1.417   .     S
C934   O962    1.295   .     A
C934   O963    1.297   .     A
C935   O965    1.308   .     A
C935   O964    1.303   .     A
C935   C937    1.487   .     S
C938   C939    1.390   .     A
C938   H951    1.084   .     S
C939   H953    1.083   .     S
C939   C256    1.394   1_556 S
C940   H952    1.078   .     S
Cu941  O962    1.964   .     S
Cu941  O960    1.951   .     S
Cu941  Cu942   2.697   .     S
Cu941  N956    2.027   .     S
Cu941  O958    1.977   .     S
Cu941  O964    1.933   .     S
Cu942  O963    1.977   .     S
Cu942  N957    2.027   .     S
Cu942  O965    1.951   .     S
Cu942  O959    1.964   .     S
Cu942  O961    1.933   .     S
H949   C252    1.085   1_556 S
C966   C971    1.401   .     A
C966   C967    1.410   .     A
C967   H972    1.083   .     S
C967   C1044   1.398   .     S
C968   C969    1.396   .     A
C968   H973    1.082   .     S
C968   C1119   1.398   1_455 S
C969   C970    1.396   .     A
C969   H974    1.082   .     S
C970   H975    1.078   .     S
C970   C1123   1.396   1_455 S
C971   H976    1.081   .     S
C971   C1046   1.396   .     S
C977   C982    1.407   .     A
C977   C978    1.401   .     A
C978   C979    1.394   .     A
C978   H983    1.083   .     S
C979   H984    1.068   .     S
C979   C1132   1.391   1_455 S
C980   C981    1.395   .     A
C980   H985    1.078   .     S
C980   C1055   1.391   .     S
C981   H986    1.079   .     S
C981   C1058   1.391   .     S
C982   C1133   1.391   1_455 S
C982   H1215   1.084   .     S
C989   O1034   1.296   .     A
C989   O1035   1.305   .     A
C989   C1005   1.465   .     S
C990   C991    1.423   .     A
C990   C308    1.426   1_556 S
C990   C332    1.415   1_556 S
C991   C995    1.407   .     A
C991   C998    1.413   .     A
C992   C996    1.411   .     A
C993   C994    1.393   .     A
C993   C308    1.414   1_556 S
C993   C328    1.389   1_556 S
C994   C995    1.380   .     A
C994   H1024   1.084   .     S
C995   H1030   1.083   .     S
C996   C1013   1.410   .     A
C996   H1026   1.078   .     S
C997   C1013   1.421   .     A
C997   C1012   1.399   .     A
C997   C1042   1.479   .     S
C998   C1014   1.400   .     A
C998   C1000   1.469   .     S
C999   H1031   1.077   .     S
C999   C1005   1.402   .     A
C999   C1229   1.387   .     S
C1000  O1036   1.301   .     A
C1000  O1037   1.299   .     A
C1001  H1019   1.083   .     S
C1001  C1002   1.394   .     A
C1002  C1003   1.391   .     A
C1002  C1010   1.446   .     S
C1003  H1020   1.086   .     S
C1004  C1005   1.418   .     A
C1004  C1053   1.473   .     S
C1004  C1231   1.386   .     S
C1006  N1033   1.369   .     A
C1006  H1021   1.082   .     S
C1006  C1083   1.423   .     S
C1007  N1032   1.369   .     A
C1007  H1022   1.082   .     S
C1008  H1023   1.082   .     S
C1008  N1032   1.362   .     A
C1009  Cl1064  1.753   .     S
C1009  N1033   1.378   .     A
C1009  C1084   1.417   .     S
C1010  O1038   1.295   .     A
C1010  O1039   1.297   .     A
C1011  O1041   1.308   .     A
C1011  O1040   1.303   .     A
C1011  C1013   1.487   .     S
C1014  C1015   1.390   .     A
C1014  H1027   1.084   .     S
C1015  H1029   1.083   .     S
C1015  C332    1.394   1_556 S
C1016  H1028   1.078   .     S
Cu1017 O1038   1.964   .     S
Cu1017 O1036   1.951   .     S
Cu1017 Cu1018  2.697   .     S
Cu1017 N1032   2.027   .     S
Cu1017 O1034   1.977   .     S
Cu1017 O1040   1.933   .     S
Cu1018 O1039   1.977   .     S
Cu1018 N1033   2.027   .     S
Cu1018 O1041   1.951   .     S
Cu1018 O1035   1.964   .     S
Cu1018 O1037   1.933   .     S
H1025  C328    1.085   1_556 S
C1042  C1047   1.401   .     A
C1042  C1043   1.410   .     A
C1043  H1048   1.083   .     S
C1043  C1120   1.398   .     S
C1044  C1045   1.396   .     A
C1044  H1049   1.082   .     S
C1045  C1046   1.396   .     A
C1045  H1050   1.082   .     S
C1046  H1051   1.078   .     S
C1047  H1052   1.081   .     S
C1047  C1122   1.396   .     S
C1053  C1058   1.407   .     A
C1053  C1054   1.401   .     A
C1054  C1055   1.394   .     A
C1054  H1059   1.083   .     S
C1055  H1060   1.068   .     S
C1056  C1057   1.395   .     A
C1056  H1061   1.078   .     S
C1056  C1131   1.391   .     S
C1057  H1062   1.079   .     S
C1057  C1134   1.391   .     S
C1058  H1291   1.084   .     S
C1065  O1110   1.296   .     A
C1065  O1111   1.305   .     A
C1065  C1081   1.465   .     S
C1066  C1067   1.423   .     A
C1066  C384    1.426   1_556 S
C1066  C408    1.415   1_556 S
C1067  C1071   1.407   .     A
C1067  C1074   1.413   .     A
C1068  C1072   1.411   .     A
C1069  C1070   1.393   .     A
C1069  C384    1.414   1_556 S
C1069  C404    1.389   1_556 S
C1070  C1071   1.380   .     A
C1070  H1100   1.084   .     S
C1071  H1106   1.083   .     S
C1072  C1089   1.410   .     A
C1072  H1102   1.078   .     S
C1073  C1089   1.421   .     A
C1073  C1088   1.399   .     A
C1073  C1118   1.479   .     S
C1074  C1090   1.400   .     A
C1074  C1076   1.469   .     S
C1075  H1107   1.077   .     S
C1075  C1081   1.402   .     A
C1075  C1305   1.387   .     S
C1076  O1112   1.301   .     A
C1076  O1113   1.299   .     A
C1077  H1095   1.083   .     S
C1077  C1078   1.394   .     A
C1078  C1079   1.391   .     A
C1078  C1086   1.446   .     S
C1079  H1096   1.086   .     S
C1080  C1081   1.418   .     A
C1080  C1129   1.473   .     S
C1080  C1307   1.386   .     S
C1082  N1109   1.369   .     A
C1082  H1097   1.082   .     S
C1082  C931    1.423   1_655 S
C1083  N1108   1.369   .     A
C1083  H1098   1.082   .     S
C1084  H1099   1.082   .     S
C1084  N1108   1.362   .     A
C1085  Cl1140  1.753   .     S
C1085  N1109   1.378   .     A
C1085  C932    1.417   1_655 S
C1086  O1114   1.295   .     A
C1086  O1115   1.297   .     A
C1087  O1117   1.308   .     A
C1087  O1116   1.303   .     A
C1087  C1089   1.487   .     S
C1090  C1091   1.390   .     A
C1090  H1103   1.084   .     S
C1091  H1105   1.083   .     S
C1091  C408    1.394   1_556 S
C1092  H1104   1.078   .     S
Cu1093 O1114   1.964   .     S
Cu1093 O1112   1.951   .     S
Cu1093 Cu1094  2.697   .     S
Cu1093 N1108   2.027   .     S
Cu1093 O1110   1.977   .     S
Cu1093 O1116   1.933   .     S
Cu1094 O1115   1.977   .     S
Cu1094 N1109   2.027   .     S
Cu1094 O1117   1.951   .     S
Cu1094 O1111   1.964   .     S
Cu1094 O1113   1.933   .     S
H1101  C404    1.085   1_556 S
C1118  C1123   1.401   .     A
C1118  C1119   1.410   .     A
C1119  H1124   1.083   .     S
C1119  C968    1.398   1_655 S
C1120  C1121   1.396   .     A
C1120  H1125   1.082   .     S
C1121  C1122   1.396   .     A
C1121  H1126   1.082   .     S
C1122  H1127   1.078   .     S
C1123  H1128   1.081   .     S
C1123  C970    1.396   1_655 S
C1129  C1134   1.407   .     A
C1129  C1130   1.401   .     A
C1130  C1131   1.394   .     A
C1130  H1135   1.083   .     S
C1131  H1136   1.068   .     S
C1132  C1133   1.395   .     A
C1132  H1137   1.078   .     S
C1132  C979    1.391   1_655 S
C1133  H1138   1.079   .     S
C1133  C982    1.391   1_655 S
C1134  H1367   1.084   .     S
C1141  O1186   1.296   .     A
C1141  O1187   1.305   .     A
C1141  C1157   1.465   .     S
C1142  C1143   1.423   .     A
C1142  C460    1.426   1_556 S
C1142  C484    1.415   1_556 S
C1143  C1147   1.407   .     A
C1143  C1150   1.413   .     A
C1144  C1148   1.411   .     A
C1145  C1146   1.393   .     A
C1145  C460    1.414   1_556 S
C1145  C480    1.389   1_556 S
C1146  C1147   1.380   .     A
C1146  H1176   1.084   .     S
C1147  H1182   1.083   .     S
C1148  C1165   1.410   .     A
C1148  H1178   1.078   .     S
C1149  C1165   1.421   .     A
C1149  C1164   1.399   .     A
C1149  C1194   1.479   .     S
C1150  C1166   1.400   .     A
C1150  C1152   1.469   .     S
C1151  H1183   1.077   .     S
C1151  C1157   1.402   .     A
C1151  C697    1.387   1_565 S
C1152  O1188   1.301   .     A
C1152  O1189   1.299   .     A
C1153  H1171   1.083   .     S
C1153  C1154   1.394   .     A
C1154  C1155   1.391   .     A
C1154  C1162   1.446   .     S
C1155  H1172   1.086   .     S
C1156  C1157   1.418   .     A
C1156  C1205   1.473   .     S
C1156  C699    1.386   1_565 S
C1158  N1185   1.369   .     A
C1158  H1173   1.082   .     S
C1158  C1235   1.423   .     S
C1159  N1184   1.369   .     A
C1159  H1174   1.082   .     S
C1159  C1310   1.423   1_455 S
C1160  H1175   1.082   .     S
C1160  N1184   1.362   .     A
C1160  C1313   1.417   1_455 S
C1161  Cl1216  1.753   .     S
C1161  N1185   1.378   .     A
C1161  C1236   1.417   .     S
C1162  O1190   1.295   .     A
C1162  O1191   1.297   .     A
C1163  O1193   1.308   .     A
C1163  O1192   1.303   .     A
C1163  C1165   1.487   .     S
C1166  C1167   1.390   .     A
C1166  H1179   1.084   .     S
C1167  H1181   1.083   .     S
C1167  C484    1.394   1_556 S
C1168  H1180   1.078   .     S
Cu1169 O1190   1.964   .     S
Cu1169 O1188   1.951   .     S
Cu1169 Cu1170  2.697   .     S
Cu1169 N1184   2.027   .     S
Cu1169 O1186   1.977   .     S
Cu1169 O1192   1.933   .     S
Cu1170 O1191   1.977   .     S
Cu1170 N1185   2.027   .     S
Cu1170 O1193   1.951   .     S
Cu1170 O1187   1.964   .     S
Cu1170 O1189   1.933   .     S
H1177  C480    1.085   1_556 S
C1194  C1199   1.401   .     A
C1194  C1195   1.410   .     A
C1195  H1200   1.083   .     S
C1195  C1272   1.398   .     S
C1196  C1197   1.396   .     A
C1196  H1201   1.082   .     S
C1196  C1347   1.398   1_455 S
C1197  C1198   1.396   .     A
C1197  H1202   1.082   .     S
C1198  H1203   1.078   .     S
C1198  C1351   1.396   1_455 S
C1199  H1204   1.081   .     S
C1199  C1274   1.396   .     S
C1205  C1210   1.407   .     A
C1205  C1206   1.401   .     A
C1206  C1207   1.394   .     A
C1206  H1211   1.083   .     S
C1207  H1212   1.068   .     S
C1207  C1360   1.391   1_455 S
C1208  C1209   1.395   .     A
C1208  H1213   1.078   .     S
C1208  C1283   1.391   .     S
C1209  H1214   1.079   .     S
C1209  C1286   1.391   .     S
C1210  C1361   1.391   1_455 S
C1210  H759    1.084   1_565 S
C1217  O1262   1.296   .     A
C1217  O1263   1.305   .     A
C1217  C1233   1.465   .     S
C1218  C1219   1.423   .     A
C1218  C536    1.426   1_556 S
C1218  C560    1.415   1_556 S
C1219  C1223   1.407   .     A
C1219  C1226   1.413   .     A
C1220  C1224   1.411   .     A
C1221  C1222   1.393   .     A
C1221  C536    1.414   1_556 S
C1221  C556    1.389   1_556 S
C1222  C1223   1.380   .     A
C1222  H1252   1.084   .     S
C1223  H1258   1.083   .     S
C1224  C1241   1.410   .     A
C1224  H1254   1.078   .     S
C1225  C1241   1.421   .     A
C1225  C1240   1.399   .     A
C1225  C1270   1.479   .     S
C1226  C1242   1.400   .     A
C1226  C1228   1.469   .     S
C1227  H1259   1.077   .     S
C1227  C1233   1.402   .     A
C1227  C773    1.387   1_565 S
C1228  O1264   1.301   .     A
C1228  O1265   1.299   .     A
C1229  H1247   1.083   .     S
C1229  C1230   1.394   .     A
C1230  C1231   1.391   .     A
C1230  C1238   1.446   .     S
C1231  H1248   1.086   .     S
C1232  C1233   1.418   .     A
C1232  C1281   1.473   .     S
C1232  C775    1.386   1_565 S
C1234  N1261   1.369   .     A
C1234  H1249   1.082   .     S
C1234  C1311   1.423   .     S
C1235  N1260   1.369   .     A
C1235  H1250   1.082   .     S
C1236  H1251   1.082   .     S
C1236  N1260   1.362   .     A
C1237  Cl1292  1.753   .     S
C1237  N1261   1.378   .     A
C1237  C1312   1.417   .     S
C1238  O1266   1.295   .     A
C1238  O1267   1.297   .     A
C1239  O1269   1.308   .     A
C1239  O1268   1.303   .     A
C1239  C1241   1.487   .     S
C1242  C1243   1.390   .     A
C1242  H1255   1.084   .     S
C1243  H1257   1.083   .     S
C1243  C560    1.394   1_556 S
C1244  H1256   1.078   .     S
Cu1245 O1266   1.964   .     S
Cu1245 O1264   1.951   .     S
Cu1245 Cu1246  2.697   .     S
Cu1245 N1260   2.027   .     S
Cu1245 O1262   1.977   .     S
Cu1245 O1268   1.933   .     S
Cu1246 O1267   1.977   .     S
Cu1246 N1261   2.027   .     S
Cu1246 O1269   1.951   .     S
Cu1246 O1263   1.964   .     S
Cu1246 O1265   1.933   .     S
H1253  C556    1.085   1_556 S
C1270  C1275   1.401   .     A
C1270  C1271   1.410   .     A
C1271  H1276   1.083   .     S
C1271  C1348   1.398   .     S
C1272  C1273   1.396   .     A
C1272  H1277   1.082   .     S
C1273  C1274   1.396   .     A
C1273  H1278   1.082   .     S
C1274  H1279   1.078   .     S
C1275  H1280   1.081   .     S
C1275  C1350   1.396   .     S
C1281  C1286   1.407   .     A
C1281  C1282   1.401   .     A
C1282  C1283   1.394   .     A
C1282  H1287   1.083   .     S
C1283  H1288   1.068   .     S
C1284  C1285   1.395   .     A
C1284  H1289   1.078   .     S
C1284  C1359   1.391   .     S
C1285  H1290   1.079   .     S
C1285  C1362   1.391   .     S
C1286  H835    1.084   1_565 S
C1293  O1338   1.296   .     A
C1293  O1339   1.305   .     A
C1293  C1309   1.465   .     S
C1294  C1295   1.423   .     A
C1294  C612    1.426   1_556 S
C1294  C636    1.415   1_556 S
C1295  C1299   1.407   .     A
C1295  C1302   1.413   .     A
C1296  C1300   1.411   .     A
C1297  C1298   1.393   .     A
C1297  C612    1.414   1_556 S
C1297  C632    1.389   1_556 S
C1298  C1299   1.380   .     A
C1298  H1328   1.084   .     S
C1299  H1334   1.083   .     S
C1300  C1317   1.410   .     A
C1300  H1330   1.078   .     S
C1301  C1317   1.421   .     A
C1301  C1316   1.399   .     A
C1301  C1346   1.479   .     S
C1302  C1318   1.400   .     A
C1302  C1304   1.469   .     S
C1303  H1335   1.077   .     S
C1303  C1309   1.402   .     A
C1303  C849    1.387   1_565 S
C1304  O1340   1.301   .     A
C1304  O1341   1.299   .     A
C1305  H1323   1.083   .     S
C1305  C1306   1.394   .     A
C1306  C1307   1.391   .     A
C1306  C1314   1.446   .     S
C1307  H1324   1.086   .     S
C1308  C1309   1.418   .     A
C1308  C1357   1.473   .     S
C1308  C851    1.386   1_565 S
C1310  N1337   1.369   .     A
C1310  H1325   1.082   .     S
C1310  C1159   1.423   1_655 S
C1311  N1336   1.369   .     A
C1311  H1326   1.082   .     S
C1312  H1327   1.082   .     S
C1312  N1336   1.362   .     A
C1313  Cl1368  1.753   .     S
C1313  N1337   1.378   .     A
C1313  C1160   1.417   1_655 S
C1314  O1342   1.295   .     A
C1314  O1343   1.297   .     A
C1315  O1345   1.308   .     A
C1315  O1344   1.303   .     A
C1315  C1317   1.487   .     S
C1318  C1319   1.390   .     A
C1318  H1331   1.084   .     S
C1319  H1333   1.083   .     S
C1319  C636    1.394   1_556 S
C1320  H1332   1.078   .     S
Cu1321 O1342   1.964   .     S
Cu1321 O1340   1.951   .     S
Cu1321 Cu1322  2.697   .     S
Cu1321 N1336   2.027   .     S
Cu1321 O1338   1.977   .     S
Cu1321 O1344   1.933   .     S
Cu1322 O1343   1.977   .     S
Cu1322 N1337   2.027   .     S
Cu1322 O1345   1.951   .     S
Cu1322 O1339   1.964   .     S
Cu1322 O1341   1.933   .     S
H1329  C632    1.085   1_556 S
C1346  C1351   1.401   .     A
C1346  C1347   1.410   .     A
C1347  H1352   1.083   .     S
C1347  C1196   1.398   1_655 S
C1348  C1349   1.396   .     A
C1348  H1353   1.082   .     S
C1349  C1350   1.396   .     A
C1349  H1354   1.082   .     S
C1350  H1355   1.078   .     S
C1351  H1356   1.081   .     S
C1351  C1198   1.396   1_655 S
C1357  C1362   1.407   .     A
C1357  C1358   1.401   .     A
C1358  C1359   1.394   .     A
C1358  H1363   1.083   .     S
C1359  H1364   1.068   .     S
C1360  C1361   1.395   .     A
C1360  H1365   1.078   .     S
C1360  C1207   1.391   1_655 S
C1361  H1366   1.079   .     S
C1361  C1210   1.391   1_655 S
C1362  H911    1.084   1_565 S
