data_str_m2_o2_o10_pcu_sym.103
_audit_creation_date              2020-01-03
_audit_creation_method            'Materials Studio'
_symmetry_space_group_name_H-M    'P1'
_symmetry_Int_Tables_number       1
_symmetry_cell_setting            triclinic
loop_
_symmetry_equiv_pos_as_xyz
  x,y,z
_cell_length_a                    26.1839
_cell_length_b                    30.2922
_cell_length_c                    27.8564
_cell_angle_alpha                 90.1586
_cell_angle_beta                  97.5281
_cell_angle_gamma                 91.0052
loop_
_atom_site_label
_atom_site_type_symbol
_atom_site_fract_x
_atom_site_fract_y
_atom_site_fract_z
_atom_site_U_iso_or_equiv
_atom_site_adp_type
_atom_site_occupancy
C1     C     0.16556   0.16493   0.24968   0.00000  Uiso   1.00
C2     C     0.19465   0.28240   0.44910   0.00000  Uiso   1.00
C3     C     0.16563   0.25060   0.02720   0.00000  Uiso   1.00
C4     C     0.16596   0.25090   0.47254   0.00000  Uiso   1.00
C5     C     0.06799   0.24981   0.23767   0.00000  Uiso   1.00
C6     C     0.26535   0.25001   0.26234   0.00000  Uiso   1.00
C7     C     0.01279   0.24941   0.23086   0.00000  Uiso   1.00
C8     C     0.32057   0.25011   0.26918   0.00000  Uiso   1.00
C9     C     0.18636   0.04833   0.29185   0.00000  Uiso   1.00
C10    C     0.18554   0.45247   0.21323   0.00000  Uiso   1.00
C11    C     0.18518   0.09418   0.29130   0.00000  Uiso   1.00
C12    C     0.16563   0.33505   0.25010   0.00000  Uiso   1.00
C13    C     0.18429   0.40661   0.21321   0.00000  Uiso   1.00
C14    C     0.16486   0.11652   0.24918   0.00000  Uiso   1.00
C15    C     0.16491   0.38345   0.25069   0.00000  Uiso   1.00
C16    C     0.14478   0.09197   0.20743   0.00000  Uiso   1.00
C17    C     0.14590   0.40721   0.28826   0.00000  Uiso   1.00
C18    C     0.14663   0.04611   0.20826   0.00000  Uiso   1.00
C19    C     0.14779   0.45315   0.28812   0.00000  Uiso   1.00
C20    C     0.16740   0.02417   0.25022   0.00000  Uiso   1.00
C21    C     0.16754   0.47589   0.25081   0.00000  Uiso   1.00
C22    C     0.20308   0.27430   0.05825   0.00000  Uiso   1.00
C23    C     0.13738   0.21939   0.44255   0.00000  Uiso   1.00
C24    C     0.20229   0.27472   0.10850   0.00000  Uiso   1.00
C25    C     0.13701   0.22002   0.39217   0.00000  Uiso   1.00
C26    C     0.12979   0.22659   0.10034   0.00000  Uiso   1.00
C27    C     0.19507   0.28091   0.39860   0.00000  Uiso   1.00
C28    C     0.12810   0.22691   0.04958   0.00000  Uiso   1.00
Cl29   Cl    0.11420   0.11626   0.15406   0.00000  Uiso   1.00
Cl30   Cl    0.11667   0.38174   0.33490   0.00000  Uiso   1.00
Cl31   Cl    0.24719   0.30999   0.14258   0.00000  Uiso   1.00
Cl32   Cl    0.09544   0.18195   0.35830   0.00000  Uiso   1.00
Cu33   Cu    0.16667   0.25000   0.29822   0.00000  Uiso   1.00
Cu34   Cu    0.16667   0.25001   0.20179   0.00000  Uiso   1.00
H35    H     0.32644   0.24849   0.19400   0.00000  Uiso   1.00
H36    H     0.11499   0.19385   0.45746   0.00000  Uiso   1.00
H37    H     0.10076   0.20810   0.11643   0.00000  Uiso   1.00
H38    H     0.21769   0.30511   0.38169   0.00000  Uiso   1.00
H39    H     0.09680   0.20898   0.02865   0.00000  Uiso   1.00
H40    H     0.21644   0.30872   0.46888   0.00000  Uiso   1.00
H41    H     0.00696   0.25087   0.30605   0.00000  Uiso   1.00
H42    H     0.20255   0.03169   0.32458   0.00000  Uiso   1.00
H43    H     0.20095   0.46972   0.18413   0.00000  Uiso   1.00
H44    H     0.20076   0.11219   0.32374   0.00000  Uiso   1.00
H45    H     0.19905   0.38927   0.18405   0.00000  Uiso   1.00
H46    H     0.13064   0.02743   0.17640   0.00000  Uiso   1.00
H47    H     0.13258   0.47123   0.31657   0.00000  Uiso   1.00
H48    H     0.23340   0.29288   0.04431   0.00000  Uiso   1.00
N49    N     0.16667   0.25001   0.12935   0.00000  Uiso   1.00
N50    N     0.16667   0.24999   0.37066   0.00000  Uiso   1.00
O51    O     0.16667   0.18573   0.29072   0.00000  Uiso   1.00
O52    O     0.16666   0.31428   0.20929   0.00000  Uiso   1.00
O53    O     0.16667   0.18573   0.20928   0.00000  Uiso   1.00
O54    O     0.16666   0.31427   0.29072   0.00000  Uiso   1.00
O55    O     0.09161   0.25000   0.28132   0.00000  Uiso   1.00
O56    O     0.24172   0.25001   0.21868   0.00000  Uiso   1.00
O57    O     0.09161   0.25000   0.19989   0.00000  Uiso   1.00
O58    O     0.24172   0.25000   0.30012   0.00000  Uiso   1.00
C59    C     0.49889   0.16493   0.24968   0.00000  Uiso   1.00
C60    C     0.52798   0.28240   0.44910   0.00000  Uiso   1.00
C61    C     0.49896   0.25060   0.02720   0.00000  Uiso   1.00
C62    C     0.49929   0.25090   0.47254   0.00000  Uiso   1.00
C63    C     0.40133   0.24981   0.23767   0.00000  Uiso   1.00
C64    C     0.59868   0.25001   0.26234   0.00000  Uiso   1.00
C65    C     0.34612   0.24941   0.23086   0.00000  Uiso   1.00
C66    C     0.65390   0.25011   0.26918   0.00000  Uiso   1.00
C67    C     0.51969   0.04833   0.29185   0.00000  Uiso   1.00
C68    C     0.51888   0.45247   0.21323   0.00000  Uiso   1.00
C69    C     0.51851   0.09418   0.29130   0.00000  Uiso   1.00
C70    C     0.49897   0.33505   0.25010   0.00000  Uiso   1.00
C71    C     0.51763   0.40661   0.21321   0.00000  Uiso   1.00
C72    C     0.49819   0.11652   0.24918   0.00000  Uiso   1.00
C73    C     0.49825   0.38345   0.25069   0.00000  Uiso   1.00
C74    C     0.47811   0.09197   0.20743   0.00000  Uiso   1.00
C75    C     0.47923   0.40721   0.28826   0.00000  Uiso   1.00
C76    C     0.47996   0.04611   0.20826   0.00000  Uiso   1.00
C77    C     0.48112   0.45315   0.28812   0.00000  Uiso   1.00
C78    C     0.50073   0.02417   0.25022   0.00000  Uiso   1.00
C79    C     0.50087   0.47589   0.25081   0.00000  Uiso   1.00
C80    C     0.53641   0.27430   0.05825   0.00000  Uiso   1.00
C81    C     0.47072   0.21939   0.44255   0.00000  Uiso   1.00
C82    C     0.53562   0.27472   0.10850   0.00000  Uiso   1.00
C83    C     0.47035   0.22002   0.39217   0.00000  Uiso   1.00
C84    C     0.46313   0.22659   0.10034   0.00000  Uiso   1.00
C85    C     0.52840   0.28091   0.39860   0.00000  Uiso   1.00
C86    C     0.46144   0.22691   0.04958   0.00000  Uiso   1.00
Cl87   Cl    0.44753   0.11626   0.15406   0.00000  Uiso   1.00
Cl88   Cl    0.45001   0.38174   0.33490   0.00000  Uiso   1.00
Cl89   Cl    0.58052   0.30999   0.14258   0.00000  Uiso   1.00
Cl90   Cl    0.42877   0.18195   0.35830   0.00000  Uiso   1.00
Cu91   Cu    0.50000   0.25000   0.29822   0.00000  Uiso   1.00
Cu92   Cu    0.50000   0.25001   0.20179   0.00000  Uiso   1.00
H93    H     0.65977   0.24849   0.19400   0.00000  Uiso   1.00
H94    H     0.44832   0.19385   0.45746   0.00000  Uiso   1.00
H95    H     0.43409   0.20810   0.11643   0.00000  Uiso   1.00
H96    H     0.55103   0.30511   0.38169   0.00000  Uiso   1.00
H97    H     0.43013   0.20898   0.02865   0.00000  Uiso   1.00
H98    H     0.54978   0.30872   0.46888   0.00000  Uiso   1.00
H99    H     0.34029   0.25087   0.30605   0.00000  Uiso   1.00
H100   H     0.53588   0.03169   0.32458   0.00000  Uiso   1.00
H101   H     0.53429   0.46972   0.18413   0.00000  Uiso   1.00
H102   H     0.53410   0.11219   0.32374   0.00000  Uiso   1.00
H103   H     0.53239   0.38927   0.18405   0.00000  Uiso   1.00
H104   H     0.46397   0.02743   0.17640   0.00000  Uiso   1.00
H105   H     0.46591   0.47123   0.31657   0.00000  Uiso   1.00
H106   H     0.56673   0.29288   0.04431   0.00000  Uiso   1.00
N107   N     0.50000   0.25001   0.12935   0.00000  Uiso   1.00
N108   N     0.50000   0.24999   0.37066   0.00000  Uiso   1.00
O109   O     0.50000   0.18573   0.29072   0.00000  Uiso   1.00
O110   O     0.50000   0.31428   0.20929   0.00000  Uiso   1.00
O111   O     0.50000   0.18573   0.20928   0.00000  Uiso   1.00
O112   O     0.50000   0.31427   0.29072   0.00000  Uiso   1.00
O113   O     0.42495   0.25000   0.28132   0.00000  Uiso   1.00
O114   O     0.57505   0.25001   0.21868   0.00000  Uiso   1.00
O115   O     0.42495   0.25000   0.19989   0.00000  Uiso   1.00
O116   O     0.57505   0.25000   0.30012   0.00000  Uiso   1.00
C117   C     0.83223   0.16493   0.24968   0.00000  Uiso   1.00
C118   C     0.86132   0.28240   0.44910   0.00000  Uiso   1.00
C119   C     0.83230   0.25060   0.02720   0.00000  Uiso   1.00
C120   C     0.83262   0.25090   0.47254   0.00000  Uiso   1.00
C121   C     0.73466   0.24981   0.23767   0.00000  Uiso   1.00
C122   C     0.93201   0.25001   0.26234   0.00000  Uiso   1.00
C123   C     0.67946   0.24941   0.23086   0.00000  Uiso   1.00
C124   C     0.98724   0.25011   0.26918   0.00000  Uiso   1.00
C125   C     0.85303   0.04833   0.29185   0.00000  Uiso   1.00
C126   C     0.85221   0.45247   0.21323   0.00000  Uiso   1.00
C127   C     0.85184   0.09418   0.29130   0.00000  Uiso   1.00
C128   C     0.83230   0.33505   0.25010   0.00000  Uiso   1.00
C129   C     0.85096   0.40661   0.21321   0.00000  Uiso   1.00
C130   C     0.83152   0.11652   0.24918   0.00000  Uiso   1.00
C131   C     0.83158   0.38345   0.25069   0.00000  Uiso   1.00
C132   C     0.81144   0.09197   0.20743   0.00000  Uiso   1.00
C133   C     0.81256   0.40721   0.28826   0.00000  Uiso   1.00
C134   C     0.81329   0.04611   0.20826   0.00000  Uiso   1.00
C135   C     0.81445   0.45315   0.28812   0.00000  Uiso   1.00
C136   C     0.83407   0.02417   0.25022   0.00000  Uiso   1.00
C137   C     0.83420   0.47589   0.25081   0.00000  Uiso   1.00
C138   C     0.86974   0.27430   0.05825   0.00000  Uiso   1.00
C139   C     0.80405   0.21939   0.44255   0.00000  Uiso   1.00
C140   C     0.86895   0.27472   0.10850   0.00000  Uiso   1.00
C141   C     0.80368   0.22002   0.39217   0.00000  Uiso   1.00
C142   C     0.79646   0.22659   0.10034   0.00000  Uiso   1.00
C143   C     0.86174   0.28091   0.39860   0.00000  Uiso   1.00
C144   C     0.79477   0.22691   0.04958   0.00000  Uiso   1.00
Cl145  Cl    0.78087   0.11626   0.15406   0.00000  Uiso   1.00
Cl146  Cl    0.78334   0.38174   0.33490   0.00000  Uiso   1.00
Cl147  Cl    0.91385   0.30999   0.14258   0.00000  Uiso   1.00
Cl148  Cl    0.76210   0.18195   0.35830   0.00000  Uiso   1.00
Cu149  Cu    0.83333   0.25000   0.29822   0.00000  Uiso   1.00
Cu150  Cu    0.83333   0.25001   0.20179   0.00000  Uiso   1.00
H151   H     0.99311   0.24849   0.19400   0.00000  Uiso   1.00
H152   H     0.78166   0.19385   0.45746   0.00000  Uiso   1.00
H153   H     0.76742   0.20810   0.11643   0.00000  Uiso   1.00
H154   H     0.88436   0.30511   0.38169   0.00000  Uiso   1.00
H155   H     0.76346   0.20898   0.02865   0.00000  Uiso   1.00
H156   H     0.88311   0.30872   0.46888   0.00000  Uiso   1.00
H157   H     0.67363   0.25087   0.30605   0.00000  Uiso   1.00
H158   H     0.86921   0.03169   0.32458   0.00000  Uiso   1.00
H159   H     0.86762   0.46972   0.18413   0.00000  Uiso   1.00
H160   H     0.86743   0.11219   0.32374   0.00000  Uiso   1.00
H161   H     0.86572   0.38927   0.18405   0.00000  Uiso   1.00
H162   H     0.79731   0.02743   0.17640   0.00000  Uiso   1.00
H163   H     0.79924   0.47123   0.31657   0.00000  Uiso   1.00
H164   H     0.90006   0.29288   0.04431   0.00000  Uiso   1.00
N165   N     0.83333   0.25001   0.12935   0.00000  Uiso   1.00
N166   N     0.83333   0.24999   0.37066   0.00000  Uiso   1.00
O167   O     0.83334   0.18573   0.29072   0.00000  Uiso   1.00
O168   O     0.83333   0.31428   0.20929   0.00000  Uiso   1.00
O169   O     0.83334   0.18573   0.20928   0.00000  Uiso   1.00
O170   O     0.83333   0.31427   0.29072   0.00000  Uiso   1.00
O171   O     0.75828   0.25000   0.28132   0.00000  Uiso   1.00
O172   O     0.90839   0.25001   0.21868   0.00000  Uiso   1.00
O173   O     0.75828   0.25000   0.19989   0.00000  Uiso   1.00
O174   O     0.90839   0.25000   0.30012   0.00000  Uiso   1.00
C175   C     0.16556   0.66493   0.24968   0.00000  Uiso   1.00
C176   C     0.19465   0.78240   0.44910   0.00000  Uiso   1.00
C177   C     0.16563   0.75060   0.02720   0.00000  Uiso   1.00
C178   C     0.16596   0.75090   0.47254   0.00000  Uiso   1.00
C179   C     0.06799   0.74981   0.23767   0.00000  Uiso   1.00
C180   C     0.26535   0.75001   0.26234   0.00000  Uiso   1.00
C181   C     0.01279   0.74941   0.23086   0.00000  Uiso   1.00
C182   C     0.32057   0.75011   0.26918   0.00000  Uiso   1.00
C183   C     0.18636   0.54833   0.29185   0.00000  Uiso   1.00
C184   C     0.18554   0.95247   0.21323   0.00000  Uiso   1.00
C185   C     0.18518   0.59418   0.29130   0.00000  Uiso   1.00
C186   C     0.16563   0.83505   0.25010   0.00000  Uiso   1.00
C187   C     0.18429   0.90661   0.21321   0.00000  Uiso   1.00
C188   C     0.16486   0.61652   0.24918   0.00000  Uiso   1.00
C189   C     0.16491   0.88345   0.25069   0.00000  Uiso   1.00
C190   C     0.14478   0.59197   0.20743   0.00000  Uiso   1.00
C191   C     0.14590   0.90721   0.28826   0.00000  Uiso   1.00
C192   C     0.14663   0.54611   0.20826   0.00000  Uiso   1.00
C193   C     0.14779   0.95315   0.28812   0.00000  Uiso   1.00
C194   C     0.16740   0.52417   0.25022   0.00000  Uiso   1.00
C195   C     0.16754   0.97589   0.25081   0.00000  Uiso   1.00
C196   C     0.20308   0.77430   0.05825   0.00000  Uiso   1.00
C197   C     0.13738   0.71939   0.44255   0.00000  Uiso   1.00
C198   C     0.20229   0.77472   0.10850   0.00000  Uiso   1.00
C199   C     0.13701   0.72002   0.39217   0.00000  Uiso   1.00
C200   C     0.12979   0.72659   0.10034   0.00000  Uiso   1.00
C201   C     0.19507   0.78091   0.39860   0.00000  Uiso   1.00
C202   C     0.12810   0.72691   0.04958   0.00000  Uiso   1.00
Cl203  Cl    0.11420   0.61626   0.15406   0.00000  Uiso   1.00
Cl204  Cl    0.11667   0.88174   0.33490   0.00000  Uiso   1.00
Cl205  Cl    0.24719   0.80999   0.14258   0.00000  Uiso   1.00
Cl206  Cl    0.09544   0.68195   0.35830   0.00000  Uiso   1.00
Cu207  Cu    0.16667   0.75000   0.29822   0.00000  Uiso   1.00
Cu208  Cu    0.16667   0.75001   0.20179   0.00000  Uiso   1.00
H209   H     0.32644   0.74849   0.19400   0.00000  Uiso   1.00
H210   H     0.11499   0.69385   0.45746   0.00000  Uiso   1.00
H211   H     0.10076   0.70810   0.11643   0.00000  Uiso   1.00
H212   H     0.21769   0.80511   0.38169   0.00000  Uiso   1.00
H213   H     0.09680   0.70898   0.02865   0.00000  Uiso   1.00
H214   H     0.21644   0.80872   0.46888   0.00000  Uiso   1.00
H215   H     0.00696   0.75087   0.30605   0.00000  Uiso   1.00
H216   H     0.20255   0.53169   0.32458   0.00000  Uiso   1.00
H217   H     0.20095   0.96972   0.18413   0.00000  Uiso   1.00
H218   H     0.20076   0.61219   0.32374   0.00000  Uiso   1.00
H219   H     0.19905   0.88927   0.18405   0.00000  Uiso   1.00
H220   H     0.13064   0.52743   0.17640   0.00000  Uiso   1.00
H221   H     0.13258   0.97123   0.31657   0.00000  Uiso   1.00
H222   H     0.23340   0.79288   0.04431   0.00000  Uiso   1.00
N223   N     0.16667   0.75001   0.12935   0.00000  Uiso   1.00
N224   N     0.16667   0.74999   0.37066   0.00000  Uiso   1.00
O225   O     0.16667   0.68573   0.29072   0.00000  Uiso   1.00
O226   O     0.16666   0.81428   0.20929   0.00000  Uiso   1.00
O227   O     0.16667   0.68573   0.20928   0.00000  Uiso   1.00
O228   O     0.16666   0.81427   0.29072   0.00000  Uiso   1.00
O229   O     0.09161   0.75000   0.28132   0.00000  Uiso   1.00
O230   O     0.24172   0.75001   0.21868   0.00000  Uiso   1.00
O231   O     0.09161   0.75000   0.19989   0.00000  Uiso   1.00
O232   O     0.24172   0.75000   0.30012   0.00000  Uiso   1.00
C233   C     0.49889   0.66493   0.24968   0.00000  Uiso   1.00
C234   C     0.52798   0.78240   0.44910   0.00000  Uiso   1.00
C235   C     0.49896   0.75060   0.02720   0.00000  Uiso   1.00
C236   C     0.49929   0.75090   0.47254   0.00000  Uiso   1.00
C237   C     0.40133   0.74981   0.23767   0.00000  Uiso   1.00
C238   C     0.59868   0.75001   0.26234   0.00000  Uiso   1.00
C239   C     0.34612   0.74941   0.23086   0.00000  Uiso   1.00
C240   C     0.65390   0.75011   0.26918   0.00000  Uiso   1.00
C241   C     0.51969   0.54833   0.29185   0.00000  Uiso   1.00
C242   C     0.51888   0.95247   0.21323   0.00000  Uiso   1.00
C243   C     0.51851   0.59418   0.29130   0.00000  Uiso   1.00
C244   C     0.49897   0.83505   0.25010   0.00000  Uiso   1.00
C245   C     0.51763   0.90661   0.21321   0.00000  Uiso   1.00
C246   C     0.49819   0.61652   0.24918   0.00000  Uiso   1.00
C247   C     0.49825   0.88345   0.25069   0.00000  Uiso   1.00
C248   C     0.47811   0.59197   0.20743   0.00000  Uiso   1.00
C249   C     0.47923   0.90721   0.28826   0.00000  Uiso   1.00
C250   C     0.47996   0.54611   0.20826   0.00000  Uiso   1.00
C251   C     0.48112   0.95315   0.28812   0.00000  Uiso   1.00
C252   C     0.50073   0.52417   0.25022   0.00000  Uiso   1.00
C253   C     0.50087   0.97589   0.25081   0.00000  Uiso   1.00
C254   C     0.53641   0.77430   0.05825   0.00000  Uiso   1.00
C255   C     0.47072   0.71939   0.44255   0.00000  Uiso   1.00
C256   C     0.53562   0.77472   0.10850   0.00000  Uiso   1.00
C257   C     0.47035   0.72002   0.39217   0.00000  Uiso   1.00
C258   C     0.46313   0.72659   0.10034   0.00000  Uiso   1.00
C259   C     0.52840   0.78091   0.39860   0.00000  Uiso   1.00
C260   C     0.46144   0.72691   0.04958   0.00000  Uiso   1.00
Cl261  Cl    0.44753   0.61626   0.15406   0.00000  Uiso   1.00
Cl262  Cl    0.45001   0.88174   0.33490   0.00000  Uiso   1.00
Cl263  Cl    0.58052   0.80999   0.14258   0.00000  Uiso   1.00
Cl264  Cl    0.42877   0.68195   0.35830   0.00000  Uiso   1.00
Cu265  Cu    0.50000   0.75000   0.29822   0.00000  Uiso   1.00
Cu266  Cu    0.50000   0.75001   0.20179   0.00000  Uiso   1.00
H267   H     0.65977   0.74849   0.19400   0.00000  Uiso   1.00
H268   H     0.44832   0.69385   0.45746   0.00000  Uiso   1.00
H269   H     0.43409   0.70810   0.11643   0.00000  Uiso   1.00
H270   H     0.55103   0.80511   0.38169   0.00000  Uiso   1.00
H271   H     0.43013   0.70898   0.02865   0.00000  Uiso   1.00
H272   H     0.54978   0.80872   0.46888   0.00000  Uiso   1.00
H273   H     0.34029   0.75087   0.30605   0.00000  Uiso   1.00
H274   H     0.53588   0.53169   0.32458   0.00000  Uiso   1.00
H275   H     0.53429   0.96972   0.18413   0.00000  Uiso   1.00
H276   H     0.53410   0.61219   0.32374   0.00000  Uiso   1.00
H277   H     0.53239   0.88927   0.18405   0.00000  Uiso   1.00
H278   H     0.46397   0.52743   0.17640   0.00000  Uiso   1.00
H279   H     0.46591   0.97123   0.31657   0.00000  Uiso   1.00
H280   H     0.56673   0.79288   0.04431   0.00000  Uiso   1.00
N281   N     0.50000   0.75001   0.12935   0.00000  Uiso   1.00
N282   N     0.50000   0.74999   0.37066   0.00000  Uiso   1.00
O283   O     0.50000   0.68573   0.29072   0.00000  Uiso   1.00
O284   O     0.50000   0.81428   0.20929   0.00000  Uiso   1.00
O285   O     0.50000   0.68573   0.20928   0.00000  Uiso   1.00
O286   O     0.50000   0.81427   0.29072   0.00000  Uiso   1.00
O287   O     0.42495   0.75000   0.28132   0.00000  Uiso   1.00
O288   O     0.57505   0.75001   0.21868   0.00000  Uiso   1.00
O289   O     0.42495   0.75000   0.19989   0.00000  Uiso   1.00
O290   O     0.57505   0.75000   0.30012   0.00000  Uiso   1.00
C291   C     0.83223   0.66493   0.24968   0.00000  Uiso   1.00
C292   C     0.86132   0.78240   0.44910   0.00000  Uiso   1.00
C293   C     0.83230   0.75060   0.02720   0.00000  Uiso   1.00
C294   C     0.83262   0.75090   0.47254   0.00000  Uiso   1.00
C295   C     0.73466   0.74981   0.23767   0.00000  Uiso   1.00
C296   C     0.93201   0.75001   0.26234   0.00000  Uiso   1.00
C297   C     0.67946   0.74941   0.23086   0.00000  Uiso   1.00
C298   C     0.98724   0.75011   0.26918   0.00000  Uiso   1.00
C299   C     0.85303   0.54833   0.29185   0.00000  Uiso   1.00
C300   C     0.85221   0.95247   0.21323   0.00000  Uiso   1.00
C301   C     0.85184   0.59418   0.29130   0.00000  Uiso   1.00
C302   C     0.83230   0.83505   0.25010   0.00000  Uiso   1.00
C303   C     0.85096   0.90661   0.21321   0.00000  Uiso   1.00
C304   C     0.83152   0.61652   0.24918   0.00000  Uiso   1.00
C305   C     0.83158   0.88345   0.25069   0.00000  Uiso   1.00
C306   C     0.81144   0.59197   0.20743   0.00000  Uiso   1.00
C307   C     0.81256   0.90721   0.28826   0.00000  Uiso   1.00
C308   C     0.81329   0.54611   0.20826   0.00000  Uiso   1.00
C309   C     0.81445   0.95315   0.28812   0.00000  Uiso   1.00
C310   C     0.83407   0.52417   0.25022   0.00000  Uiso   1.00
C311   C     0.83420   0.97589   0.25081   0.00000  Uiso   1.00
C312   C     0.86974   0.77430   0.05825   0.00000  Uiso   1.00
C313   C     0.80405   0.71939   0.44255   0.00000  Uiso   1.00
C314   C     0.86895   0.77472   0.10850   0.00000  Uiso   1.00
C315   C     0.80368   0.72002   0.39217   0.00000  Uiso   1.00
C316   C     0.79646   0.72659   0.10034   0.00000  Uiso   1.00
C317   C     0.86174   0.78091   0.39860   0.00000  Uiso   1.00
C318   C     0.79477   0.72691   0.04958   0.00000  Uiso   1.00
Cl319  Cl    0.78087   0.61626   0.15406   0.00000  Uiso   1.00
Cl320  Cl    0.78334   0.88174   0.33490   0.00000  Uiso   1.00
Cl321  Cl    0.91385   0.80999   0.14258   0.00000  Uiso   1.00
Cl322  Cl    0.76210   0.68195   0.35830   0.00000  Uiso   1.00
Cu323  Cu    0.83333   0.75000   0.29822   0.00000  Uiso   1.00
Cu324  Cu    0.83333   0.75001   0.20179   0.00000  Uiso   1.00
H325   H     0.99311   0.74849   0.19400   0.00000  Uiso   1.00
H326   H     0.78166   0.69385   0.45746   0.00000  Uiso   1.00
H327   H     0.76742   0.70810   0.11643   0.00000  Uiso   1.00
H328   H     0.88436   0.80511   0.38169   0.00000  Uiso   1.00
H329   H     0.76346   0.70898   0.02865   0.00000  Uiso   1.00
H330   H     0.88311   0.80872   0.46888   0.00000  Uiso   1.00
H331   H     0.67363   0.75087   0.30605   0.00000  Uiso   1.00
H332   H     0.86921   0.53169   0.32458   0.00000  Uiso   1.00
H333   H     0.86762   0.96972   0.18413   0.00000  Uiso   1.00
H334   H     0.86743   0.61219   0.32374   0.00000  Uiso   1.00
H335   H     0.86572   0.88927   0.18405   0.00000  Uiso   1.00
H336   H     0.79731   0.52743   0.17640   0.00000  Uiso   1.00
H337   H     0.79924   0.97123   0.31657   0.00000  Uiso   1.00
H338   H     0.90006   0.79288   0.04431   0.00000  Uiso   1.00
N339   N     0.83333   0.75001   0.12935   0.00000  Uiso   1.00
N340   N     0.83333   0.74999   0.37066   0.00000  Uiso   1.00
O341   O     0.83334   0.68573   0.29072   0.00000  Uiso   1.00
O342   O     0.83333   0.81428   0.20929   0.00000  Uiso   1.00
O343   O     0.83334   0.68573   0.20928   0.00000  Uiso   1.00
O344   O     0.83333   0.81427   0.29072   0.00000  Uiso   1.00
O345   O     0.75828   0.75000   0.28132   0.00000  Uiso   1.00
O346   O     0.90839   0.75001   0.21868   0.00000  Uiso   1.00
O347   O     0.75828   0.75000   0.19989   0.00000  Uiso   1.00
O348   O     0.90839   0.75000   0.30012   0.00000  Uiso   1.00
C349   C     0.16556   0.16493   0.74968   0.00000  Uiso   1.00
C350   C     0.19465   0.28240   0.94910   0.00000  Uiso   1.00
C351   C     0.16563   0.25060   0.52720   0.00000  Uiso   1.00
C352   C     0.16596   0.25090   0.97254   0.00000  Uiso   1.00
C353   C     0.06799   0.24981   0.73767   0.00000  Uiso   1.00
C354   C     0.26535   0.25001   0.76234   0.00000  Uiso   1.00
C355   C     0.01279   0.24941   0.73086   0.00000  Uiso   1.00
C356   C     0.32057   0.25011   0.76918   0.00000  Uiso   1.00
C357   C     0.18636   0.04833   0.79185   0.00000  Uiso   1.00
C358   C     0.18554   0.45247   0.71323   0.00000  Uiso   1.00
C359   C     0.18518   0.09418   0.79130   0.00000  Uiso   1.00
C360   C     0.16563   0.33505   0.75010   0.00000  Uiso   1.00
C361   C     0.18429   0.40661   0.71321   0.00000  Uiso   1.00
C362   C     0.16486   0.11652   0.74918   0.00000  Uiso   1.00
C363   C     0.16491   0.38345   0.75069   0.00000  Uiso   1.00
C364   C     0.14478   0.09197   0.70743   0.00000  Uiso   1.00
C365   C     0.14590   0.40721   0.78826   0.00000  Uiso   1.00
C366   C     0.14663   0.04611   0.70826   0.00000  Uiso   1.00
C367   C     0.14779   0.45315   0.78812   0.00000  Uiso   1.00
C368   C     0.16740   0.02417   0.75022   0.00000  Uiso   1.00
C369   C     0.16754   0.47589   0.75081   0.00000  Uiso   1.00
C370   C     0.20308   0.27430   0.55825   0.00000  Uiso   1.00
C371   C     0.13738   0.21939   0.94255   0.00000  Uiso   1.00
C372   C     0.20229   0.27472   0.60850   0.00000  Uiso   1.00
C373   C     0.13701   0.22002   0.89217   0.00000  Uiso   1.00
C374   C     0.12979   0.22659   0.60034   0.00000  Uiso   1.00
C375   C     0.19507   0.28091   0.89860   0.00000  Uiso   1.00
C376   C     0.12810   0.22691   0.54958   0.00000  Uiso   1.00
Cl377  Cl    0.11420   0.11626   0.65406   0.00000  Uiso   1.00
Cl378  Cl    0.11667   0.38174   0.83490   0.00000  Uiso   1.00
Cl379  Cl    0.24719   0.30999   0.64258   0.00000  Uiso   1.00
Cl380  Cl    0.09544   0.18195   0.85830   0.00000  Uiso   1.00
Cu381  Cu    0.16667   0.25000   0.79822   0.00000  Uiso   1.00
Cu382  Cu    0.16667   0.25001   0.70179   0.00000  Uiso   1.00
H383   H     0.32644   0.24849   0.69400   0.00000  Uiso   1.00
H384   H     0.11499   0.19385   0.95746   0.00000  Uiso   1.00
H385   H     0.10076   0.20810   0.61643   0.00000  Uiso   1.00
H386   H     0.21769   0.30511   0.88169   0.00000  Uiso   1.00
H387   H     0.09680   0.20898   0.52865   0.00000  Uiso   1.00
H388   H     0.21644   0.30872   0.96888   0.00000  Uiso   1.00
H389   H     0.00696   0.25087   0.80605   0.00000  Uiso   1.00
H390   H     0.20255   0.03169   0.82458   0.00000  Uiso   1.00
H391   H     0.20095   0.46972   0.68413   0.00000  Uiso   1.00
H392   H     0.20076   0.11219   0.82374   0.00000  Uiso   1.00
H393   H     0.19905   0.38927   0.68405   0.00000  Uiso   1.00
H394   H     0.13064   0.02743   0.67640   0.00000  Uiso   1.00
H395   H     0.13258   0.47123   0.81657   0.00000  Uiso   1.00
H396   H     0.23340   0.29288   0.54431   0.00000  Uiso   1.00
N397   N     0.16667   0.25001   0.62935   0.00000  Uiso   1.00
N398   N     0.16667   0.24999   0.87066   0.00000  Uiso   1.00
O399   O     0.16667   0.18573   0.79072   0.00000  Uiso   1.00
O400   O     0.16666   0.31428   0.70929   0.00000  Uiso   1.00
O401   O     0.16667   0.18573   0.70928   0.00000  Uiso   1.00
O402   O     0.16666   0.31427   0.79072   0.00000  Uiso   1.00
O403   O     0.09161   0.25000   0.78132   0.00000  Uiso   1.00
O404   O     0.24172   0.25001   0.71868   0.00000  Uiso   1.00
O405   O     0.09161   0.25000   0.69989   0.00000  Uiso   1.00
O406   O     0.24172   0.25000   0.80012   0.00000  Uiso   1.00
C407   C     0.49889   0.16493   0.74968   0.00000  Uiso   1.00
C408   C     0.52798   0.28240   0.94910   0.00000  Uiso   1.00
C409   C     0.49896   0.25060   0.52720   0.00000  Uiso   1.00
C410   C     0.49929   0.25090   0.97254   0.00000  Uiso   1.00
C411   C     0.40133   0.24981   0.73767   0.00000  Uiso   1.00
C412   C     0.59868   0.25001   0.76234   0.00000  Uiso   1.00
C413   C     0.34612   0.24941   0.73086   0.00000  Uiso   1.00
C414   C     0.65390   0.25011   0.76918   0.00000  Uiso   1.00
C415   C     0.51969   0.04833   0.79185   0.00000  Uiso   1.00
C416   C     0.51888   0.45247   0.71323   0.00000  Uiso   1.00
C417   C     0.51851   0.09418   0.79130   0.00000  Uiso   1.00
C418   C     0.49897   0.33505   0.75010   0.00000  Uiso   1.00
C419   C     0.51763   0.40661   0.71321   0.00000  Uiso   1.00
C420   C     0.49819   0.11652   0.74918   0.00000  Uiso   1.00
C421   C     0.49825   0.38345   0.75069   0.00000  Uiso   1.00
C422   C     0.47811   0.09197   0.70743   0.00000  Uiso   1.00
C423   C     0.47923   0.40721   0.78826   0.00000  Uiso   1.00
C424   C     0.47996   0.04611   0.70826   0.00000  Uiso   1.00
C425   C     0.48112   0.45315   0.78812   0.00000  Uiso   1.00
C426   C     0.50073   0.02417   0.75022   0.00000  Uiso   1.00
C427   C     0.50087   0.47589   0.75081   0.00000  Uiso   1.00
C428   C     0.53641   0.27430   0.55825   0.00000  Uiso   1.00
C429   C     0.47072   0.21939   0.94255   0.00000  Uiso   1.00
C430   C     0.53562   0.27472   0.60850   0.00000  Uiso   1.00
C431   C     0.47035   0.22002   0.89217   0.00000  Uiso   1.00
C432   C     0.46313   0.22659   0.60034   0.00000  Uiso   1.00
C433   C     0.52840   0.28091   0.89860   0.00000  Uiso   1.00
C434   C     0.46144   0.22691   0.54958   0.00000  Uiso   1.00
Cl435  Cl    0.44753   0.11626   0.65406   0.00000  Uiso   1.00
Cl436  Cl    0.45001   0.38174   0.83490   0.00000  Uiso   1.00
Cl437  Cl    0.58052   0.30999   0.64258   0.00000  Uiso   1.00
Cl438  Cl    0.42877   0.18195   0.85830   0.00000  Uiso   1.00
Cu439  Cu    0.50000   0.25000   0.79822   0.00000  Uiso   1.00
Cu440  Cu    0.50000   0.25001   0.70179   0.00000  Uiso   1.00
H441   H     0.65977   0.24849   0.69400   0.00000  Uiso   1.00
H442   H     0.44832   0.19385   0.95746   0.00000  Uiso   1.00
H443   H     0.43409   0.20810   0.61643   0.00000  Uiso   1.00
H444   H     0.55103   0.30511   0.88169   0.00000  Uiso   1.00
H445   H     0.43013   0.20898   0.52865   0.00000  Uiso   1.00
H446   H     0.54978   0.30872   0.96888   0.00000  Uiso   1.00
H447   H     0.34029   0.25087   0.80605   0.00000  Uiso   1.00
H448   H     0.53588   0.03169   0.82458   0.00000  Uiso   1.00
H449   H     0.53429   0.46972   0.68413   0.00000  Uiso   1.00
H450   H     0.53410   0.11219   0.82374   0.00000  Uiso   1.00
H451   H     0.53239   0.38927   0.68405   0.00000  Uiso   1.00
H452   H     0.46397   0.02743   0.67640   0.00000  Uiso   1.00
H453   H     0.46591   0.47123   0.81657   0.00000  Uiso   1.00
H454   H     0.56673   0.29288   0.54431   0.00000  Uiso   1.00
N455   N     0.50000   0.25001   0.62935   0.00000  Uiso   1.00
N456   N     0.50000   0.24999   0.87066   0.00000  Uiso   1.00
O457   O     0.50000   0.18573   0.79072   0.00000  Uiso   1.00
O458   O     0.50000   0.31428   0.70929   0.00000  Uiso   1.00
O459   O     0.50000   0.18573   0.70928   0.00000  Uiso   1.00
O460   O     0.50000   0.31427   0.79072   0.00000  Uiso   1.00
O461   O     0.42495   0.25000   0.78132   0.00000  Uiso   1.00
O462   O     0.57505   0.25001   0.71868   0.00000  Uiso   1.00
O463   O     0.42495   0.25000   0.69989   0.00000  Uiso   1.00
O464   O     0.57505   0.25000   0.80012   0.00000  Uiso   1.00
C465   C     0.83223   0.16493   0.74968   0.00000  Uiso   1.00
C466   C     0.86132   0.28240   0.94910   0.00000  Uiso   1.00
C467   C     0.83230   0.25060   0.52720   0.00000  Uiso   1.00
C468   C     0.83262   0.25090   0.97254   0.00000  Uiso   1.00
C469   C     0.73466   0.24981   0.73767   0.00000  Uiso   1.00
C470   C     0.93201   0.25001   0.76234   0.00000  Uiso   1.00
C471   C     0.67946   0.24941   0.73086   0.00000  Uiso   1.00
C472   C     0.98724   0.25011   0.76918   0.00000  Uiso   1.00
C473   C     0.85303   0.04833   0.79185   0.00000  Uiso   1.00
C474   C     0.85221   0.45247   0.71323   0.00000  Uiso   1.00
C475   C     0.85184   0.09418   0.79130   0.00000  Uiso   1.00
C476   C     0.83230   0.33505   0.75010   0.00000  Uiso   1.00
C477   C     0.85096   0.40661   0.71321   0.00000  Uiso   1.00
C478   C     0.83152   0.11652   0.74918   0.00000  Uiso   1.00
C479   C     0.83158   0.38345   0.75069   0.00000  Uiso   1.00
C480   C     0.81144   0.09197   0.70743   0.00000  Uiso   1.00
C481   C     0.81256   0.40721   0.78826   0.00000  Uiso   1.00
C482   C     0.81329   0.04611   0.70826   0.00000  Uiso   1.00
C483   C     0.81445   0.45315   0.78812   0.00000  Uiso   1.00
C484   C     0.83407   0.02417   0.75022   0.00000  Uiso   1.00
C485   C     0.83420   0.47589   0.75081   0.00000  Uiso   1.00
C486   C     0.86974   0.27430   0.55825   0.00000  Uiso   1.00
C487   C     0.80405   0.21939   0.94255   0.00000  Uiso   1.00
C488   C     0.86895   0.27472   0.60850   0.00000  Uiso   1.00
C489   C     0.80368   0.22002   0.89217   0.00000  Uiso   1.00
C490   C     0.79646   0.22659   0.60034   0.00000  Uiso   1.00
C491   C     0.86174   0.28091   0.89860   0.00000  Uiso   1.00
C492   C     0.79477   0.22691   0.54958   0.00000  Uiso   1.00
Cl493  Cl    0.78087   0.11626   0.65406   0.00000  Uiso   1.00
Cl494  Cl    0.78334   0.38174   0.83490   0.00000  Uiso   1.00
Cl495  Cl    0.91385   0.30999   0.64258   0.00000  Uiso   1.00
Cl496  Cl    0.76210   0.18195   0.85830   0.00000  Uiso   1.00
Cu497  Cu    0.83333   0.25000   0.79822   0.00000  Uiso   1.00
Cu498  Cu    0.83333   0.25001   0.70179   0.00000  Uiso   1.00
H499   H     0.99311   0.24849   0.69400   0.00000  Uiso   1.00
H500   H     0.78166   0.19385   0.95746   0.00000  Uiso   1.00
H501   H     0.76742   0.20810   0.61643   0.00000  Uiso   1.00
H502   H     0.88436   0.30511   0.88169   0.00000  Uiso   1.00
H503   H     0.76346   0.20898   0.52865   0.00000  Uiso   1.00
H504   H     0.88311   0.30872   0.96888   0.00000  Uiso   1.00
H505   H     0.67363   0.25087   0.80605   0.00000  Uiso   1.00
H506   H     0.86921   0.03169   0.82458   0.00000  Uiso   1.00
H507   H     0.86762   0.46972   0.68413   0.00000  Uiso   1.00
H508   H     0.86743   0.11219   0.82374   0.00000  Uiso   1.00
H509   H     0.86572   0.38927   0.68405   0.00000  Uiso   1.00
H510   H     0.79731   0.02743   0.67640   0.00000  Uiso   1.00
H511   H     0.79924   0.47123   0.81657   0.00000  Uiso   1.00
H512   H     0.90006   0.29288   0.54431   0.00000  Uiso   1.00
N513   N     0.83333   0.25001   0.62935   0.00000  Uiso   1.00
N514   N     0.83333   0.24999   0.87066   0.00000  Uiso   1.00
O515   O     0.83334   0.18573   0.79072   0.00000  Uiso   1.00
O516   O     0.83333   0.31428   0.70929   0.00000  Uiso   1.00
O517   O     0.83334   0.18573   0.70928   0.00000  Uiso   1.00
O518   O     0.83333   0.31427   0.79072   0.00000  Uiso   1.00
O519   O     0.75828   0.25000   0.78132   0.00000  Uiso   1.00
O520   O     0.90839   0.25001   0.71868   0.00000  Uiso   1.00
O521   O     0.75828   0.25000   0.69989   0.00000  Uiso   1.00
O522   O     0.90839   0.25000   0.80012   0.00000  Uiso   1.00
C523   C     0.16556   0.66493   0.74968   0.00000  Uiso   1.00
C524   C     0.19465   0.78240   0.94910   0.00000  Uiso   1.00
C525   C     0.16563   0.75060   0.52720   0.00000  Uiso   1.00
C526   C     0.16596   0.75090   0.97254   0.00000  Uiso   1.00
C527   C     0.06799   0.74981   0.73767   0.00000  Uiso   1.00
C528   C     0.26535   0.75001   0.76234   0.00000  Uiso   1.00
C529   C     0.01279   0.74941   0.73086   0.00000  Uiso   1.00
C530   C     0.32057   0.75011   0.76918   0.00000  Uiso   1.00
C531   C     0.18636   0.54833   0.79185   0.00000  Uiso   1.00
C532   C     0.18554   0.95247   0.71323   0.00000  Uiso   1.00
C533   C     0.18518   0.59418   0.79130   0.00000  Uiso   1.00
C534   C     0.16563   0.83505   0.75010   0.00000  Uiso   1.00
C535   C     0.18429   0.90661   0.71321   0.00000  Uiso   1.00
C536   C     0.16486   0.61652   0.74918   0.00000  Uiso   1.00
C537   C     0.16491   0.88345   0.75069   0.00000  Uiso   1.00
C538   C     0.14478   0.59197   0.70743   0.00000  Uiso   1.00
C539   C     0.14590   0.90721   0.78826   0.00000  Uiso   1.00
C540   C     0.14663   0.54611   0.70826   0.00000  Uiso   1.00
C541   C     0.14779   0.95315   0.78812   0.00000  Uiso   1.00
C542   C     0.16740   0.52417   0.75022   0.00000  Uiso   1.00
C543   C     0.16754   0.97589   0.75081   0.00000  Uiso   1.00
C544   C     0.20308   0.77430   0.55825   0.00000  Uiso   1.00
C545   C     0.13738   0.71939   0.94255   0.00000  Uiso   1.00
C546   C     0.20229   0.77472   0.60850   0.00000  Uiso   1.00
C547   C     0.13701   0.72002   0.89217   0.00000  Uiso   1.00
C548   C     0.12979   0.72659   0.60034   0.00000  Uiso   1.00
C549   C     0.19507   0.78091   0.89860   0.00000  Uiso   1.00
C550   C     0.12810   0.72691   0.54958   0.00000  Uiso   1.00
Cl551  Cl    0.11420   0.61626   0.65406   0.00000  Uiso   1.00
Cl552  Cl    0.11667   0.88174   0.83490   0.00000  Uiso   1.00
Cl553  Cl    0.24719   0.80999   0.64258   0.00000  Uiso   1.00
Cl554  Cl    0.09544   0.68195   0.85830   0.00000  Uiso   1.00
Cu555  Cu    0.16667   0.75000   0.79822   0.00000  Uiso   1.00
Cu556  Cu    0.16667   0.75001   0.70179   0.00000  Uiso   1.00
H557   H     0.32644   0.74849   0.69400   0.00000  Uiso   1.00
H558   H     0.11499   0.69385   0.95746   0.00000  Uiso   1.00
H559   H     0.10076   0.70810   0.61643   0.00000  Uiso   1.00
H560   H     0.21769   0.80511   0.88169   0.00000  Uiso   1.00
H561   H     0.09680   0.70898   0.52865   0.00000  Uiso   1.00
H562   H     0.21644   0.80872   0.96888   0.00000  Uiso   1.00
H563   H     0.00696   0.75087   0.80605   0.00000  Uiso   1.00
H564   H     0.20255   0.53169   0.82458   0.00000  Uiso   1.00
H565   H     0.20095   0.96972   0.68413   0.00000  Uiso   1.00
H566   H     0.20076   0.61219   0.82374   0.00000  Uiso   1.00
H567   H     0.19905   0.88927   0.68405   0.00000  Uiso   1.00
H568   H     0.13064   0.52743   0.67640   0.00000  Uiso   1.00
H569   H     0.13258   0.97123   0.81657   0.00000  Uiso   1.00
H570   H     0.23340   0.79288   0.54431   0.00000  Uiso   1.00
N571   N     0.16667   0.75001   0.62935   0.00000  Uiso   1.00
N572   N     0.16667   0.74999   0.87066   0.00000  Uiso   1.00
O573   O     0.16667   0.68573   0.79072   0.00000  Uiso   1.00
O574   O     0.16666   0.81428   0.70929   0.00000  Uiso   1.00
O575   O     0.16667   0.68573   0.70928   0.00000  Uiso   1.00
O576   O     0.16666   0.81427   0.79072   0.00000  Uiso   1.00
O577   O     0.09161   0.75000   0.78132   0.00000  Uiso   1.00
O578   O     0.24172   0.75001   0.71868   0.00000  Uiso   1.00
O579   O     0.09161   0.75000   0.69989   0.00000  Uiso   1.00
O580   O     0.24172   0.75000   0.80012   0.00000  Uiso   1.00
C581   C     0.49889   0.66493   0.74968   0.00000  Uiso   1.00
C582   C     0.52798   0.78240   0.94910   0.00000  Uiso   1.00
C583   C     0.49896   0.75060   0.52720   0.00000  Uiso   1.00
C584   C     0.49929   0.75090   0.97254   0.00000  Uiso   1.00
C585   C     0.40133   0.74981   0.73767   0.00000  Uiso   1.00
C586   C     0.59868   0.75001   0.76234   0.00000  Uiso   1.00
C587   C     0.34612   0.74941   0.73086   0.00000  Uiso   1.00
C588   C     0.65390   0.75011   0.76918   0.00000  Uiso   1.00
C589   C     0.51969   0.54833   0.79185   0.00000  Uiso   1.00
C590   C     0.51888   0.95247   0.71323   0.00000  Uiso   1.00
C591   C     0.51851   0.59418   0.79130   0.00000  Uiso   1.00
C592   C     0.49897   0.83505   0.75010   0.00000  Uiso   1.00
C593   C     0.51763   0.90661   0.71321   0.00000  Uiso   1.00
C594   C     0.49819   0.61652   0.74918   0.00000  Uiso   1.00
C595   C     0.49825   0.88345   0.75069   0.00000  Uiso   1.00
C596   C     0.47811   0.59197   0.70743   0.00000  Uiso   1.00
C597   C     0.47923   0.90721   0.78826   0.00000  Uiso   1.00
C598   C     0.47996   0.54611   0.70826   0.00000  Uiso   1.00
C599   C     0.48112   0.95315   0.78812   0.00000  Uiso   1.00
C600   C     0.50073   0.52417   0.75022   0.00000  Uiso   1.00
C601   C     0.50087   0.97589   0.75081   0.00000  Uiso   1.00
C602   C     0.53641   0.77430   0.55825   0.00000  Uiso   1.00
C603   C     0.47072   0.71939   0.94255   0.00000  Uiso   1.00
C604   C     0.53562   0.77472   0.60850   0.00000  Uiso   1.00
C605   C     0.47035   0.72002   0.89217   0.00000  Uiso   1.00
C606   C     0.46313   0.72659   0.60034   0.00000  Uiso   1.00
C607   C     0.52840   0.78091   0.89860   0.00000  Uiso   1.00
C608   C     0.46144   0.72691   0.54958   0.00000  Uiso   1.00
Cl609  Cl    0.44753   0.61626   0.65406   0.00000  Uiso   1.00
Cl610  Cl    0.45001   0.88174   0.83490   0.00000  Uiso   1.00
Cl611  Cl    0.58052   0.80999   0.64258   0.00000  Uiso   1.00
Cl612  Cl    0.42877   0.68195   0.85830   0.00000  Uiso   1.00
Cu613  Cu    0.50000   0.75000   0.79822   0.00000  Uiso   1.00
Cu614  Cu    0.50000   0.75001   0.70179   0.00000  Uiso   1.00
H615   H     0.65977   0.74849   0.69400   0.00000  Uiso   1.00
H616   H     0.44832   0.69385   0.95746   0.00000  Uiso   1.00
H617   H     0.43409   0.70810   0.61643   0.00000  Uiso   1.00
H618   H     0.55103   0.80511   0.88169   0.00000  Uiso   1.00
H619   H     0.43013   0.70898   0.52865   0.00000  Uiso   1.00
H620   H     0.54978   0.80872   0.96888   0.00000  Uiso   1.00
H621   H     0.34029   0.75087   0.80605   0.00000  Uiso   1.00
H622   H     0.53588   0.53169   0.82458   0.00000  Uiso   1.00
H623   H     0.53429   0.96972   0.68413   0.00000  Uiso   1.00
H624   H     0.53410   0.61219   0.82374   0.00000  Uiso   1.00
H625   H     0.53239   0.88927   0.68405   0.00000  Uiso   1.00
H626   H     0.46397   0.52743   0.67640   0.00000  Uiso   1.00
H627   H     0.46591   0.97123   0.81657   0.00000  Uiso   1.00
H628   H     0.56673   0.79288   0.54431   0.00000  Uiso   1.00
N629   N     0.50000   0.75001   0.62935   0.00000  Uiso   1.00
N630   N     0.50000   0.74999   0.87066   0.00000  Uiso   1.00
O631   O     0.50000   0.68573   0.79072   0.00000  Uiso   1.00
O632   O     0.50000   0.81428   0.70929   0.00000  Uiso   1.00
O633   O     0.50000   0.68573   0.70928   0.00000  Uiso   1.00
O634   O     0.50000   0.81427   0.79072   0.00000  Uiso   1.00
O635   O     0.42495   0.75000   0.78132   0.00000  Uiso   1.00
O636   O     0.57505   0.75001   0.71868   0.00000  Uiso   1.00
O637   O     0.42495   0.75000   0.69989   0.00000  Uiso   1.00
O638   O     0.57505   0.75000   0.80012   0.00000  Uiso   1.00
C639   C     0.83223   0.66493   0.74968   0.00000  Uiso   1.00
C640   C     0.86132   0.78240   0.94910   0.00000  Uiso   1.00
C641   C     0.83230   0.75060   0.52720   0.00000  Uiso   1.00
C642   C     0.83262   0.75090   0.97254   0.00000  Uiso   1.00
C643   C     0.73466   0.74981   0.73767   0.00000  Uiso   1.00
C644   C     0.93201   0.75001   0.76234   0.00000  Uiso   1.00
C645   C     0.67946   0.74941   0.73086   0.00000  Uiso   1.00
C646   C     0.98724   0.75011   0.76918   0.00000  Uiso   1.00
C647   C     0.85303   0.54833   0.79185   0.00000  Uiso   1.00
C648   C     0.85221   0.95247   0.71323   0.00000  Uiso   1.00
C649   C     0.85184   0.59418   0.79130   0.00000  Uiso   1.00
C650   C     0.83230   0.83505   0.75010   0.00000  Uiso   1.00
C651   C     0.85096   0.90661   0.71321   0.00000  Uiso   1.00
C652   C     0.83152   0.61652   0.74918   0.00000  Uiso   1.00
C653   C     0.83158   0.88345   0.75069   0.00000  Uiso   1.00
C654   C     0.81144   0.59197   0.70743   0.00000  Uiso   1.00
C655   C     0.81256   0.90721   0.78826   0.00000  Uiso   1.00
C656   C     0.81329   0.54611   0.70826   0.00000  Uiso   1.00
C657   C     0.81445   0.95315   0.78812   0.00000  Uiso   1.00
C658   C     0.83407   0.52417   0.75022   0.00000  Uiso   1.00
C659   C     0.83420   0.97589   0.75081   0.00000  Uiso   1.00
C660   C     0.86974   0.77430   0.55825   0.00000  Uiso   1.00
C661   C     0.80405   0.71939   0.94255   0.00000  Uiso   1.00
C662   C     0.86895   0.77472   0.60850   0.00000  Uiso   1.00
C663   C     0.80368   0.72002   0.89217   0.00000  Uiso   1.00
C664   C     0.79646   0.72659   0.60034   0.00000  Uiso   1.00
C665   C     0.86174   0.78091   0.89860   0.00000  Uiso   1.00
C666   C     0.79477   0.72691   0.54958   0.00000  Uiso   1.00
Cl667  Cl    0.78087   0.61626   0.65406   0.00000  Uiso   1.00
Cl668  Cl    0.78334   0.88174   0.83490   0.00000  Uiso   1.00
Cl669  Cl    0.91385   0.80999   0.64258   0.00000  Uiso   1.00
Cl670  Cl    0.76210   0.68195   0.85830   0.00000  Uiso   1.00
Cu671  Cu    0.83333   0.75000   0.79822   0.00000  Uiso   1.00
Cu672  Cu    0.83333   0.75001   0.70179   0.00000  Uiso   1.00
H673   H     0.99311   0.74849   0.69400   0.00000  Uiso   1.00
H674   H     0.78166   0.69385   0.95746   0.00000  Uiso   1.00
H675   H     0.76742   0.70810   0.61643   0.00000  Uiso   1.00
H676   H     0.88436   0.80511   0.88169   0.00000  Uiso   1.00
H677   H     0.76346   0.70898   0.52865   0.00000  Uiso   1.00
H678   H     0.88311   0.80872   0.96888   0.00000  Uiso   1.00
H679   H     0.67363   0.75087   0.80605   0.00000  Uiso   1.00
H680   H     0.86921   0.53169   0.82458   0.00000  Uiso   1.00
H681   H     0.86762   0.96972   0.68413   0.00000  Uiso   1.00
H682   H     0.86743   0.61219   0.82374   0.00000  Uiso   1.00
H683   H     0.86572   0.88927   0.68405   0.00000  Uiso   1.00
H684   H     0.79731   0.52743   0.67640   0.00000  Uiso   1.00
H685   H     0.79924   0.97123   0.81657   0.00000  Uiso   1.00
H686   H     0.90006   0.79288   0.54431   0.00000  Uiso   1.00
N687   N     0.83333   0.75001   0.62935   0.00000  Uiso   1.00
N688   N     0.83333   0.74999   0.87066   0.00000  Uiso   1.00
O689   O     0.83334   0.68573   0.79072   0.00000  Uiso   1.00
O690   O     0.83333   0.81428   0.70929   0.00000  Uiso   1.00
O691   O     0.83334   0.68573   0.70928   0.00000  Uiso   1.00
O692   O     0.83333   0.81427   0.79072   0.00000  Uiso   1.00
O693   O     0.75828   0.75000   0.78132   0.00000  Uiso   1.00
O694   O     0.90839   0.75001   0.71868   0.00000  Uiso   1.00
O695   O     0.75828   0.75000   0.69989   0.00000  Uiso   1.00
O696   O     0.90839   0.75000   0.80012   0.00000  Uiso   1.00
loop_
_geom_bond_atom_site_label_1
_geom_bond_atom_site_label_2
_geom_bond_distance
_geom_bond_site_symmetry_2
_ccdc_geom_bond_type
C1     O51     1.300   .     A
C1     O53     1.295   .     A
C1     C14     1.466   .     S
C2     C4      1.417   .     A
C2     C27     1.409   .     A
C2     H40     1.079   .     S
C3     C28     1.417   .     A
C3     C22     1.405   .     A
C3     C352    1.524   1_554 S
C4     C23     1.405   .     A
C4     C351    1.524   .     S
C5     O57     1.289   .     A
C5     C7      1.433   .     S
C5     O55     1.290   .     A
C6     O58     1.289   .     A
C6     C8      1.433   .     S
C6     O56     1.290   .     A
C7     C124    1.332   1_455 S
C7     H151    1.087   1_455 S
C8     C65     1.332   .     S
C8     H99     1.087   .     S
C9     C11     1.390   .     A
C9     C20     1.399   .     A
C9     H42     1.083   .     S
C10    C21     1.399   .     A
C10    H43     1.083   .     S
C10    C13     1.389   .     A
C11    H44     1.083   .     S
C11    C14     1.404   .     A
C12    C15     1.467   .     S
C12    O52     1.301   .     A
C12    O54     1.294   .     A
C13    H45     1.083   .     S
C13    C15     1.404   .     A
C14    C16     1.415   .     A
C15    C17     1.416   .     A
C16    Cl29    1.763   .     S
C16    C18     1.391   .     A
C17    Cl30    1.765   .     S
C17    C19     1.392   .     A
C18    H46     1.084   .     S
C18    C20     1.398   .     A
C19    H47     1.084   .     S
C19    C21     1.398   .     A
C20    C195    1.463   1_545 S
C21    C194    1.463   .     S
C22    C24     1.402   .     A
C22    H48     1.079   .     S
C23    C25     1.402   .     A
C23    H36     1.079   .     S
C24    Cl31    1.756   .     S
C24    N49     1.374   .     A
C25    Cl32    1.757   .     S
C25    N50     1.374   .     A
C26    H37     1.081   .     S
C26    C28     1.409   .     A
C26    N49     1.363   .     A
C27    N50     1.362   .     A
C27    H38     1.082   .     S
C28    H39     1.079   .     S
Cu33   O55     1.960   .     S
Cu33   O58     1.959   .     S
Cu33   O51     1.957   .     S
Cu33   O54     1.959   .     S
Cu33   Cu34    2.686   .     S
Cu33   N50     2.018   .     S
Cu34   O57     1.959   .     S
Cu34   O56     1.960   .     S
Cu34   O53     1.959   .     S
Cu34   N49     2.018   .     S
Cu34   O52     1.957   .     S
H35    C65     1.087   .     S
H41    C124    1.087   1_455 S
C59    O109    1.300   .     A
C59    O111    1.295   .     A
C59    C72     1.466   .     S
C60    C62     1.417   .     A
C60    C85     1.409   .     A
C60    H98     1.079   .     S
C61    C86     1.417   .     A
C61    C80     1.405   .     A
C61    C410    1.524   1_554 S
C62    C81     1.405   .     A
C62    C409    1.524   .     S
C63    O115    1.289   .     A
C63    C65     1.433   .     S
C63    O113    1.290   .     A
C64    O116    1.289   .     A
C64    C66     1.433   .     S
C64    O114    1.290   .     A
C66    C123    1.332   .     S
C66    H157    1.087   .     S
C67    C69     1.390   .     A
C67    C78     1.399   .     A
C67    H100    1.083   .     S
C68    C79     1.399   .     A
C68    H101    1.083   .     S
C68    C71     1.389   .     A
C69    H102    1.083   .     S
C69    C72     1.404   .     A
C70    C73     1.467   .     S
C70    O110    1.301   .     A
C70    O112    1.294   .     A
C71    H103    1.083   .     S
C71    C73     1.404   .     A
C72    C74     1.415   .     A
C73    C75     1.416   .     A
C74    Cl87    1.763   .     S
C74    C76     1.391   .     A
C75    Cl88    1.765   .     S
C75    C77     1.392   .     A
C76    H104    1.084   .     S
C76    C78     1.398   .     A
C77    H105    1.084   .     S
C77    C79     1.398   .     A
C78    C253    1.463   1_545 S
C79    C252    1.463   .     S
C80    C82     1.402   .     A
C80    H106    1.079   .     S
C81    C83     1.402   .     A
C81    H94     1.079   .     S
C82    Cl89    1.756   .     S
C82    N107    1.374   .     A
C83    Cl90    1.757   .     S
C83    N108    1.374   .     A
C84    H95     1.081   .     S
C84    C86     1.409   .     A
C84    N107    1.363   .     A
C85    N108    1.362   .     A
C85    H96     1.082   .     S
C86    H97     1.079   .     S
Cu91   O113    1.960   .     S
Cu91   O116    1.959   .     S
Cu91   O109    1.957   .     S
Cu91   O112    1.959   .     S
Cu91   Cu92    2.686   .     S
Cu91   N108    2.018   .     S
Cu92   O115    1.959   .     S
Cu92   O114    1.960   .     S
Cu92   O111    1.959   .     S
Cu92   N107    2.018   .     S
Cu92   O110    1.957   .     S
H93    C123    1.087   .     S
C117   O167    1.300   .     A
C117   O169    1.295   .     A
C117   C130    1.466   .     S
C118   C120    1.417   .     A
C118   C143    1.409   .     A
C118   H156    1.079   .     S
C119   C144    1.417   .     A
C119   C138    1.405   .     A
C119   C468    1.524   1_554 S
C120   C139    1.405   .     A
C120   C467    1.524   .     S
C121   O173    1.289   .     A
C121   C123    1.433   .     S
C121   O171    1.290   .     A
C122   O174    1.289   .     A
C122   C124    1.433   .     S
C122   O172    1.290   .     A
C124   C7      1.332   1_655 S
C124   H41     1.087   1_655 S
C125   C127    1.390   .     A
C125   C136    1.399   .     A
C125   H158    1.083   .     S
C126   C137    1.399   .     A
C126   H159    1.083   .     S
C126   C129    1.389   .     A
C127   H160    1.083   .     S
C127   C130    1.404   .     A
C128   C131    1.467   .     S
C128   O168    1.301   .     A
C128   O170    1.294   .     A
C129   H161    1.083   .     S
C129   C131    1.404   .     A
C130   C132    1.415   .     A
C131   C133    1.416   .     A
C132   Cl145   1.763   .     S
C132   C134    1.391   .     A
C133   Cl146   1.765   .     S
C133   C135    1.392   .     A
C134   H162    1.084   .     S
C134   C136    1.398   .     A
C135   H163    1.084   .     S
C135   C137    1.398   .     A
C136   C311    1.463   1_545 S
C137   C310    1.463   .     S
C138   C140    1.402   .     A
C138   H164    1.079   .     S
C139   C141    1.402   .     A
C139   H152    1.079   .     S
C140   Cl147   1.756   .     S
C140   N165    1.374   .     A
C141   Cl148   1.757   .     S
C141   N166    1.374   .     A
C142   H153    1.081   .     S
C142   C144    1.409   .     A
C142   N165    1.363   .     A
C143   N166    1.362   .     A
C143   H154    1.082   .     S
C144   H155    1.079   .     S
Cu149  O171    1.960   .     S
Cu149  O174    1.959   .     S
Cu149  O167    1.957   .     S
Cu149  O170    1.959   .     S
Cu149  Cu150   2.686   .     S
Cu149  N166    2.018   .     S
Cu150  O173    1.959   .     S
Cu150  O172    1.960   .     S
Cu150  O169    1.959   .     S
Cu150  N165    2.018   .     S
Cu150  O168    1.957   .     S
H151   C7      1.087   1_655 S
C175   O225    1.300   .     A
C175   O227    1.295   .     A
C175   C188    1.466   .     S
C176   C178    1.417   .     A
C176   C201    1.409   .     A
C176   H214    1.079   .     S
C177   C202    1.417   .     A
C177   C196    1.405   .     A
C177   C526    1.524   1_554 S
C178   C197    1.405   .     A
C178   C525    1.524   .     S
C179   O231    1.289   .     A
C179   C181    1.433   .     S
C179   O229    1.290   .     A
C180   O232    1.289   .     A
C180   C182    1.433   .     S
C180   O230    1.290   .     A
C181   C298    1.332   1_455 S
C181   H325    1.087   1_455 S
C182   C239    1.332   .     S
C182   H273    1.087   .     S
C183   C185    1.390   .     A
C183   C194    1.399   .     A
C183   H216    1.083   .     S
C184   C195    1.399   .     A
C184   H217    1.083   .     S
C184   C187    1.389   .     A
C185   H218    1.083   .     S
C185   C188    1.404   .     A
C186   C189    1.467   .     S
C186   O226    1.301   .     A
C186   O228    1.294   .     A
C187   H219    1.083   .     S
C187   C189    1.404   .     A
C188   C190    1.415   .     A
C189   C191    1.416   .     A
C190   Cl203   1.763   .     S
C190   C192    1.391   .     A
C191   Cl204   1.765   .     S
C191   C193    1.392   .     A
C192   H220    1.084   .     S
C192   C194    1.398   .     A
C193   H221    1.084   .     S
C193   C195    1.398   .     A
C195   C20     1.463   1_565 S
C196   C198    1.402   .     A
C196   H222    1.079   .     S
C197   C199    1.402   .     A
C197   H210    1.079   .     S
C198   Cl205   1.756   .     S
C198   N223    1.374   .     A
C199   Cl206   1.757   .     S
C199   N224    1.374   .     A
C200   H211    1.081   .     S
C200   C202    1.409   .     A
C200   N223    1.363   .     A
C201   N224    1.362   .     A
C201   H212    1.082   .     S
C202   H213    1.079   .     S
Cu207  O229    1.960   .     S
Cu207  O232    1.959   .     S
Cu207  O225    1.957   .     S
Cu207  O228    1.959   .     S
Cu207  Cu208   2.686   .     S
Cu207  N224    2.018   .     S
Cu208  O231    1.959   .     S
Cu208  O230    1.960   .     S
Cu208  O227    1.959   .     S
Cu208  N223    2.018   .     S
Cu208  O226    1.957   .     S
H209   C239    1.087   .     S
H215   C298    1.087   1_455 S
C233   O283    1.300   .     A
C233   O285    1.295   .     A
C233   C246    1.466   .     S
C234   C236    1.417   .     A
C234   C259    1.409   .     A
C234   H272    1.079   .     S
C235   C260    1.417   .     A
C235   C254    1.405   .     A
C235   C584    1.524   1_554 S
C236   C255    1.405   .     A
C236   C583    1.524   .     S
C237   O289    1.289   .     A
C237   C239    1.433   .     S
C237   O287    1.290   .     A
C238   O290    1.289   .     A
C238   C240    1.433   .     S
C238   O288    1.290   .     A
C240   C297    1.332   .     S
C240   H331    1.087   .     S
C241   C243    1.390   .     A
C241   C252    1.399   .     A
C241   H274    1.083   .     S
C242   C253    1.399   .     A
C242   H275    1.083   .     S
C242   C245    1.389   .     A
C243   H276    1.083   .     S
C243   C246    1.404   .     A
C244   C247    1.467   .     S
C244   O284    1.301   .     A
C244   O286    1.294   .     A
C245   H277    1.083   .     S
C245   C247    1.404   .     A
C246   C248    1.415   .     A
C247   C249    1.416   .     A
C248   Cl261   1.763   .     S
C248   C250    1.391   .     A
C249   Cl262   1.765   .     S
C249   C251    1.392   .     A
C250   H278    1.084   .     S
C250   C252    1.398   .     A
C251   H279    1.084   .     S
C251   C253    1.398   .     A
C253   C78     1.463   1_565 S
C254   C256    1.402   .     A
C254   H280    1.079   .     S
C255   C257    1.402   .     A
C255   H268    1.079   .     S
C256   Cl263   1.756   .     S
C256   N281    1.374   .     A
C257   Cl264   1.757   .     S
C257   N282    1.374   .     A
C258   H269    1.081   .     S
C258   C260    1.409   .     A
C258   N281    1.363   .     A
C259   N282    1.362   .     A
C259   H270    1.082   .     S
C260   H271    1.079   .     S
Cu265  O287    1.960   .     S
Cu265  O290    1.959   .     S
Cu265  O283    1.957   .     S
Cu265  O286    1.959   .     S
Cu265  Cu266   2.686   .     S
Cu265  N282    2.018   .     S
Cu266  O289    1.959   .     S
Cu266  O288    1.960   .     S
Cu266  O285    1.959   .     S
Cu266  N281    2.018   .     S
Cu266  O284    1.957   .     S
H267   C297    1.087   .     S
C291   O341    1.300   .     A
C291   O343    1.295   .     A
C291   C304    1.466   .     S
C292   C294    1.417   .     A
C292   C317    1.409   .     A
C292   H330    1.079   .     S
C293   C318    1.417   .     A
C293   C312    1.405   .     A
C293   C642    1.524   1_554 S
C294   C313    1.405   .     A
C294   C641    1.524   .     S
C295   O347    1.289   .     A
C295   C297    1.433   .     S
C295   O345    1.290   .     A
C296   O348    1.289   .     A
C296   C298    1.433   .     S
C296   O346    1.290   .     A
C298   C181    1.332   1_655 S
C298   H215    1.087   1_655 S
C299   C301    1.390   .     A
C299   C310    1.399   .     A
C299   H332    1.083   .     S
C300   C311    1.399   .     A
C300   H333    1.083   .     S
C300   C303    1.389   .     A
C301   H334    1.083   .     S
C301   C304    1.404   .     A
C302   C305    1.467   .     S
C302   O342    1.301   .     A
C302   O344    1.294   .     A
C303   H335    1.083   .     S
C303   C305    1.404   .     A
C304   C306    1.415   .     A
C305   C307    1.416   .     A
C306   Cl319   1.763   .     S
C306   C308    1.391   .     A
C307   Cl320   1.765   .     S
C307   C309    1.392   .     A
C308   H336    1.084   .     S
C308   C310    1.398   .     A
C309   H337    1.084   .     S
C309   C311    1.398   .     A
C311   C136    1.463   1_565 S
C312   C314    1.402   .     A
C312   H338    1.079   .     S
C313   C315    1.402   .     A
C313   H326    1.079   .     S
C314   Cl321   1.756   .     S
C314   N339    1.374   .     A
C315   Cl322   1.757   .     S
C315   N340    1.374   .     A
C316   H327    1.081   .     S
C316   C318    1.409   .     A
C316   N339    1.363   .     A
C317   N340    1.362   .     A
C317   H328    1.082   .     S
C318   H329    1.079   .     S
Cu323  O345    1.960   .     S
Cu323  O348    1.959   .     S
Cu323  O341    1.957   .     S
Cu323  O344    1.959   .     S
Cu323  Cu324   2.686   .     S
Cu323  N340    2.018   .     S
Cu324  O347    1.959   .     S
Cu324  O346    1.960   .     S
Cu324  O343    1.959   .     S
Cu324  N339    2.018   .     S
Cu324  O342    1.957   .     S
H325   C181    1.087   1_655 S
C349   O399    1.300   .     A
C349   O401    1.295   .     A
C349   C362    1.466   .     S
C350   C352    1.417   .     A
C350   C375    1.409   .     A
C350   H388    1.079   .     S
C351   C376    1.417   .     A
C351   C370    1.405   .     A
C352   C371    1.405   .     A
C352   C3      1.524   1_556 S
C353   O405    1.289   .     A
C353   C355    1.433   .     S
C353   O403    1.290   .     A
C354   O406    1.289   .     A
C354   C356    1.433   .     S
C354   O404    1.290   .     A
C355   C472    1.332   1_455 S
C355   H499    1.087   1_455 S
C356   C413    1.332   .     S
C356   H447    1.087   .     S
C357   C359    1.390   .     A
C357   C368    1.399   .     A
C357   H390    1.083   .     S
C358   C369    1.399   .     A
C358   H391    1.083   .     S
C358   C361    1.389   .     A
C359   H392    1.083   .     S
C359   C362    1.404   .     A
C360   C363    1.467   .     S
C360   O400    1.301   .     A
C360   O402    1.294   .     A
C361   H393    1.083   .     S
C361   C363    1.404   .     A
C362   C364    1.415   .     A
C363   C365    1.416   .     A
C364   Cl377   1.763   .     S
C364   C366    1.391   .     A
C365   Cl378   1.765   .     S
C365   C367    1.392   .     A
C366   H394    1.084   .     S
C366   C368    1.398   .     A
C367   H395    1.084   .     S
C367   C369    1.398   .     A
C368   C543    1.463   1_545 S
C369   C542    1.463   .     S
C370   C372    1.402   .     A
C370   H396    1.079   .     S
C371   C373    1.402   .     A
C371   H384    1.079   .     S
C372   Cl379   1.756   .     S
C372   N397    1.374   .     A
C373   Cl380   1.757   .     S
C373   N398    1.374   .     A
C374   H385    1.081   .     S
C374   C376    1.409   .     A
C374   N397    1.363   .     A
C375   N398    1.362   .     A
C375   H386    1.082   .     S
C376   H387    1.079   .     S
Cu381  O403    1.960   .     S
Cu381  O406    1.959   .     S
Cu381  O399    1.957   .     S
Cu381  O402    1.959   .     S
Cu381  Cu382   2.686   .     S
Cu381  N398    2.018   .     S
Cu382  O405    1.959   .     S
Cu382  O404    1.960   .     S
Cu382  O401    1.959   .     S
Cu382  N397    2.018   .     S
Cu382  O400    1.957   .     S
H383   C413    1.087   .     S
H389   C472    1.087   1_455 S
C407   O457    1.300   .     A
C407   O459    1.295   .     A
C407   C420    1.466   .     S
C408   C410    1.417   .     A
C408   C433    1.409   .     A
C408   H446    1.079   .     S
C409   C434    1.417   .     A
C409   C428    1.405   .     A
C410   C429    1.405   .     A
C410   C61     1.524   1_556 S
C411   O463    1.289   .     A
C411   C413    1.433   .     S
C411   O461    1.290   .     A
C412   O464    1.289   .     A
C412   C414    1.433   .     S
C412   O462    1.290   .     A
C414   C471    1.332   .     S
C414   H505    1.087   .     S
C415   C417    1.390   .     A
C415   C426    1.399   .     A
C415   H448    1.083   .     S
C416   C427    1.399   .     A
C416   H449    1.083   .     S
C416   C419    1.389   .     A
C417   H450    1.083   .     S
C417   C420    1.404   .     A
C418   C421    1.467   .     S
C418   O458    1.301   .     A
C418   O460    1.294   .     A
C419   H451    1.083   .     S
C419   C421    1.404   .     A
C420   C422    1.415   .     A
C421   C423    1.416   .     A
C422   Cl435   1.763   .     S
C422   C424    1.391   .     A
C423   Cl436   1.765   .     S
C423   C425    1.392   .     A
C424   H452    1.084   .     S
C424   C426    1.398   .     A
C425   H453    1.084   .     S
C425   C427    1.398   .     A
C426   C601    1.463   1_545 S
C427   C600    1.463   .     S
C428   C430    1.402   .     A
C428   H454    1.079   .     S
C429   C431    1.402   .     A
C429   H442    1.079   .     S
C430   Cl437   1.756   .     S
C430   N455    1.374   .     A
C431   Cl438   1.757   .     S
C431   N456    1.374   .     A
C432   H443    1.081   .     S
C432   C434    1.409   .     A
C432   N455    1.363   .     A
C433   N456    1.362   .     A
C433   H444    1.082   .     S
C434   H445    1.079   .     S
Cu439  O461    1.960   .     S
Cu439  O464    1.959   .     S
Cu439  O457    1.957   .     S
Cu439  O460    1.959   .     S
Cu439  Cu440   2.686   .     S
Cu439  N456    2.018   .     S
Cu440  O463    1.959   .     S
Cu440  O462    1.960   .     S
Cu440  O459    1.959   .     S
Cu440  N455    2.018   .     S
Cu440  O458    1.957   .     S
H441   C471    1.087   .     S
C465   O515    1.300   .     A
C465   O517    1.295   .     A
C465   C478    1.466   .     S
C466   C468    1.417   .     A
C466   C491    1.409   .     A
C466   H504    1.079   .     S
C467   C492    1.417   .     A
C467   C486    1.405   .     A
C468   C487    1.405   .     A
C468   C119    1.524   1_556 S
C469   O521    1.289   .     A
C469   C471    1.433   .     S
C469   O519    1.290   .     A
C470   O522    1.289   .     A
C470   C472    1.433   .     S
C470   O520    1.290   .     A
C472   C355    1.332   1_655 S
C472   H389    1.087   1_655 S
C473   C475    1.390   .     A
C473   C484    1.399   .     A
C473   H506    1.083   .     S
C474   C485    1.399   .     A
C474   H507    1.083   .     S
C474   C477    1.389   .     A
C475   H508    1.083   .     S
C475   C478    1.404   .     A
C476   C479    1.467   .     S
C476   O516    1.301   .     A
C476   O518    1.294   .     A
C477   H509    1.083   .     S
C477   C479    1.404   .     A
C478   C480    1.415   .     A
C479   C481    1.416   .     A
C480   Cl493   1.763   .     S
C480   C482    1.391   .     A
C481   Cl494   1.765   .     S
C481   C483    1.392   .     A
C482   H510    1.084   .     S
C482   C484    1.398   .     A
C483   H511    1.084   .     S
C483   C485    1.398   .     A
C484   C659    1.463   1_545 S
C485   C658    1.463   .     S
C486   C488    1.402   .     A
C486   H512    1.079   .     S
C487   C489    1.402   .     A
C487   H500    1.079   .     S
C488   Cl495   1.756   .     S
C488   N513    1.374   .     A
C489   Cl496   1.757   .     S
C489   N514    1.374   .     A
C490   H501    1.081   .     S
C490   C492    1.409   .     A
C490   N513    1.363   .     A
C491   N514    1.362   .     A
C491   H502    1.082   .     S
C492   H503    1.079   .     S
Cu497  O519    1.960   .     S
Cu497  O522    1.959   .     S
Cu497  O515    1.957   .     S
Cu497  O518    1.959   .     S
Cu497  Cu498   2.686   .     S
Cu497  N514    2.018   .     S
Cu498  O521    1.959   .     S
Cu498  O520    1.960   .     S
Cu498  O517    1.959   .     S
Cu498  N513    2.018   .     S
Cu498  O516    1.957   .     S
H499   C355    1.087   1_655 S
C523   O573    1.300   .     A
C523   O575    1.295   .     A
C523   C536    1.466   .     S
C524   C526    1.417   .     A
C524   C549    1.409   .     A
C524   H562    1.079   .     S
C525   C550    1.417   .     A
C525   C544    1.405   .     A
C526   C545    1.405   .     A
C526   C177    1.524   1_556 S
C527   O579    1.289   .     A
C527   C529    1.433   .     S
C527   O577    1.290   .     A
C528   O580    1.289   .     A
C528   C530    1.433   .     S
C528   O578    1.290   .     A
C529   C646    1.332   1_455 S
C529   H673    1.087   1_455 S
C530   C587    1.332   .     S
C530   H621    1.087   .     S
C531   C533    1.390   .     A
C531   C542    1.399   .     A
C531   H564    1.083   .     S
C532   C543    1.399   .     A
C532   H565    1.083   .     S
C532   C535    1.389   .     A
C533   H566    1.083   .     S
C533   C536    1.404   .     A
C534   C537    1.467   .     S
C534   O574    1.301   .     A
C534   O576    1.294   .     A
C535   H567    1.083   .     S
C535   C537    1.404   .     A
C536   C538    1.415   .     A
C537   C539    1.416   .     A
C538   Cl551   1.763   .     S
C538   C540    1.391   .     A
C539   Cl552   1.765   .     S
C539   C541    1.392   .     A
C540   H568    1.084   .     S
C540   C542    1.398   .     A
C541   H569    1.084   .     S
C541   C543    1.398   .     A
C543   C368    1.463   1_565 S
C544   C546    1.402   .     A
C544   H570    1.079   .     S
C545   C547    1.402   .     A
C545   H558    1.079   .     S
C546   Cl553   1.756   .     S
C546   N571    1.374   .     A
C547   Cl554   1.757   .     S
C547   N572    1.374   .     A
C548   H559    1.081   .     S
C548   C550    1.409   .     A
C548   N571    1.363   .     A
C549   N572    1.362   .     A
C549   H560    1.082   .     S
C550   H561    1.079   .     S
Cu555  O577    1.960   .     S
Cu555  O580    1.959   .     S
Cu555  O573    1.957   .     S
Cu555  O576    1.959   .     S
Cu555  Cu556   2.686   .     S
Cu555  N572    2.018   .     S
Cu556  O579    1.959   .     S
Cu556  O578    1.960   .     S
Cu556  O575    1.959   .     S
Cu556  N571    2.018   .     S
Cu556  O574    1.957   .     S
H557   C587    1.087   .     S
H563   C646    1.087   1_455 S
C581   O631    1.300   .     A
C581   O633    1.295   .     A
C581   C594    1.466   .     S
C582   C584    1.417   .     A
C582   C607    1.409   .     A
C582   H620    1.079   .     S
C583   C608    1.417   .     A
C583   C602    1.405   .     A
C584   C603    1.405   .     A
C584   C235    1.524   1_556 S
C585   O637    1.289   .     A
C585   C587    1.433   .     S
C585   O635    1.290   .     A
C586   O638    1.289   .     A
C586   C588    1.433   .     S
C586   O636    1.290   .     A
C588   C645    1.332   .     S
C588   H679    1.087   .     S
C589   C591    1.390   .     A
C589   C600    1.399   .     A
C589   H622    1.083   .     S
C590   C601    1.399   .     A
C590   H623    1.083   .     S
C590   C593    1.389   .     A
C591   H624    1.083   .     S
C591   C594    1.404   .     A
C592   C595    1.467   .     S
C592   O632    1.301   .     A
C592   O634    1.294   .     A
C593   H625    1.083   .     S
C593   C595    1.404   .     A
C594   C596    1.415   .     A
C595   C597    1.416   .     A
C596   Cl609   1.763   .     S
C596   C598    1.391   .     A
C597   Cl610   1.765   .     S
C597   C599    1.392   .     A
C598   H626    1.084   .     S
C598   C600    1.398   .     A
C599   H627    1.084   .     S
C599   C601    1.398   .     A
C601   C426    1.463   1_565 S
C602   C604    1.402   .     A
C602   H628    1.079   .     S
C603   C605    1.402   .     A
C603   H616    1.079   .     S
C604   Cl611   1.756   .     S
C604   N629    1.374   .     A
C605   Cl612   1.757   .     S
C605   N630    1.374   .     A
C606   H617    1.081   .     S
C606   C608    1.409   .     A
C606   N629    1.363   .     A
C607   N630    1.362   .     A
C607   H618    1.082   .     S
C608   H619    1.079   .     S
Cu613  O635    1.960   .     S
Cu613  O638    1.959   .     S
Cu613  O631    1.957   .     S
Cu613  O634    1.959   .     S
Cu613  Cu614   2.686   .     S
Cu613  N630    2.018   .     S
Cu614  O637    1.959   .     S
Cu614  O636    1.960   .     S
Cu614  O633    1.959   .     S
Cu614  N629    2.018   .     S
Cu614  O632    1.957   .     S
H615   C645    1.087   .     S
C639   O689    1.300   .     A
C639   O691    1.295   .     A
C639   C652    1.466   .     S
C640   C642    1.417   .     A
C640   C665    1.409   .     A
C640   H678    1.079   .     S
C641   C666    1.417   .     A
C641   C660    1.405   .     A
C642   C661    1.405   .     A
C642   C293    1.524   1_556 S
C643   O695    1.289   .     A
C643   C645    1.433   .     S
C643   O693    1.290   .     A
C644   O696    1.289   .     A
C644   C646    1.433   .     S
C644   O694    1.290   .     A
C646   C529    1.332   1_655 S
C646   H563    1.087   1_655 S
C647   C649    1.390   .     A
C647   C658    1.399   .     A
C647   H680    1.083   .     S
C648   C659    1.399   .     A
C648   H681    1.083   .     S
C648   C651    1.389   .     A
C649   H682    1.083   .     S
C649   C652    1.404   .     A
C650   C653    1.467   .     S
C650   O690    1.301   .     A
C650   O692    1.294   .     A
C651   H683    1.083   .     S
C651   C653    1.404   .     A
C652   C654    1.415   .     A
C653   C655    1.416   .     A
C654   Cl667   1.763   .     S
C654   C656    1.391   .     A
C655   Cl668   1.765   .     S
C655   C657    1.392   .     A
C656   H684    1.084   .     S
C656   C658    1.398   .     A
C657   H685    1.084   .     S
C657   C659    1.398   .     A
C659   C484    1.463   1_565 S
C660   C662    1.402   .     A
C660   H686    1.079   .     S
C661   C663    1.402   .     A
C661   H674    1.079   .     S
C662   Cl669   1.756   .     S
C662   N687    1.374   .     A
C663   Cl670   1.757   .     S
C663   N688    1.374   .     A
C664   H675    1.081   .     S
C664   C666    1.409   .     A
C664   N687    1.363   .     A
C665   N688    1.362   .     A
C665   H676    1.082   .     S
C666   H677    1.079   .     S
Cu671  O693    1.960   .     S
Cu671  O696    1.959   .     S
Cu671  O689    1.957   .     S
Cu671  O692    1.959   .     S
Cu671  Cu672   2.686   .     S
Cu671  N688    2.018   .     S
Cu672  O695    1.959   .     S
Cu672  O694    1.960   .     S
Cu672  O691    1.959   .     S
Cu672  N687    2.018   .     S
Cu672  O690    1.957   .     S
H673   C529    1.087   1_655 S
