data_str_m2_o1_o16_pcu_sym.195
_audit_creation_date              2020-01-03
_audit_creation_method            'Materials Studio'
_symmetry_space_group_name_H-M    'P1'
_symmetry_Int_Tables_number       1
_symmetry_cell_setting            triclinic
loop_
_symmetry_equiv_pos_as_xyz
  x,y,z
_cell_length_a                    28.5870
_cell_length_b                    32.5019
_cell_length_c                    27.0162
_cell_angle_alpha                 90.3053
_cell_angle_beta                  73.3722
_cell_angle_gamma                 90.2657
loop_
_atom_site_label
_atom_site_type_symbol
_atom_site_fract_x
_atom_site_fract_y
_atom_site_fract_z
_atom_site_U_iso_or_equiv
_atom_site_adp_type
_atom_site_occupancy
C1     C     0.16669   0.24589   0.25033   0.00000  Uiso   1.00
C2     C     0.14836   0.18489   0.48793   0.00000  Uiso   1.00
C3     C     0.16372   0.18503   0.43314   0.00000  Uiso   1.00
C4     C     0.18383   0.17843   0.01490   0.00000  Uiso   1.00
C5     C     0.23380   0.17467   0.48679   0.00000  Uiso   1.00
C6     C     0.24864   0.18237   0.43420   0.00000  Uiso   1.00
C7     C     0.21420   0.18952   0.40840   0.00000  Uiso   1.00
C8     C     0.17129   0.17432   0.06869   0.00000  Uiso   1.00
C9     C     0.25569   0.16161   0.06521   0.00000  Uiso   1.00
C10    C     0.12803   0.18158   0.40547   0.00000  Uiso   1.00
C11    C     0.21024   0.31228   0.23551   0.00000  Uiso   1.00
C12    C     0.14128   0.17130   0.34952   0.00000  Uiso   1.00
C13    C     0.20959   0.02150   0.23600   0.00000  Uiso   1.00
C14    C     0.16512   0.04259   0.25304   0.00000  Uiso   1.00
C15    C     0.12083   0.02034   0.27092   0.00000  Uiso   1.00
C16    C     0.12191   0.31103   0.26958   0.00000  Uiso   1.00
C17    C     0.16637   0.29036   0.25167   0.00000  Uiso   1.00
C18    C     0.30237   0.19749   0.27375   0.00000  Uiso   1.00
C19    C     0.01841   0.19722   0.27430   0.00000  Uiso   1.00
C20    C     0.03130   0.13631   0.22526   0.00000  Uiso   1.00
C21    C     0.31502   0.13624   0.22543   0.00000  Uiso   1.00
C22    C     0.16610   0.08736   0.25131   0.00000  Uiso   1.00
C23    C     0.19250   0.16629   0.15026   0.00000  Uiso   1.00
C24    C     0.26878   0.16466   0.01178   0.00000  Uiso   1.00
C25    C     0.20700   0.16728   0.09390   0.00000  Uiso   1.00
C26    C     0.07873   0.18778   0.43225   0.00000  Uiso   1.00
C27    C     0.06476   0.19506   0.48522   0.00000  Uiso   1.00
C28    C     0.09845   0.19189   0.01321   0.00000  Uiso   1.00
Cu29   Cu    0.11978   0.16666   0.25000   0.00000  Uiso   1.00
Cu30   Cu    0.21355   0.16667   0.25000   0.00000  Uiso   1.00
H31    H     0.28355   0.15486   0.08399   0.00000  Uiso   1.00
H32    H     0.24393   0.03790   0.22226   0.00000  Uiso   1.00
H33    H     0.08802   0.29390   0.28325   0.00000  Uiso   1.00
H34    H     0.27909   0.22259   0.29215   0.00000  Uiso   1.00
H35    H     0.03180   0.22166   0.29398   0.00000  Uiso   1.00
H36    H     0.05516   0.11202   0.20528   0.00000  Uiso   1.00
H37    H     0.30167   0.11189   0.20557   0.00000  Uiso   1.00
H38    H     0.28708   0.18360   0.41301   0.00000  Uiso   1.00
H39    H     0.30616   0.15909   0.48967   0.00000  Uiso   1.00
H40    H     0.13390   0.17644   0.09189   0.00000  Uiso   1.00
H41    H     0.05096   0.18777   0.41212   0.00000  Uiso   1.00
H42    H     0.08445   0.19644   0.05432   0.00000  Uiso   1.00
H43    H     0.02735   0.20252   0.00527   0.00000  Uiso   1.00
H44    H     0.22836   0.20043   0.36963   0.00000  Uiso   1.00
H45    H     0.24491   0.29656   0.22166   0.00000  Uiso   1.00
N46    N     0.04931   0.16666   0.24998   0.00000  Uiso   1.00
N47    N     0.28402   0.16669   0.24999   0.00000  Uiso   1.00
O48    O     0.12708   0.22678   0.25000   0.00000  Uiso   1.00
O49    O     0.20627   0.22679   0.25000   0.00000  Uiso   1.00
O50    O     0.10775   0.16665   0.32549   0.00000  Uiso   1.00
O51    O     0.18694   0.16666   0.32549   0.00000  Uiso   1.00
O52    O     0.12706   0.10654   0.24999   0.00000  Uiso   1.00
O53    O     0.20625   0.10655   0.24999   0.00000  Uiso   1.00
O54    O     0.14640   0.16667   0.17451   0.00000  Uiso   1.00
O55    O     0.22559   0.16668   0.17451   0.00000  Uiso   1.00
C56    C     0.07398   0.03987   0.29236   0.00000  Uiso   1.00
N57    N     0.03643   0.05539   0.30957   0.00000  Uiso   1.00
C58    C     0.50002   0.24589   0.25033   0.00000  Uiso   1.00
C59    C     0.48169   0.18489   0.48793   0.00000  Uiso   1.00
C60    C     0.49705   0.18503   0.43314   0.00000  Uiso   1.00
C61    C     0.51717   0.17843   0.01490   0.00000  Uiso   1.00
C62    C     0.56714   0.17467   0.48679   0.00000  Uiso   1.00
C63    C     0.58198   0.18237   0.43420   0.00000  Uiso   1.00
C64    C     0.54754   0.18952   0.40840   0.00000  Uiso   1.00
C65    C     0.50462   0.17432   0.06869   0.00000  Uiso   1.00
C66    C     0.58902   0.16161   0.06521   0.00000  Uiso   1.00
C67    C     0.46137   0.18158   0.40547   0.00000  Uiso   1.00
C68    C     0.54357   0.31228   0.23551   0.00000  Uiso   1.00
C69    C     0.47461   0.17130   0.34952   0.00000  Uiso   1.00
C70    C     0.54292   0.02150   0.23600   0.00000  Uiso   1.00
C71    C     0.49845   0.04259   0.25304   0.00000  Uiso   1.00
C72    C     0.45416   0.02034   0.27092   0.00000  Uiso   1.00
C73    C     0.45524   0.31103   0.26958   0.00000  Uiso   1.00
C74    C     0.49971   0.29036   0.25167   0.00000  Uiso   1.00
C75    C     0.63570   0.19749   0.27375   0.00000  Uiso   1.00
C76    C     0.35174   0.19722   0.27430   0.00000  Uiso   1.00
C77    C     0.36463   0.13631   0.22526   0.00000  Uiso   1.00
C78    C     0.64835   0.13624   0.22543   0.00000  Uiso   1.00
C79    C     0.49943   0.08736   0.25131   0.00000  Uiso   1.00
C80    C     0.52583   0.16629   0.15026   0.00000  Uiso   1.00
C81    C     0.60211   0.16466   0.01178   0.00000  Uiso   1.00
C82    C     0.54033   0.16728   0.09390   0.00000  Uiso   1.00
C83    C     0.41207   0.18778   0.43225   0.00000  Uiso   1.00
C84    C     0.39809   0.19506   0.48522   0.00000  Uiso   1.00
C85    C     0.43179   0.19189   0.01321   0.00000  Uiso   1.00
Cu86   Cu    0.45311   0.16666   0.25000   0.00000  Uiso   1.00
Cu87   Cu    0.54689   0.16667   0.25000   0.00000  Uiso   1.00
H88    H     0.61688   0.15486   0.08399   0.00000  Uiso   1.00
H89    H     0.57726   0.03790   0.22226   0.00000  Uiso   1.00
H90    H     0.42135   0.29390   0.28325   0.00000  Uiso   1.00
H91    H     0.61242   0.22259   0.29215   0.00000  Uiso   1.00
H92    H     0.36513   0.22166   0.29398   0.00000  Uiso   1.00
H93    H     0.38849   0.11202   0.20528   0.00000  Uiso   1.00
H94    H     0.63500   0.11189   0.20557   0.00000  Uiso   1.00
H95    H     0.62042   0.18360   0.41301   0.00000  Uiso   1.00
H96    H     0.63949   0.15909   0.48967   0.00000  Uiso   1.00
H97    H     0.46723   0.17644   0.09189   0.00000  Uiso   1.00
H98    H     0.38430   0.18777   0.41212   0.00000  Uiso   1.00
H99    H     0.41779   0.19644   0.05432   0.00000  Uiso   1.00
H100   H     0.36069   0.20252   0.00527   0.00000  Uiso   1.00
H101   H     0.56170   0.20043   0.36963   0.00000  Uiso   1.00
H102   H     0.57824   0.29656   0.22166   0.00000  Uiso   1.00
N103   N     0.38265   0.16666   0.24998   0.00000  Uiso   1.00
N104   N     0.61735   0.16669   0.24999   0.00000  Uiso   1.00
O105   O     0.46042   0.22678   0.25000   0.00000  Uiso   1.00
O106   O     0.53961   0.22679   0.25000   0.00000  Uiso   1.00
O107   O     0.44108   0.16665   0.32549   0.00000  Uiso   1.00
O108   O     0.52027   0.16666   0.32549   0.00000  Uiso   1.00
O109   O     0.46039   0.10654   0.24999   0.00000  Uiso   1.00
O110   O     0.53958   0.10655   0.24999   0.00000  Uiso   1.00
O111   O     0.47973   0.16667   0.17451   0.00000  Uiso   1.00
O112   O     0.55892   0.16668   0.17451   0.00000  Uiso   1.00
C113   C     0.40731   0.03987   0.29236   0.00000  Uiso   1.00
N114   N     0.36977   0.05539   0.30957   0.00000  Uiso   1.00
C115   C     0.83335   0.24589   0.25033   0.00000  Uiso   1.00
C116   C     0.81502   0.18489   0.48793   0.00000  Uiso   1.00
C117   C     0.83039   0.18503   0.43314   0.00000  Uiso   1.00
C118   C     0.85050   0.17843   0.01490   0.00000  Uiso   1.00
C119   C     0.90047   0.17467   0.48679   0.00000  Uiso   1.00
C120   C     0.91531   0.18237   0.43420   0.00000  Uiso   1.00
C121   C     0.88087   0.18952   0.40840   0.00000  Uiso   1.00
C122   C     0.83795   0.17432   0.06869   0.00000  Uiso   1.00
C123   C     0.92236   0.16161   0.06521   0.00000  Uiso   1.00
C124   C     0.79470   0.18158   0.40547   0.00000  Uiso   1.00
C125   C     0.87690   0.31228   0.23551   0.00000  Uiso   1.00
C126   C     0.80795   0.17130   0.34952   0.00000  Uiso   1.00
C127   C     0.87625   0.02150   0.23600   0.00000  Uiso   1.00
C128   C     0.83178   0.04259   0.25304   0.00000  Uiso   1.00
C129   C     0.78749   0.02034   0.27092   0.00000  Uiso   1.00
C130   C     0.78858   0.31103   0.26958   0.00000  Uiso   1.00
C131   C     0.83304   0.29036   0.25167   0.00000  Uiso   1.00
C132   C     0.96903   0.19749   0.27375   0.00000  Uiso   1.00
C133   C     0.68507   0.19722   0.27430   0.00000  Uiso   1.00
C134   C     0.69797   0.13631   0.22526   0.00000  Uiso   1.00
C135   C     0.98169   0.13624   0.22543   0.00000  Uiso   1.00
C136   C     0.83276   0.08736   0.25131   0.00000  Uiso   1.00
C137   C     0.85916   0.16629   0.15026   0.00000  Uiso   1.00
C138   C     0.93544   0.16466   0.01178   0.00000  Uiso   1.00
C139   C     0.87367   0.16728   0.09390   0.00000  Uiso   1.00
C140   C     0.74540   0.18778   0.43225   0.00000  Uiso   1.00
C141   C     0.73143   0.19506   0.48522   0.00000  Uiso   1.00
C142   C     0.76512   0.19189   0.01321   0.00000  Uiso   1.00
Cu143  Cu    0.78645   0.16666   0.25000   0.00000  Uiso   1.00
Cu144  Cu    0.88022   0.16667   0.25000   0.00000  Uiso   1.00
H145   H     0.95021   0.15486   0.08399   0.00000  Uiso   1.00
H146   H     0.91059   0.03790   0.22226   0.00000  Uiso   1.00
H147   H     0.75468   0.29390   0.28325   0.00000  Uiso   1.00
H148   H     0.94576   0.22259   0.29215   0.00000  Uiso   1.00
H149   H     0.69846   0.22166   0.29398   0.00000  Uiso   1.00
H150   H     0.72183   0.11202   0.20528   0.00000  Uiso   1.00
H151   H     0.96834   0.11189   0.20557   0.00000  Uiso   1.00
H152   H     0.95375   0.18360   0.41301   0.00000  Uiso   1.00
H153   H     0.97282   0.15909   0.48967   0.00000  Uiso   1.00
H154   H     0.80056   0.17644   0.09189   0.00000  Uiso   1.00
H155   H     0.71763   0.18777   0.41212   0.00000  Uiso   1.00
H156   H     0.75112   0.19644   0.05432   0.00000  Uiso   1.00
H157   H     0.69402   0.20252   0.00527   0.00000  Uiso   1.00
H158   H     0.89503   0.20043   0.36963   0.00000  Uiso   1.00
H159   H     0.91158   0.29656   0.22166   0.00000  Uiso   1.00
N160   N     0.71598   0.16666   0.24998   0.00000  Uiso   1.00
N161   N     0.95069   0.16669   0.24999   0.00000  Uiso   1.00
O162   O     0.79375   0.22678   0.25000   0.00000  Uiso   1.00
O163   O     0.87294   0.22679   0.25000   0.00000  Uiso   1.00
O164   O     0.77441   0.16665   0.32549   0.00000  Uiso   1.00
O165   O     0.85360   0.16666   0.32549   0.00000  Uiso   1.00
O166   O     0.79373   0.10654   0.24999   0.00000  Uiso   1.00
O167   O     0.87292   0.10655   0.24999   0.00000  Uiso   1.00
O168   O     0.81306   0.16667   0.17451   0.00000  Uiso   1.00
O169   O     0.89225   0.16668   0.17451   0.00000  Uiso   1.00
C170   C     0.74065   0.03987   0.29236   0.00000  Uiso   1.00
N171   N     0.70310   0.05539   0.30957   0.00000  Uiso   1.00
C172   C     0.16669   0.57922   0.25033   0.00000  Uiso   1.00
C173   C     0.14836   0.51823   0.48793   0.00000  Uiso   1.00
C174   C     0.16372   0.51836   0.43314   0.00000  Uiso   1.00
C175   C     0.18383   0.51176   0.01490   0.00000  Uiso   1.00
C176   C     0.23380   0.50801   0.48679   0.00000  Uiso   1.00
C177   C     0.24864   0.51571   0.43420   0.00000  Uiso   1.00
C178   C     0.21420   0.52286   0.40840   0.00000  Uiso   1.00
C179   C     0.17129   0.50765   0.06869   0.00000  Uiso   1.00
C180   C     0.25569   0.49494   0.06521   0.00000  Uiso   1.00
C181   C     0.12803   0.51491   0.40547   0.00000  Uiso   1.00
C182   C     0.21024   0.64561   0.23551   0.00000  Uiso   1.00
C183   C     0.14128   0.50464   0.34952   0.00000  Uiso   1.00
C184   C     0.20959   0.35484   0.23600   0.00000  Uiso   1.00
C185   C     0.16512   0.37593   0.25304   0.00000  Uiso   1.00
C186   C     0.12083   0.35367   0.27092   0.00000  Uiso   1.00
C187   C     0.12191   0.64436   0.26958   0.00000  Uiso   1.00
C188   C     0.16637   0.62370   0.25167   0.00000  Uiso   1.00
C189   C     0.30237   0.53083   0.27375   0.00000  Uiso   1.00
C190   C     0.01841   0.53055   0.27430   0.00000  Uiso   1.00
C191   C     0.03130   0.46964   0.22526   0.00000  Uiso   1.00
C192   C     0.31502   0.46957   0.22543   0.00000  Uiso   1.00
C193   C     0.16610   0.42070   0.25131   0.00000  Uiso   1.00
C194   C     0.19250   0.49963   0.15026   0.00000  Uiso   1.00
C195   C     0.26878   0.49800   0.01178   0.00000  Uiso   1.00
C196   C     0.20700   0.50061   0.09390   0.00000  Uiso   1.00
C197   C     0.07873   0.52111   0.43225   0.00000  Uiso   1.00
C198   C     0.06476   0.52839   0.48522   0.00000  Uiso   1.00
C199   C     0.09845   0.52522   0.01321   0.00000  Uiso   1.00
Cu200  Cu    0.11978   0.49999   0.25000   0.00000  Uiso   1.00
Cu201  Cu    0.21355   0.50001   0.25000   0.00000  Uiso   1.00
H202   H     0.28355   0.48820   0.08399   0.00000  Uiso   1.00
H203   H     0.24393   0.37123   0.22226   0.00000  Uiso   1.00
H204   H     0.08802   0.62723   0.28325   0.00000  Uiso   1.00
H205   H     0.27909   0.55593   0.29215   0.00000  Uiso   1.00
H206   H     0.03180   0.55499   0.29398   0.00000  Uiso   1.00
H207   H     0.05516   0.44535   0.20528   0.00000  Uiso   1.00
H208   H     0.30167   0.44522   0.20557   0.00000  Uiso   1.00
H209   H     0.28708   0.51694   0.41301   0.00000  Uiso   1.00
H210   H     0.30616   0.49242   0.48967   0.00000  Uiso   1.00
H211   H     0.13390   0.50977   0.09189   0.00000  Uiso   1.00
H212   H     0.05096   0.52110   0.41212   0.00000  Uiso   1.00
H213   H     0.08445   0.52977   0.05432   0.00000  Uiso   1.00
H214   H     0.02735   0.53585   0.00527   0.00000  Uiso   1.00
H215   H     0.22836   0.53376   0.36963   0.00000  Uiso   1.00
H216   H     0.24491   0.62989   0.22166   0.00000  Uiso   1.00
N217   N     0.04931   0.49999   0.24998   0.00000  Uiso   1.00
N218   N     0.28402   0.50002   0.24999   0.00000  Uiso   1.00
O219   O     0.12708   0.56011   0.25000   0.00000  Uiso   1.00
O220   O     0.20627   0.56012   0.25000   0.00000  Uiso   1.00
O221   O     0.10775   0.49998   0.32549   0.00000  Uiso   1.00
O222   O     0.18694   0.49999   0.32549   0.00000  Uiso   1.00
O223   O     0.12706   0.43988   0.24999   0.00000  Uiso   1.00
O224   O     0.20625   0.43989   0.24999   0.00000  Uiso   1.00
O225   O     0.14640   0.50001   0.17451   0.00000  Uiso   1.00
O226   O     0.22559   0.50002   0.17451   0.00000  Uiso   1.00
C227   C     0.07398   0.37320   0.29236   0.00000  Uiso   1.00
N228   N     0.03643   0.38873   0.30957   0.00000  Uiso   1.00
C229   C     0.50002   0.57922   0.25033   0.00000  Uiso   1.00
C230   C     0.48169   0.51823   0.48793   0.00000  Uiso   1.00
C231   C     0.49705   0.51836   0.43314   0.00000  Uiso   1.00
C232   C     0.51717   0.51176   0.01490   0.00000  Uiso   1.00
C233   C     0.56714   0.50801   0.48679   0.00000  Uiso   1.00
C234   C     0.58198   0.51571   0.43420   0.00000  Uiso   1.00
C235   C     0.54754   0.52286   0.40840   0.00000  Uiso   1.00
C236   C     0.50462   0.50765   0.06869   0.00000  Uiso   1.00
C237   C     0.58902   0.49494   0.06521   0.00000  Uiso   1.00
C238   C     0.46137   0.51491   0.40547   0.00000  Uiso   1.00
C239   C     0.54357   0.64561   0.23551   0.00000  Uiso   1.00
C240   C     0.47461   0.50464   0.34952   0.00000  Uiso   1.00
C241   C     0.54292   0.35484   0.23600   0.00000  Uiso   1.00
C242   C     0.49845   0.37593   0.25304   0.00000  Uiso   1.00
C243   C     0.45416   0.35367   0.27092   0.00000  Uiso   1.00
C244   C     0.45524   0.64436   0.26958   0.00000  Uiso   1.00
C245   C     0.49971   0.62370   0.25167   0.00000  Uiso   1.00
C246   C     0.63570   0.53083   0.27375   0.00000  Uiso   1.00
C247   C     0.35174   0.53055   0.27430   0.00000  Uiso   1.00
C248   C     0.36463   0.46964   0.22526   0.00000  Uiso   1.00
C249   C     0.64835   0.46957   0.22543   0.00000  Uiso   1.00
C250   C     0.49943   0.42070   0.25131   0.00000  Uiso   1.00
C251   C     0.52583   0.49963   0.15026   0.00000  Uiso   1.00
C252   C     0.60211   0.49800   0.01178   0.00000  Uiso   1.00
C253   C     0.54033   0.50061   0.09390   0.00000  Uiso   1.00
C254   C     0.41207   0.52111   0.43225   0.00000  Uiso   1.00
C255   C     0.39809   0.52839   0.48522   0.00000  Uiso   1.00
C256   C     0.43179   0.52522   0.01321   0.00000  Uiso   1.00
Cu257  Cu    0.45311   0.49999   0.25000   0.00000  Uiso   1.00
Cu258  Cu    0.54689   0.50001   0.25000   0.00000  Uiso   1.00
H259   H     0.61688   0.48820   0.08399   0.00000  Uiso   1.00
H260   H     0.57726   0.37123   0.22226   0.00000  Uiso   1.00
H261   H     0.42135   0.62723   0.28325   0.00000  Uiso   1.00
H262   H     0.61242   0.55593   0.29215   0.00000  Uiso   1.00
H263   H     0.36513   0.55499   0.29398   0.00000  Uiso   1.00
H264   H     0.38849   0.44535   0.20528   0.00000  Uiso   1.00
H265   H     0.63500   0.44522   0.20557   0.00000  Uiso   1.00
H266   H     0.62042   0.51694   0.41301   0.00000  Uiso   1.00
H267   H     0.63949   0.49242   0.48967   0.00000  Uiso   1.00
H268   H     0.46723   0.50977   0.09189   0.00000  Uiso   1.00
H269   H     0.38430   0.52110   0.41212   0.00000  Uiso   1.00
H270   H     0.41779   0.52977   0.05432   0.00000  Uiso   1.00
H271   H     0.36069   0.53585   0.00527   0.00000  Uiso   1.00
H272   H     0.56170   0.53376   0.36963   0.00000  Uiso   1.00
H273   H     0.57824   0.62989   0.22166   0.00000  Uiso   1.00
N274   N     0.38265   0.49999   0.24998   0.00000  Uiso   1.00
N275   N     0.61735   0.50002   0.24999   0.00000  Uiso   1.00
O276   O     0.46042   0.56011   0.25000   0.00000  Uiso   1.00
O277   O     0.53961   0.56012   0.25000   0.00000  Uiso   1.00
O278   O     0.44108   0.49998   0.32549   0.00000  Uiso   1.00
O279   O     0.52027   0.49999   0.32549   0.00000  Uiso   1.00
O280   O     0.46039   0.43988   0.24999   0.00000  Uiso   1.00
O281   O     0.53958   0.43989   0.24999   0.00000  Uiso   1.00
O282   O     0.47973   0.50001   0.17451   0.00000  Uiso   1.00
O283   O     0.55892   0.50002   0.17451   0.00000  Uiso   1.00
C284   C     0.40731   0.37320   0.29236   0.00000  Uiso   1.00
N285   N     0.36977   0.38873   0.30957   0.00000  Uiso   1.00
C286   C     0.83335   0.57922   0.25033   0.00000  Uiso   1.00
C287   C     0.81502   0.51823   0.48793   0.00000  Uiso   1.00
C288   C     0.83039   0.51836   0.43314   0.00000  Uiso   1.00
C289   C     0.85050   0.51176   0.01490   0.00000  Uiso   1.00
C290   C     0.90047   0.50801   0.48679   0.00000  Uiso   1.00
C291   C     0.91531   0.51571   0.43420   0.00000  Uiso   1.00
C292   C     0.88087   0.52286   0.40840   0.00000  Uiso   1.00
C293   C     0.83795   0.50765   0.06869   0.00000  Uiso   1.00
C294   C     0.92236   0.49494   0.06521   0.00000  Uiso   1.00
C295   C     0.79470   0.51491   0.40547   0.00000  Uiso   1.00
C296   C     0.87690   0.64561   0.23551   0.00000  Uiso   1.00
C297   C     0.80795   0.50464   0.34952   0.00000  Uiso   1.00
C298   C     0.87625   0.35484   0.23600   0.00000  Uiso   1.00
C299   C     0.83178   0.37593   0.25304   0.00000  Uiso   1.00
C300   C     0.78749   0.35367   0.27092   0.00000  Uiso   1.00
C301   C     0.78858   0.64436   0.26958   0.00000  Uiso   1.00
C302   C     0.83304   0.62370   0.25167   0.00000  Uiso   1.00
C303   C     0.96903   0.53083   0.27375   0.00000  Uiso   1.00
C304   C     0.68507   0.53055   0.27430   0.00000  Uiso   1.00
C305   C     0.69797   0.46964   0.22526   0.00000  Uiso   1.00
C306   C     0.98169   0.46957   0.22543   0.00000  Uiso   1.00
C307   C     0.83276   0.42070   0.25131   0.00000  Uiso   1.00
C308   C     0.85916   0.49963   0.15026   0.00000  Uiso   1.00
C309   C     0.93544   0.49800   0.01178   0.00000  Uiso   1.00
C310   C     0.87367   0.50061   0.09390   0.00000  Uiso   1.00
C311   C     0.74540   0.52111   0.43225   0.00000  Uiso   1.00
C312   C     0.73143   0.52839   0.48522   0.00000  Uiso   1.00
C313   C     0.76512   0.52522   0.01321   0.00000  Uiso   1.00
Cu314  Cu    0.78645   0.49999   0.25000   0.00000  Uiso   1.00
Cu315  Cu    0.88022   0.50001   0.25000   0.00000  Uiso   1.00
H316   H     0.95021   0.48820   0.08399   0.00000  Uiso   1.00
H317   H     0.91059   0.37123   0.22226   0.00000  Uiso   1.00
H318   H     0.75468   0.62723   0.28325   0.00000  Uiso   1.00
H319   H     0.94576   0.55593   0.29215   0.00000  Uiso   1.00
H320   H     0.69846   0.55499   0.29398   0.00000  Uiso   1.00
H321   H     0.72183   0.44535   0.20528   0.00000  Uiso   1.00
H322   H     0.96834   0.44522   0.20557   0.00000  Uiso   1.00
H323   H     0.95375   0.51694   0.41301   0.00000  Uiso   1.00
H324   H     0.97282   0.49242   0.48967   0.00000  Uiso   1.00
H325   H     0.80056   0.50977   0.09189   0.00000  Uiso   1.00
H326   H     0.71763   0.52110   0.41212   0.00000  Uiso   1.00
H327   H     0.75112   0.52977   0.05432   0.00000  Uiso   1.00
H328   H     0.69402   0.53585   0.00527   0.00000  Uiso   1.00
H329   H     0.89503   0.53376   0.36963   0.00000  Uiso   1.00
H330   H     0.91158   0.62989   0.22166   0.00000  Uiso   1.00
N331   N     0.71598   0.49999   0.24998   0.00000  Uiso   1.00
N332   N     0.95069   0.50002   0.24999   0.00000  Uiso   1.00
O333   O     0.79375   0.56011   0.25000   0.00000  Uiso   1.00
O334   O     0.87294   0.56012   0.25000   0.00000  Uiso   1.00
O335   O     0.77441   0.49998   0.32549   0.00000  Uiso   1.00
O336   O     0.85360   0.49999   0.32549   0.00000  Uiso   1.00
O337   O     0.79373   0.43988   0.24999   0.00000  Uiso   1.00
O338   O     0.87292   0.43989   0.24999   0.00000  Uiso   1.00
O339   O     0.81306   0.50001   0.17451   0.00000  Uiso   1.00
O340   O     0.89225   0.50002   0.17451   0.00000  Uiso   1.00
C341   C     0.74065   0.37320   0.29236   0.00000  Uiso   1.00
N342   N     0.70310   0.38873   0.30957   0.00000  Uiso   1.00
C343   C     0.16669   0.91256   0.25033   0.00000  Uiso   1.00
C344   C     0.14836   0.85156   0.48793   0.00000  Uiso   1.00
C345   C     0.16372   0.85169   0.43314   0.00000  Uiso   1.00
C346   C     0.18383   0.84510   0.01490   0.00000  Uiso   1.00
C347   C     0.23380   0.84134   0.48679   0.00000  Uiso   1.00
C348   C     0.24864   0.84904   0.43420   0.00000  Uiso   1.00
C349   C     0.21420   0.85619   0.40840   0.00000  Uiso   1.00
C350   C     0.17129   0.84099   0.06869   0.00000  Uiso   1.00
C351   C     0.25569   0.82827   0.06521   0.00000  Uiso   1.00
C352   C     0.12803   0.84824   0.40547   0.00000  Uiso   1.00
C353   C     0.21024   0.97895   0.23551   0.00000  Uiso   1.00
C354   C     0.14128   0.83797   0.34952   0.00000  Uiso   1.00
C355   C     0.20959   0.68817   0.23600   0.00000  Uiso   1.00
C356   C     0.16512   0.70926   0.25304   0.00000  Uiso   1.00
C357   C     0.12083   0.68700   0.27092   0.00000  Uiso   1.00
C358   C     0.12191   0.97769   0.26958   0.00000  Uiso   1.00
C359   C     0.16637   0.95703   0.25167   0.00000  Uiso   1.00
C360   C     0.30237   0.86416   0.27375   0.00000  Uiso   1.00
C361   C     0.01841   0.86388   0.27430   0.00000  Uiso   1.00
C362   C     0.03130   0.80297   0.22526   0.00000  Uiso   1.00
C363   C     0.31502   0.80290   0.22543   0.00000  Uiso   1.00
C364   C     0.16610   0.75403   0.25131   0.00000  Uiso   1.00
C365   C     0.19250   0.83296   0.15026   0.00000  Uiso   1.00
C366   C     0.26878   0.83133   0.01178   0.00000  Uiso   1.00
C367   C     0.20700   0.83394   0.09390   0.00000  Uiso   1.00
C368   C     0.07873   0.85444   0.43225   0.00000  Uiso   1.00
C369   C     0.06476   0.86172   0.48522   0.00000  Uiso   1.00
C370   C     0.09845   0.85856   0.01321   0.00000  Uiso   1.00
Cu371  Cu    0.11978   0.83333   0.25000   0.00000  Uiso   1.00
Cu372  Cu    0.21355   0.83334   0.25000   0.00000  Uiso   1.00
H373   H     0.28355   0.82153   0.08399   0.00000  Uiso   1.00
H374   H     0.24393   0.70456   0.22226   0.00000  Uiso   1.00
H375   H     0.08802   0.96056   0.28325   0.00000  Uiso   1.00
H376   H     0.27909   0.88926   0.29215   0.00000  Uiso   1.00
H377   H     0.03180   0.88832   0.29398   0.00000  Uiso   1.00
H378   H     0.05516   0.77868   0.20528   0.00000  Uiso   1.00
H379   H     0.30167   0.77855   0.20557   0.00000  Uiso   1.00
H380   H     0.28708   0.85027   0.41301   0.00000  Uiso   1.00
H381   H     0.30616   0.82575   0.48967   0.00000  Uiso   1.00
H382   H     0.13390   0.84310   0.09189   0.00000  Uiso   1.00
H383   H     0.05096   0.85443   0.41212   0.00000  Uiso   1.00
H384   H     0.08445   0.86311   0.05432   0.00000  Uiso   1.00
H385   H     0.02735   0.86919   0.00527   0.00000  Uiso   1.00
H386   H     0.22836   0.86710   0.36963   0.00000  Uiso   1.00
H387   H     0.24491   0.96322   0.22166   0.00000  Uiso   1.00
N388   N     0.04931   0.83332   0.24998   0.00000  Uiso   1.00
N389   N     0.28402   0.83335   0.24999   0.00000  Uiso   1.00
O390   O     0.12708   0.89345   0.25000   0.00000  Uiso   1.00
O391   O     0.20627   0.89346   0.25000   0.00000  Uiso   1.00
O392   O     0.10775   0.83332   0.32549   0.00000  Uiso   1.00
O393   O     0.18694   0.83333   0.32549   0.00000  Uiso   1.00
O394   O     0.12706   0.77321   0.24999   0.00000  Uiso   1.00
O395   O     0.20625   0.77322   0.24999   0.00000  Uiso   1.00
O396   O     0.14640   0.83334   0.17451   0.00000  Uiso   1.00
O397   O     0.22559   0.83335   0.17451   0.00000  Uiso   1.00
C398   C     0.07398   0.70653   0.29236   0.00000  Uiso   1.00
N399   N     0.03643   0.72206   0.30957   0.00000  Uiso   1.00
C400   C     0.50002   0.91256   0.25033   0.00000  Uiso   1.00
C401   C     0.48169   0.85156   0.48793   0.00000  Uiso   1.00
C402   C     0.49705   0.85169   0.43314   0.00000  Uiso   1.00
C403   C     0.51717   0.84510   0.01490   0.00000  Uiso   1.00
C404   C     0.56714   0.84134   0.48679   0.00000  Uiso   1.00
C405   C     0.58198   0.84904   0.43420   0.00000  Uiso   1.00
C406   C     0.54754   0.85619   0.40840   0.00000  Uiso   1.00
C407   C     0.50462   0.84099   0.06869   0.00000  Uiso   1.00
C408   C     0.58902   0.82827   0.06521   0.00000  Uiso   1.00
C409   C     0.46137   0.84824   0.40547   0.00000  Uiso   1.00
C410   C     0.54357   0.97895   0.23551   0.00000  Uiso   1.00
C411   C     0.47461   0.83797   0.34952   0.00000  Uiso   1.00
C412   C     0.54292   0.68817   0.23600   0.00000  Uiso   1.00
C413   C     0.49845   0.70926   0.25304   0.00000  Uiso   1.00
C414   C     0.45416   0.68700   0.27092   0.00000  Uiso   1.00
C415   C     0.45524   0.97769   0.26958   0.00000  Uiso   1.00
C416   C     0.49971   0.95703   0.25167   0.00000  Uiso   1.00
C417   C     0.63570   0.86416   0.27375   0.00000  Uiso   1.00
C418   C     0.35174   0.86388   0.27430   0.00000  Uiso   1.00
C419   C     0.36463   0.80297   0.22526   0.00000  Uiso   1.00
C420   C     0.64835   0.80290   0.22543   0.00000  Uiso   1.00
C421   C     0.49943   0.75403   0.25131   0.00000  Uiso   1.00
C422   C     0.52583   0.83296   0.15026   0.00000  Uiso   1.00
C423   C     0.60211   0.83133   0.01178   0.00000  Uiso   1.00
C424   C     0.54033   0.83394   0.09390   0.00000  Uiso   1.00
C425   C     0.41207   0.85444   0.43225   0.00000  Uiso   1.00
C426   C     0.39809   0.86172   0.48522   0.00000  Uiso   1.00
C427   C     0.43179   0.85856   0.01321   0.00000  Uiso   1.00
Cu428  Cu    0.45311   0.83333   0.25000   0.00000  Uiso   1.00
Cu429  Cu    0.54689   0.83334   0.25000   0.00000  Uiso   1.00
H430   H     0.61688   0.82153   0.08399   0.00000  Uiso   1.00
H431   H     0.57726   0.70456   0.22226   0.00000  Uiso   1.00
H432   H     0.42135   0.96056   0.28325   0.00000  Uiso   1.00
H433   H     0.61242   0.88926   0.29215   0.00000  Uiso   1.00
H434   H     0.36513   0.88832   0.29398   0.00000  Uiso   1.00
H435   H     0.38849   0.77868   0.20528   0.00000  Uiso   1.00
H436   H     0.63500   0.77855   0.20557   0.00000  Uiso   1.00
H437   H     0.62042   0.85027   0.41301   0.00000  Uiso   1.00
H438   H     0.63949   0.82575   0.48967   0.00000  Uiso   1.00
H439   H     0.46723   0.84310   0.09189   0.00000  Uiso   1.00
H440   H     0.38430   0.85443   0.41212   0.00000  Uiso   1.00
H441   H     0.41779   0.86311   0.05432   0.00000  Uiso   1.00
H442   H     0.36069   0.86919   0.00527   0.00000  Uiso   1.00
H443   H     0.56170   0.86710   0.36963   0.00000  Uiso   1.00
H444   H     0.57824   0.96322   0.22166   0.00000  Uiso   1.00
N445   N     0.38265   0.83332   0.24998   0.00000  Uiso   1.00
N446   N     0.61735   0.83335   0.24999   0.00000  Uiso   1.00
O447   O     0.46042   0.89345   0.25000   0.00000  Uiso   1.00
O448   O     0.53961   0.89346   0.25000   0.00000  Uiso   1.00
O449   O     0.44108   0.83332   0.32549   0.00000  Uiso   1.00
O450   O     0.52027   0.83333   0.32549   0.00000  Uiso   1.00
O451   O     0.46039   0.77321   0.24999   0.00000  Uiso   1.00
O452   O     0.53958   0.77322   0.24999   0.00000  Uiso   1.00
O453   O     0.47973   0.83334   0.17451   0.00000  Uiso   1.00
O454   O     0.55892   0.83335   0.17451   0.00000  Uiso   1.00
C455   C     0.40731   0.70653   0.29236   0.00000  Uiso   1.00
N456   N     0.36977   0.72206   0.30957   0.00000  Uiso   1.00
C457   C     0.83335   0.91256   0.25033   0.00000  Uiso   1.00
C458   C     0.81502   0.85156   0.48793   0.00000  Uiso   1.00
C459   C     0.83039   0.85169   0.43314   0.00000  Uiso   1.00
C460   C     0.85050   0.84510   0.01490   0.00000  Uiso   1.00
C461   C     0.90047   0.84134   0.48679   0.00000  Uiso   1.00
C462   C     0.91531   0.84904   0.43420   0.00000  Uiso   1.00
C463   C     0.88087   0.85619   0.40840   0.00000  Uiso   1.00
C464   C     0.83795   0.84099   0.06869   0.00000  Uiso   1.00
C465   C     0.92236   0.82827   0.06521   0.00000  Uiso   1.00
C466   C     0.79470   0.84824   0.40547   0.00000  Uiso   1.00
C467   C     0.87690   0.97895   0.23551   0.00000  Uiso   1.00
C468   C     0.80795   0.83797   0.34952   0.00000  Uiso   1.00
C469   C     0.87625   0.68817   0.23600   0.00000  Uiso   1.00
C470   C     0.83178   0.70926   0.25304   0.00000  Uiso   1.00
C471   C     0.78749   0.68700   0.27092   0.00000  Uiso   1.00
C472   C     0.78858   0.97769   0.26958   0.00000  Uiso   1.00
C473   C     0.83304   0.95703   0.25167   0.00000  Uiso   1.00
C474   C     0.96903   0.86416   0.27375   0.00000  Uiso   1.00
C475   C     0.68507   0.86388   0.27430   0.00000  Uiso   1.00
C476   C     0.69797   0.80297   0.22526   0.00000  Uiso   1.00
C477   C     0.98169   0.80290   0.22543   0.00000  Uiso   1.00
C478   C     0.83276   0.75403   0.25131   0.00000  Uiso   1.00
C479   C     0.85916   0.83296   0.15026   0.00000  Uiso   1.00
C480   C     0.93544   0.83133   0.01178   0.00000  Uiso   1.00
C481   C     0.87367   0.83394   0.09390   0.00000  Uiso   1.00
C482   C     0.74540   0.85444   0.43225   0.00000  Uiso   1.00
C483   C     0.73143   0.86172   0.48522   0.00000  Uiso   1.00
C484   C     0.76512   0.85856   0.01321   0.00000  Uiso   1.00
Cu485  Cu    0.78645   0.83333   0.25000   0.00000  Uiso   1.00
Cu486  Cu    0.88022   0.83334   0.25000   0.00000  Uiso   1.00
H487   H     0.95021   0.82153   0.08399   0.00000  Uiso   1.00
H488   H     0.91059   0.70456   0.22226   0.00000  Uiso   1.00
H489   H     0.75468   0.96056   0.28325   0.00000  Uiso   1.00
H490   H     0.94576   0.88926   0.29215   0.00000  Uiso   1.00
H491   H     0.69846   0.88832   0.29398   0.00000  Uiso   1.00
H492   H     0.72183   0.77868   0.20528   0.00000  Uiso   1.00
H493   H     0.96834   0.77855   0.20557   0.00000  Uiso   1.00
H494   H     0.95375   0.85027   0.41301   0.00000  Uiso   1.00
H495   H     0.97282   0.82575   0.48967   0.00000  Uiso   1.00
H496   H     0.80056   0.84310   0.09189   0.00000  Uiso   1.00
H497   H     0.71763   0.85443   0.41212   0.00000  Uiso   1.00
H498   H     0.75112   0.86311   0.05432   0.00000  Uiso   1.00
H499   H     0.69402   0.86919   0.00527   0.00000  Uiso   1.00
H500   H     0.89503   0.86710   0.36963   0.00000  Uiso   1.00
H501   H     0.91158   0.96322   0.22166   0.00000  Uiso   1.00
N502   N     0.71598   0.83332   0.24998   0.00000  Uiso   1.00
N503   N     0.95069   0.83335   0.24999   0.00000  Uiso   1.00
O504   O     0.79375   0.89345   0.25000   0.00000  Uiso   1.00
O505   O     0.87294   0.89346   0.25000   0.00000  Uiso   1.00
O506   O     0.77441   0.83332   0.32549   0.00000  Uiso   1.00
O507   O     0.85360   0.83333   0.32549   0.00000  Uiso   1.00
O508   O     0.79373   0.77321   0.24999   0.00000  Uiso   1.00
O509   O     0.87292   0.77322   0.24999   0.00000  Uiso   1.00
O510   O     0.81306   0.83334   0.17451   0.00000  Uiso   1.00
O511   O     0.89225   0.83335   0.17451   0.00000  Uiso   1.00
C512   C     0.74065   0.70653   0.29236   0.00000  Uiso   1.00
N513   N     0.70310   0.72206   0.30957   0.00000  Uiso   1.00
C514   C     0.16669   0.24589   0.75033   0.00000  Uiso   1.00
C515   C     0.14836   0.18489   0.98793   0.00000  Uiso   1.00
C516   C     0.16372   0.18503   0.93314   0.00000  Uiso   1.00
C517   C     0.18383   0.17843   0.51490   0.00000  Uiso   1.00
C518   C     0.23380   0.17467   0.98679   0.00000  Uiso   1.00
C519   C     0.24864   0.18237   0.93420   0.00000  Uiso   1.00
C520   C     0.21420   0.18952   0.90840   0.00000  Uiso   1.00
C521   C     0.17129   0.17432   0.56869   0.00000  Uiso   1.00
C522   C     0.25569   0.16161   0.56521   0.00000  Uiso   1.00
C523   C     0.12803   0.18158   0.90547   0.00000  Uiso   1.00
C524   C     0.21024   0.31228   0.73551   0.00000  Uiso   1.00
C525   C     0.14128   0.17130   0.84952   0.00000  Uiso   1.00
C526   C     0.20959   0.02150   0.73600   0.00000  Uiso   1.00
C527   C     0.16512   0.04259   0.75304   0.00000  Uiso   1.00
C528   C     0.12083   0.02034   0.77092   0.00000  Uiso   1.00
C529   C     0.12191   0.31103   0.76958   0.00000  Uiso   1.00
C530   C     0.16637   0.29036   0.75167   0.00000  Uiso   1.00
C531   C     0.30237   0.19749   0.77375   0.00000  Uiso   1.00
C532   C     0.01841   0.19722   0.77430   0.00000  Uiso   1.00
C533   C     0.03130   0.13631   0.72526   0.00000  Uiso   1.00
C534   C     0.31502   0.13624   0.72543   0.00000  Uiso   1.00
C535   C     0.16610   0.08736   0.75131   0.00000  Uiso   1.00
C536   C     0.19250   0.16629   0.65026   0.00000  Uiso   1.00
C537   C     0.26878   0.16466   0.51178   0.00000  Uiso   1.00
C538   C     0.20700   0.16728   0.59390   0.00000  Uiso   1.00
C539   C     0.07873   0.18778   0.93225   0.00000  Uiso   1.00
C540   C     0.06476   0.19506   0.98522   0.00000  Uiso   1.00
C541   C     0.09845   0.19189   0.51321   0.00000  Uiso   1.00
Cu542  Cu    0.11978   0.16666   0.75000   0.00000  Uiso   1.00
Cu543  Cu    0.21355   0.16667   0.75000   0.00000  Uiso   1.00
H544   H     0.28355   0.15486   0.58399   0.00000  Uiso   1.00
H545   H     0.24393   0.03790   0.72226   0.00000  Uiso   1.00
H546   H     0.08802   0.29390   0.78325   0.00000  Uiso   1.00
H547   H     0.27909   0.22259   0.79215   0.00000  Uiso   1.00
H548   H     0.03180   0.22166   0.79398   0.00000  Uiso   1.00
H549   H     0.05516   0.11202   0.70528   0.00000  Uiso   1.00
H550   H     0.30167   0.11189   0.70557   0.00000  Uiso   1.00
H551   H     0.28708   0.18360   0.91301   0.00000  Uiso   1.00
H552   H     0.30616   0.15909   0.98967   0.00000  Uiso   1.00
H553   H     0.13390   0.17644   0.59189   0.00000  Uiso   1.00
H554   H     0.05096   0.18777   0.91212   0.00000  Uiso   1.00
H555   H     0.08445   0.19644   0.55432   0.00000  Uiso   1.00
H556   H     0.02735   0.20252   0.50527   0.00000  Uiso   1.00
H557   H     0.22836   0.20043   0.86963   0.00000  Uiso   1.00
H558   H     0.24491   0.29656   0.72166   0.00000  Uiso   1.00
N559   N     0.04931   0.16666   0.74998   0.00000  Uiso   1.00
N560   N     0.28402   0.16669   0.74999   0.00000  Uiso   1.00
O561   O     0.12708   0.22678   0.75000   0.00000  Uiso   1.00
O562   O     0.20627   0.22679   0.75000   0.00000  Uiso   1.00
O563   O     0.10775   0.16665   0.82549   0.00000  Uiso   1.00
O564   O     0.18694   0.16666   0.82549   0.00000  Uiso   1.00
O565   O     0.12706   0.10654   0.74999   0.00000  Uiso   1.00
O566   O     0.20625   0.10655   0.74999   0.00000  Uiso   1.00
O567   O     0.14640   0.16667   0.67451   0.00000  Uiso   1.00
O568   O     0.22559   0.16668   0.67451   0.00000  Uiso   1.00
C569   C     0.07398   0.03987   0.79236   0.00000  Uiso   1.00
N570   N     0.03643   0.05539   0.80957   0.00000  Uiso   1.00
C571   C     0.50002   0.24589   0.75033   0.00000  Uiso   1.00
C572   C     0.48169   0.18489   0.98793   0.00000  Uiso   1.00
C573   C     0.49705   0.18503   0.93314   0.00000  Uiso   1.00
C574   C     0.51717   0.17843   0.51490   0.00000  Uiso   1.00
C575   C     0.56714   0.17467   0.98679   0.00000  Uiso   1.00
C576   C     0.58198   0.18237   0.93420   0.00000  Uiso   1.00
C577   C     0.54754   0.18952   0.90840   0.00000  Uiso   1.00
C578   C     0.50462   0.17432   0.56869   0.00000  Uiso   1.00
C579   C     0.58902   0.16161   0.56521   0.00000  Uiso   1.00
C580   C     0.46137   0.18158   0.90547   0.00000  Uiso   1.00
C581   C     0.54357   0.31228   0.73551   0.00000  Uiso   1.00
C582   C     0.47461   0.17130   0.84952   0.00000  Uiso   1.00
C583   C     0.54292   0.02150   0.73600   0.00000  Uiso   1.00
C584   C     0.49845   0.04259   0.75304   0.00000  Uiso   1.00
C585   C     0.45416   0.02034   0.77092   0.00000  Uiso   1.00
C586   C     0.45524   0.31103   0.76958   0.00000  Uiso   1.00
C587   C     0.49971   0.29036   0.75167   0.00000  Uiso   1.00
C588   C     0.63570   0.19749   0.77375   0.00000  Uiso   1.00
C589   C     0.35174   0.19722   0.77430   0.00000  Uiso   1.00
C590   C     0.36463   0.13631   0.72526   0.00000  Uiso   1.00
C591   C     0.64835   0.13624   0.72543   0.00000  Uiso   1.00
C592   C     0.49943   0.08736   0.75131   0.00000  Uiso   1.00
C593   C     0.52583   0.16629   0.65026   0.00000  Uiso   1.00
C594   C     0.60211   0.16466   0.51178   0.00000  Uiso   1.00
C595   C     0.54033   0.16728   0.59390   0.00000  Uiso   1.00
C596   C     0.41207   0.18778   0.93225   0.00000  Uiso   1.00
C597   C     0.39809   0.19506   0.98522   0.00000  Uiso   1.00
C598   C     0.43179   0.19189   0.51321   0.00000  Uiso   1.00
Cu599  Cu    0.45311   0.16666   0.75000   0.00000  Uiso   1.00
Cu600  Cu    0.54689   0.16667   0.75000   0.00000  Uiso   1.00
H601   H     0.61688   0.15486   0.58399   0.00000  Uiso   1.00
H602   H     0.57726   0.03790   0.72226   0.00000  Uiso   1.00
H603   H     0.42135   0.29390   0.78325   0.00000  Uiso   1.00
H604   H     0.61242   0.22259   0.79215   0.00000  Uiso   1.00
H605   H     0.36513   0.22166   0.79398   0.00000  Uiso   1.00
H606   H     0.38849   0.11202   0.70528   0.00000  Uiso   1.00
H607   H     0.63500   0.11189   0.70557   0.00000  Uiso   1.00
H608   H     0.62042   0.18360   0.91301   0.00000  Uiso   1.00
H609   H     0.63949   0.15909   0.98967   0.00000  Uiso   1.00
H610   H     0.46723   0.17644   0.59189   0.00000  Uiso   1.00
H611   H     0.38430   0.18777   0.91212   0.00000  Uiso   1.00
H612   H     0.41779   0.19644   0.55432   0.00000  Uiso   1.00
H613   H     0.36069   0.20252   0.50527   0.00000  Uiso   1.00
H614   H     0.56170   0.20043   0.86963   0.00000  Uiso   1.00
H615   H     0.57824   0.29656   0.72166   0.00000  Uiso   1.00
N616   N     0.38265   0.16666   0.74998   0.00000  Uiso   1.00
N617   N     0.61735   0.16669   0.74999   0.00000  Uiso   1.00
O618   O     0.46042   0.22678   0.75000   0.00000  Uiso   1.00
O619   O     0.53961   0.22679   0.75000   0.00000  Uiso   1.00
O620   O     0.44108   0.16665   0.82549   0.00000  Uiso   1.00
O621   O     0.52027   0.16666   0.82549   0.00000  Uiso   1.00
O622   O     0.46039   0.10654   0.74999   0.00000  Uiso   1.00
O623   O     0.53958   0.10655   0.74999   0.00000  Uiso   1.00
O624   O     0.47973   0.16667   0.67451   0.00000  Uiso   1.00
O625   O     0.55892   0.16668   0.67451   0.00000  Uiso   1.00
C626   C     0.40731   0.03987   0.79236   0.00000  Uiso   1.00
N627   N     0.36977   0.05539   0.80957   0.00000  Uiso   1.00
C628   C     0.83335   0.24589   0.75033   0.00000  Uiso   1.00
C629   C     0.81502   0.18489   0.98793   0.00000  Uiso   1.00
C630   C     0.83039   0.18503   0.93314   0.00000  Uiso   1.00
C631   C     0.85050   0.17843   0.51490   0.00000  Uiso   1.00
C632   C     0.90047   0.17467   0.98679   0.00000  Uiso   1.00
C633   C     0.91531   0.18237   0.93420   0.00000  Uiso   1.00
C634   C     0.88087   0.18952   0.90840   0.00000  Uiso   1.00
C635   C     0.83795   0.17432   0.56869   0.00000  Uiso   1.00
C636   C     0.92236   0.16161   0.56521   0.00000  Uiso   1.00
C637   C     0.79470   0.18158   0.90547   0.00000  Uiso   1.00
C638   C     0.87690   0.31228   0.73551   0.00000  Uiso   1.00
C639   C     0.80795   0.17130   0.84952   0.00000  Uiso   1.00
C640   C     0.87625   0.02150   0.73600   0.00000  Uiso   1.00
C641   C     0.83178   0.04259   0.75304   0.00000  Uiso   1.00
C642   C     0.78749   0.02034   0.77092   0.00000  Uiso   1.00
C643   C     0.78858   0.31103   0.76958   0.00000  Uiso   1.00
C644   C     0.83304   0.29036   0.75167   0.00000  Uiso   1.00
C645   C     0.96903   0.19749   0.77375   0.00000  Uiso   1.00
C646   C     0.68507   0.19722   0.77430   0.00000  Uiso   1.00
C647   C     0.69797   0.13631   0.72526   0.00000  Uiso   1.00
C648   C     0.98169   0.13624   0.72543   0.00000  Uiso   1.00
C649   C     0.83276   0.08736   0.75131   0.00000  Uiso   1.00
C650   C     0.85916   0.16629   0.65026   0.00000  Uiso   1.00
C651   C     0.93544   0.16466   0.51178   0.00000  Uiso   1.00
C652   C     0.87367   0.16728   0.59390   0.00000  Uiso   1.00
C653   C     0.74540   0.18778   0.93225   0.00000  Uiso   1.00
C654   C     0.73143   0.19506   0.98522   0.00000  Uiso   1.00
C655   C     0.76512   0.19189   0.51321   0.00000  Uiso   1.00
Cu656  Cu    0.78645   0.16666   0.75000   0.00000  Uiso   1.00
Cu657  Cu    0.88022   0.16667   0.75000   0.00000  Uiso   1.00
H658   H     0.95021   0.15486   0.58399   0.00000  Uiso   1.00
H659   H     0.91059   0.03790   0.72226   0.00000  Uiso   1.00
H660   H     0.75468   0.29390   0.78325   0.00000  Uiso   1.00
H661   H     0.94576   0.22259   0.79215   0.00000  Uiso   1.00
H662   H     0.69846   0.22166   0.79398   0.00000  Uiso   1.00
H663   H     0.72183   0.11202   0.70528   0.00000  Uiso   1.00
H664   H     0.96834   0.11189   0.70557   0.00000  Uiso   1.00
H665   H     0.95375   0.18360   0.91301   0.00000  Uiso   1.00
H666   H     0.97282   0.15909   0.98967   0.00000  Uiso   1.00
H667   H     0.80056   0.17644   0.59189   0.00000  Uiso   1.00
H668   H     0.71763   0.18777   0.91212   0.00000  Uiso   1.00
H669   H     0.75112   0.19644   0.55432   0.00000  Uiso   1.00
H670   H     0.69402   0.20252   0.50527   0.00000  Uiso   1.00
H671   H     0.89503   0.20043   0.86963   0.00000  Uiso   1.00
H672   H     0.91158   0.29656   0.72166   0.00000  Uiso   1.00
N673   N     0.71598   0.16666   0.74998   0.00000  Uiso   1.00
N674   N     0.95069   0.16669   0.74999   0.00000  Uiso   1.00
O675   O     0.79375   0.22678   0.75000   0.00000  Uiso   1.00
O676   O     0.87294   0.22679   0.75000   0.00000  Uiso   1.00
O677   O     0.77441   0.16665   0.82549   0.00000  Uiso   1.00
O678   O     0.85360   0.16666   0.82549   0.00000  Uiso   1.00
O679   O     0.79373   0.10654   0.74999   0.00000  Uiso   1.00
O680   O     0.87292   0.10655   0.74999   0.00000  Uiso   1.00
O681   O     0.81306   0.16667   0.67451   0.00000  Uiso   1.00
O682   O     0.89225   0.16668   0.67451   0.00000  Uiso   1.00
C683   C     0.74065   0.03987   0.79236   0.00000  Uiso   1.00
N684   N     0.70310   0.05539   0.80957   0.00000  Uiso   1.00
C685   C     0.16669   0.57922   0.75033   0.00000  Uiso   1.00
C686   C     0.14836   0.51823   0.98793   0.00000  Uiso   1.00
C687   C     0.16372   0.51836   0.93314   0.00000  Uiso   1.00
C688   C     0.18383   0.51176   0.51490   0.00000  Uiso   1.00
C689   C     0.23380   0.50801   0.98679   0.00000  Uiso   1.00
C690   C     0.24864   0.51571   0.93420   0.00000  Uiso   1.00
C691   C     0.21420   0.52286   0.90840   0.00000  Uiso   1.00
C692   C     0.17129   0.50765   0.56869   0.00000  Uiso   1.00
C693   C     0.25569   0.49494   0.56521   0.00000  Uiso   1.00
C694   C     0.12803   0.51491   0.90547   0.00000  Uiso   1.00
C695   C     0.21024   0.64561   0.73551   0.00000  Uiso   1.00
C696   C     0.14128   0.50464   0.84952   0.00000  Uiso   1.00
C697   C     0.20959   0.35484   0.73600   0.00000  Uiso   1.00
C698   C     0.16512   0.37593   0.75304   0.00000  Uiso   1.00
C699   C     0.12083   0.35367   0.77092   0.00000  Uiso   1.00
C700   C     0.12191   0.64436   0.76958   0.00000  Uiso   1.00
C701   C     0.16637   0.62370   0.75167   0.00000  Uiso   1.00
C702   C     0.30237   0.53083   0.77375   0.00000  Uiso   1.00
C703   C     0.01841   0.53055   0.77430   0.00000  Uiso   1.00
C704   C     0.03130   0.46964   0.72526   0.00000  Uiso   1.00
C705   C     0.31502   0.46957   0.72543   0.00000  Uiso   1.00
C706   C     0.16610   0.42070   0.75131   0.00000  Uiso   1.00
C707   C     0.19250   0.49963   0.65026   0.00000  Uiso   1.00
C708   C     0.26878   0.49800   0.51178   0.00000  Uiso   1.00
C709   C     0.20700   0.50061   0.59390   0.00000  Uiso   1.00
C710   C     0.07873   0.52111   0.93225   0.00000  Uiso   1.00
C711   C     0.06476   0.52839   0.98522   0.00000  Uiso   1.00
C712   C     0.09845   0.52522   0.51321   0.00000  Uiso   1.00
Cu713  Cu    0.11978   0.49999   0.75000   0.00000  Uiso   1.00
Cu714  Cu    0.21355   0.50001   0.75000   0.00000  Uiso   1.00
H715   H     0.28355   0.48820   0.58399   0.00000  Uiso   1.00
H716   H     0.24393   0.37123   0.72226   0.00000  Uiso   1.00
H717   H     0.08802   0.62723   0.78325   0.00000  Uiso   1.00
H718   H     0.27909   0.55593   0.79215   0.00000  Uiso   1.00
H719   H     0.03180   0.55499   0.79398   0.00000  Uiso   1.00
H720   H     0.05516   0.44535   0.70528   0.00000  Uiso   1.00
H721   H     0.30167   0.44522   0.70557   0.00000  Uiso   1.00
H722   H     0.28708   0.51694   0.91301   0.00000  Uiso   1.00
H723   H     0.30616   0.49242   0.98967   0.00000  Uiso   1.00
H724   H     0.13390   0.50977   0.59189   0.00000  Uiso   1.00
H725   H     0.05096   0.52110   0.91212   0.00000  Uiso   1.00
H726   H     0.08445   0.52977   0.55432   0.00000  Uiso   1.00
H727   H     0.02735   0.53585   0.50527   0.00000  Uiso   1.00
H728   H     0.22836   0.53376   0.86963   0.00000  Uiso   1.00
H729   H     0.24491   0.62989   0.72166   0.00000  Uiso   1.00
N730   N     0.04931   0.49999   0.74998   0.00000  Uiso   1.00
N731   N     0.28402   0.50002   0.74999   0.00000  Uiso   1.00
O732   O     0.12708   0.56011   0.75000   0.00000  Uiso   1.00
O733   O     0.20627   0.56012   0.75000   0.00000  Uiso   1.00
O734   O     0.10775   0.49998   0.82549   0.00000  Uiso   1.00
O735   O     0.18694   0.49999   0.82549   0.00000  Uiso   1.00
O736   O     0.12706   0.43988   0.74999   0.00000  Uiso   1.00
O737   O     0.20625   0.43989   0.74999   0.00000  Uiso   1.00
O738   O     0.14640   0.50001   0.67451   0.00000  Uiso   1.00
O739   O     0.22559   0.50002   0.67451   0.00000  Uiso   1.00
C740   C     0.07398   0.37320   0.79236   0.00000  Uiso   1.00
N741   N     0.03643   0.38873   0.80957   0.00000  Uiso   1.00
C742   C     0.50002   0.57922   0.75033   0.00000  Uiso   1.00
C743   C     0.48169   0.51823   0.98793   0.00000  Uiso   1.00
C744   C     0.49705   0.51836   0.93314   0.00000  Uiso   1.00
C745   C     0.51717   0.51176   0.51490   0.00000  Uiso   1.00
C746   C     0.56714   0.50801   0.98679   0.00000  Uiso   1.00
C747   C     0.58198   0.51571   0.93420   0.00000  Uiso   1.00
C748   C     0.54754   0.52286   0.90840   0.00000  Uiso   1.00
C749   C     0.50462   0.50765   0.56869   0.00000  Uiso   1.00
C750   C     0.58902   0.49494   0.56521   0.00000  Uiso   1.00
C751   C     0.46137   0.51491   0.90547   0.00000  Uiso   1.00
C752   C     0.54357   0.64561   0.73551   0.00000  Uiso   1.00
C753   C     0.47461   0.50464   0.84952   0.00000  Uiso   1.00
C754   C     0.54292   0.35484   0.73600   0.00000  Uiso   1.00
C755   C     0.49845   0.37593   0.75304   0.00000  Uiso   1.00
C756   C     0.45416   0.35367   0.77092   0.00000  Uiso   1.00
C757   C     0.45524   0.64436   0.76958   0.00000  Uiso   1.00
C758   C     0.49971   0.62370   0.75167   0.00000  Uiso   1.00
C759   C     0.63570   0.53083   0.77375   0.00000  Uiso   1.00
C760   C     0.35174   0.53055   0.77430   0.00000  Uiso   1.00
C761   C     0.36463   0.46964   0.72526   0.00000  Uiso   1.00
C762   C     0.64835   0.46957   0.72543   0.00000  Uiso   1.00
C763   C     0.49943   0.42070   0.75131   0.00000  Uiso   1.00
C764   C     0.52583   0.49963   0.65026   0.00000  Uiso   1.00
C765   C     0.60211   0.49800   0.51178   0.00000  Uiso   1.00
C766   C     0.54033   0.50061   0.59390   0.00000  Uiso   1.00
C767   C     0.41207   0.52111   0.93225   0.00000  Uiso   1.00
C768   C     0.39809   0.52839   0.98522   0.00000  Uiso   1.00
C769   C     0.43179   0.52522   0.51321   0.00000  Uiso   1.00
Cu770  Cu    0.45311   0.49999   0.75000   0.00000  Uiso   1.00
Cu771  Cu    0.54689   0.50001   0.75000   0.00000  Uiso   1.00
H772   H     0.61688   0.48820   0.58399   0.00000  Uiso   1.00
H773   H     0.57726   0.37123   0.72226   0.00000  Uiso   1.00
H774   H     0.42135   0.62723   0.78325   0.00000  Uiso   1.00
H775   H     0.61242   0.55593   0.79215   0.00000  Uiso   1.00
H776   H     0.36513   0.55499   0.79398   0.00000  Uiso   1.00
H777   H     0.38849   0.44535   0.70528   0.00000  Uiso   1.00
H778   H     0.63500   0.44522   0.70557   0.00000  Uiso   1.00
H779   H     0.62042   0.51694   0.91301   0.00000  Uiso   1.00
H780   H     0.63949   0.49242   0.98967   0.00000  Uiso   1.00
H781   H     0.46723   0.50977   0.59189   0.00000  Uiso   1.00
H782   H     0.38430   0.52110   0.91212   0.00000  Uiso   1.00
H783   H     0.41779   0.52977   0.55432   0.00000  Uiso   1.00
H784   H     0.36069   0.53585   0.50527   0.00000  Uiso   1.00
H785   H     0.56170   0.53376   0.86963   0.00000  Uiso   1.00
H786   H     0.57824   0.62989   0.72166   0.00000  Uiso   1.00
N787   N     0.38265   0.49999   0.74998   0.00000  Uiso   1.00
N788   N     0.61735   0.50002   0.74999   0.00000  Uiso   1.00
O789   O     0.46042   0.56011   0.75000   0.00000  Uiso   1.00
O790   O     0.53961   0.56012   0.75000   0.00000  Uiso   1.00
O791   O     0.44108   0.49998   0.82549   0.00000  Uiso   1.00
O792   O     0.52027   0.49999   0.82549   0.00000  Uiso   1.00
O793   O     0.46039   0.43988   0.74999   0.00000  Uiso   1.00
O794   O     0.53958   0.43989   0.74999   0.00000  Uiso   1.00
O795   O     0.47973   0.50001   0.67451   0.00000  Uiso   1.00
O796   O     0.55892   0.50002   0.67451   0.00000  Uiso   1.00
C797   C     0.40731   0.37320   0.79236   0.00000  Uiso   1.00
N798   N     0.36977   0.38873   0.80957   0.00000  Uiso   1.00
C799   C     0.83335   0.57922   0.75033   0.00000  Uiso   1.00
C800   C     0.81502   0.51823   0.98793   0.00000  Uiso   1.00
C801   C     0.83039   0.51836   0.93314   0.00000  Uiso   1.00
C802   C     0.85050   0.51176   0.51490   0.00000  Uiso   1.00
C803   C     0.90047   0.50801   0.98679   0.00000  Uiso   1.00
C804   C     0.91531   0.51571   0.93420   0.00000  Uiso   1.00
C805   C     0.88087   0.52286   0.90840   0.00000  Uiso   1.00
C806   C     0.83795   0.50765   0.56869   0.00000  Uiso   1.00
C807   C     0.92236   0.49494   0.56521   0.00000  Uiso   1.00
C808   C     0.79470   0.51491   0.90547   0.00000  Uiso   1.00
C809   C     0.87690   0.64561   0.73551   0.00000  Uiso   1.00
C810   C     0.80795   0.50464   0.84952   0.00000  Uiso   1.00
C811   C     0.87625   0.35484   0.73600   0.00000  Uiso   1.00
C812   C     0.83178   0.37593   0.75304   0.00000  Uiso   1.00
C813   C     0.78749   0.35367   0.77092   0.00000  Uiso   1.00
C814   C     0.78858   0.64436   0.76958   0.00000  Uiso   1.00
C815   C     0.83304   0.62370   0.75167   0.00000  Uiso   1.00
C816   C     0.96903   0.53083   0.77375   0.00000  Uiso   1.00
C817   C     0.68507   0.53055   0.77430   0.00000  Uiso   1.00
C818   C     0.69797   0.46964   0.72526   0.00000  Uiso   1.00
C819   C     0.98169   0.46957   0.72543   0.00000  Uiso   1.00
C820   C     0.83276   0.42070   0.75131   0.00000  Uiso   1.00
C821   C     0.85916   0.49963   0.65026   0.00000  Uiso   1.00
C822   C     0.93544   0.49800   0.51178   0.00000  Uiso   1.00
C823   C     0.87367   0.50061   0.59390   0.00000  Uiso   1.00
C824   C     0.74540   0.52111   0.93225   0.00000  Uiso   1.00
C825   C     0.73143   0.52839   0.98522   0.00000  Uiso   1.00
C826   C     0.76512   0.52522   0.51321   0.00000  Uiso   1.00
Cu827  Cu    0.78645   0.49999   0.75000   0.00000  Uiso   1.00
Cu828  Cu    0.88022   0.50001   0.75000   0.00000  Uiso   1.00
H829   H     0.95021   0.48820   0.58399   0.00000  Uiso   1.00
H830   H     0.91059   0.37123   0.72226   0.00000  Uiso   1.00
H831   H     0.75468   0.62723   0.78325   0.00000  Uiso   1.00
H832   H     0.94576   0.55593   0.79215   0.00000  Uiso   1.00
H833   H     0.69846   0.55499   0.79398   0.00000  Uiso   1.00
H834   H     0.72183   0.44535   0.70528   0.00000  Uiso   1.00
H835   H     0.96834   0.44522   0.70557   0.00000  Uiso   1.00
H836   H     0.95375   0.51694   0.91301   0.00000  Uiso   1.00
H837   H     0.97282   0.49242   0.98967   0.00000  Uiso   1.00
H838   H     0.80056   0.50977   0.59189   0.00000  Uiso   1.00
H839   H     0.71763   0.52110   0.91212   0.00000  Uiso   1.00
H840   H     0.75112   0.52977   0.55432   0.00000  Uiso   1.00
H841   H     0.69402   0.53585   0.50527   0.00000  Uiso   1.00
H842   H     0.89503   0.53376   0.86963   0.00000  Uiso   1.00
H843   H     0.91158   0.62989   0.72166   0.00000  Uiso   1.00
N844   N     0.71598   0.49999   0.74998   0.00000  Uiso   1.00
N845   N     0.95069   0.50002   0.74999   0.00000  Uiso   1.00
O846   O     0.79375   0.56011   0.75000   0.00000  Uiso   1.00
O847   O     0.87294   0.56012   0.75000   0.00000  Uiso   1.00
O848   O     0.77441   0.49998   0.82549   0.00000  Uiso   1.00
O849   O     0.85360   0.49999   0.82549   0.00000  Uiso   1.00
O850   O     0.79373   0.43988   0.74999   0.00000  Uiso   1.00
O851   O     0.87292   0.43989   0.74999   0.00000  Uiso   1.00
O852   O     0.81306   0.50001   0.67451   0.00000  Uiso   1.00
O853   O     0.89225   0.50002   0.67451   0.00000  Uiso   1.00
C854   C     0.74065   0.37320   0.79236   0.00000  Uiso   1.00
N855   N     0.70310   0.38873   0.80957   0.00000  Uiso   1.00
C856   C     0.16669   0.91256   0.75033   0.00000  Uiso   1.00
C857   C     0.14836   0.85156   0.98793   0.00000  Uiso   1.00
C858   C     0.16372   0.85169   0.93314   0.00000  Uiso   1.00
C859   C     0.18383   0.84510   0.51490   0.00000  Uiso   1.00
C860   C     0.23380   0.84134   0.98679   0.00000  Uiso   1.00
C861   C     0.24864   0.84904   0.93420   0.00000  Uiso   1.00
C862   C     0.21420   0.85619   0.90840   0.00000  Uiso   1.00
C863   C     0.17129   0.84099   0.56869   0.00000  Uiso   1.00
C864   C     0.25569   0.82827   0.56521   0.00000  Uiso   1.00
C865   C     0.12803   0.84824   0.90547   0.00000  Uiso   1.00
C866   C     0.21024   0.97895   0.73551   0.00000  Uiso   1.00
C867   C     0.14128   0.83797   0.84952   0.00000  Uiso   1.00
C868   C     0.20959   0.68817   0.73600   0.00000  Uiso   1.00
C869   C     0.16512   0.70926   0.75304   0.00000  Uiso   1.00
C870   C     0.12083   0.68700   0.77092   0.00000  Uiso   1.00
C871   C     0.12191   0.97769   0.76958   0.00000  Uiso   1.00
C872   C     0.16637   0.95703   0.75167   0.00000  Uiso   1.00
C873   C     0.30237   0.86416   0.77375   0.00000  Uiso   1.00
C874   C     0.01841   0.86388   0.77430   0.00000  Uiso   1.00
C875   C     0.03130   0.80297   0.72526   0.00000  Uiso   1.00
C876   C     0.31502   0.80290   0.72543   0.00000  Uiso   1.00
C877   C     0.16610   0.75403   0.75131   0.00000  Uiso   1.00
C878   C     0.19250   0.83296   0.65026   0.00000  Uiso   1.00
C879   C     0.26878   0.83133   0.51178   0.00000  Uiso   1.00
C880   C     0.20700   0.83394   0.59390   0.00000  Uiso   1.00
C881   C     0.07873   0.85444   0.93225   0.00000  Uiso   1.00
C882   C     0.06476   0.86172   0.98522   0.00000  Uiso   1.00
C883   C     0.09845   0.85856   0.51321   0.00000  Uiso   1.00
Cu884  Cu    0.11978   0.83333   0.75000   0.00000  Uiso   1.00
Cu885  Cu    0.21355   0.83334   0.75000   0.00000  Uiso   1.00
H886   H     0.28355   0.82153   0.58399   0.00000  Uiso   1.00
H887   H     0.24393   0.70456   0.72226   0.00000  Uiso   1.00
H888   H     0.08802   0.96056   0.78325   0.00000  Uiso   1.00
H889   H     0.27909   0.88926   0.79215   0.00000  Uiso   1.00
H890   H     0.03180   0.88832   0.79398   0.00000  Uiso   1.00
H891   H     0.05516   0.77868   0.70528   0.00000  Uiso   1.00
H892   H     0.30167   0.77855   0.70557   0.00000  Uiso   1.00
H893   H     0.28708   0.85027   0.91301   0.00000  Uiso   1.00
H894   H     0.30616   0.82575   0.98967   0.00000  Uiso   1.00
H895   H     0.13390   0.84310   0.59189   0.00000  Uiso   1.00
H896   H     0.05096   0.85443   0.91212   0.00000  Uiso   1.00
H897   H     0.08445   0.86311   0.55432   0.00000  Uiso   1.00
H898   H     0.02735   0.86919   0.50527   0.00000  Uiso   1.00
H899   H     0.22836   0.86710   0.86963   0.00000  Uiso   1.00
H900   H     0.24491   0.96322   0.72166   0.00000  Uiso   1.00
N901   N     0.04931   0.83332   0.74998   0.00000  Uiso   1.00
N902   N     0.28402   0.83335   0.74999   0.00000  Uiso   1.00
O903   O     0.12708   0.89345   0.75000   0.00000  Uiso   1.00
O904   O     0.20627   0.89346   0.75000   0.00000  Uiso   1.00
O905   O     0.10775   0.83332   0.82549   0.00000  Uiso   1.00
O906   O     0.18694   0.83333   0.82549   0.00000  Uiso   1.00
O907   O     0.12706   0.77321   0.74999   0.00000  Uiso   1.00
O908   O     0.20625   0.77322   0.74999   0.00000  Uiso   1.00
O909   O     0.14640   0.83334   0.67451   0.00000  Uiso   1.00
O910   O     0.22559   0.83335   0.67451   0.00000  Uiso   1.00
C911   C     0.07398   0.70653   0.79236   0.00000  Uiso   1.00
N912   N     0.03643   0.72206   0.80957   0.00000  Uiso   1.00
C913   C     0.50002   0.91256   0.75033   0.00000  Uiso   1.00
C914   C     0.48169   0.85156   0.98793   0.00000  Uiso   1.00
C915   C     0.49705   0.85169   0.93314   0.00000  Uiso   1.00
C916   C     0.51717   0.84510   0.51490   0.00000  Uiso   1.00
C917   C     0.56714   0.84134   0.98679   0.00000  Uiso   1.00
C918   C     0.58198   0.84904   0.93420   0.00000  Uiso   1.00
C919   C     0.54754   0.85619   0.90840   0.00000  Uiso   1.00
C920   C     0.50462   0.84099   0.56869   0.00000  Uiso   1.00
C921   C     0.58902   0.82827   0.56521   0.00000  Uiso   1.00
C922   C     0.46137   0.84824   0.90547   0.00000  Uiso   1.00
C923   C     0.54357   0.97895   0.73551   0.00000  Uiso   1.00
C924   C     0.47461   0.83797   0.84952   0.00000  Uiso   1.00
C925   C     0.54292   0.68817   0.73600   0.00000  Uiso   1.00
C926   C     0.49845   0.70926   0.75304   0.00000  Uiso   1.00
C927   C     0.45416   0.68700   0.77092   0.00000  Uiso   1.00
C928   C     0.45524   0.97769   0.76958   0.00000  Uiso   1.00
C929   C     0.49971   0.95703   0.75167   0.00000  Uiso   1.00
C930   C     0.63570   0.86416   0.77375   0.00000  Uiso   1.00
C931   C     0.35174   0.86388   0.77430   0.00000  Uiso   1.00
C932   C     0.36463   0.80297   0.72526   0.00000  Uiso   1.00
C933   C     0.64835   0.80290   0.72543   0.00000  Uiso   1.00
C934   C     0.49943   0.75403   0.75131   0.00000  Uiso   1.00
C935   C     0.52583   0.83296   0.65026   0.00000  Uiso   1.00
C936   C     0.60211   0.83133   0.51178   0.00000  Uiso   1.00
C937   C     0.54033   0.83394   0.59390   0.00000  Uiso   1.00
C938   C     0.41207   0.85444   0.93225   0.00000  Uiso   1.00
C939   C     0.39809   0.86172   0.98522   0.00000  Uiso   1.00
C940   C     0.43179   0.85856   0.51321   0.00000  Uiso   1.00
Cu941  Cu    0.45311   0.83333   0.75000   0.00000  Uiso   1.00
Cu942  Cu    0.54689   0.83334   0.75000   0.00000  Uiso   1.00
H943   H     0.61688   0.82153   0.58399   0.00000  Uiso   1.00
H944   H     0.57726   0.70456   0.72226   0.00000  Uiso   1.00
H945   H     0.42135   0.96056   0.78325   0.00000  Uiso   1.00
H946   H     0.61242   0.88926   0.79215   0.00000  Uiso   1.00
H947   H     0.36513   0.88832   0.79398   0.00000  Uiso   1.00
H948   H     0.38849   0.77868   0.70528   0.00000  Uiso   1.00
H949   H     0.63500   0.77855   0.70557   0.00000  Uiso   1.00
H950   H     0.62042   0.85027   0.91301   0.00000  Uiso   1.00
H951   H     0.63949   0.82575   0.98967   0.00000  Uiso   1.00
H952   H     0.46723   0.84310   0.59189   0.00000  Uiso   1.00
H953   H     0.38430   0.85443   0.91212   0.00000  Uiso   1.00
H954   H     0.41779   0.86311   0.55432   0.00000  Uiso   1.00
H955   H     0.36069   0.86919   0.50527   0.00000  Uiso   1.00
H956   H     0.56170   0.86710   0.86963   0.00000  Uiso   1.00
H957   H     0.57824   0.96322   0.72166   0.00000  Uiso   1.00
N958   N     0.38265   0.83332   0.74998   0.00000  Uiso   1.00
N959   N     0.61735   0.83335   0.74999   0.00000  Uiso   1.00
O960   O     0.46042   0.89345   0.75000   0.00000  Uiso   1.00
O961   O     0.53961   0.89346   0.75000   0.00000  Uiso   1.00
O962   O     0.44108   0.83332   0.82549   0.00000  Uiso   1.00
O963   O     0.52027   0.83333   0.82549   0.00000  Uiso   1.00
O964   O     0.46039   0.77321   0.74999   0.00000  Uiso   1.00
O965   O     0.53958   0.77322   0.74999   0.00000  Uiso   1.00
O966   O     0.47973   0.83334   0.67451   0.00000  Uiso   1.00
O967   O     0.55892   0.83335   0.67451   0.00000  Uiso   1.00
C968   C     0.40731   0.70653   0.79236   0.00000  Uiso   1.00
N969   N     0.36977   0.72206   0.80957   0.00000  Uiso   1.00
C970   C     0.83335   0.91256   0.75033   0.00000  Uiso   1.00
C971   C     0.81502   0.85156   0.98793   0.00000  Uiso   1.00
C972   C     0.83039   0.85169   0.93314   0.00000  Uiso   1.00
C973   C     0.85050   0.84510   0.51490   0.00000  Uiso   1.00
C974   C     0.90047   0.84134   0.98679   0.00000  Uiso   1.00
C975   C     0.91531   0.84904   0.93420   0.00000  Uiso   1.00
C976   C     0.88087   0.85619   0.90840   0.00000  Uiso   1.00
C977   C     0.83795   0.84099   0.56869   0.00000  Uiso   1.00
C978   C     0.92236   0.82827   0.56521   0.00000  Uiso   1.00
C979   C     0.79470   0.84824   0.90547   0.00000  Uiso   1.00
C980   C     0.87690   0.97895   0.73551   0.00000  Uiso   1.00
C981   C     0.80795   0.83797   0.84952   0.00000  Uiso   1.00
C982   C     0.87625   0.68817   0.73600   0.00000  Uiso   1.00
C983   C     0.83178   0.70926   0.75304   0.00000  Uiso   1.00
C984   C     0.78749   0.68700   0.77092   0.00000  Uiso   1.00
C985   C     0.78858   0.97769   0.76958   0.00000  Uiso   1.00
C986   C     0.83304   0.95703   0.75167   0.00000  Uiso   1.00
C987   C     0.96903   0.86416   0.77375   0.00000  Uiso   1.00
C988   C     0.68507   0.86388   0.77430   0.00000  Uiso   1.00
C989   C     0.69797   0.80297   0.72526   0.00000  Uiso   1.00
C990   C     0.98169   0.80290   0.72543   0.00000  Uiso   1.00
C991   C     0.83276   0.75403   0.75131   0.00000  Uiso   1.00
C992   C     0.85916   0.83296   0.65026   0.00000  Uiso   1.00
C993   C     0.93544   0.83133   0.51178   0.00000  Uiso   1.00
C994   C     0.87367   0.83394   0.59390   0.00000  Uiso   1.00
C995   C     0.74540   0.85444   0.93225   0.00000  Uiso   1.00
C996   C     0.73143   0.86172   0.98522   0.00000  Uiso   1.00
C997   C     0.76512   0.85856   0.51321   0.00000  Uiso   1.00
Cu998  Cu    0.78645   0.83333   0.75000   0.00000  Uiso   1.00
Cu999  Cu    0.88022   0.83334   0.75000   0.00000  Uiso   1.00
H1000  H     0.95021   0.82153   0.58399   0.00000  Uiso   1.00
H1001  H     0.91059   0.70456   0.72226   0.00000  Uiso   1.00
H1002  H     0.75468   0.96056   0.78325   0.00000  Uiso   1.00
H1003  H     0.94576   0.88926   0.79215   0.00000  Uiso   1.00
H1004  H     0.69846   0.88832   0.79398   0.00000  Uiso   1.00
H1005  H     0.72183   0.77868   0.70528   0.00000  Uiso   1.00
H1006  H     0.96834   0.77855   0.70557   0.00000  Uiso   1.00
H1007  H     0.95375   0.85027   0.91301   0.00000  Uiso   1.00
H1008  H     0.97282   0.82575   0.98967   0.00000  Uiso   1.00
H1009  H     0.80056   0.84310   0.59189   0.00000  Uiso   1.00
H1010  H     0.71763   0.85443   0.91212   0.00000  Uiso   1.00
H1011  H     0.75112   0.86311   0.55432   0.00000  Uiso   1.00
H1012  H     0.69402   0.86919   0.50527   0.00000  Uiso   1.00
H1013  H     0.89503   0.86710   0.86963   0.00000  Uiso   1.00
H1014  H     0.91158   0.96322   0.72166   0.00000  Uiso   1.00
N1015  N     0.71598   0.83332   0.74998   0.00000  Uiso   1.00
N1016  N     0.95069   0.83335   0.74999   0.00000  Uiso   1.00
O1017  O     0.79375   0.89345   0.75000   0.00000  Uiso   1.00
O1018  O     0.87294   0.89346   0.75000   0.00000  Uiso   1.00
O1019  O     0.77441   0.83332   0.82549   0.00000  Uiso   1.00
O1020  O     0.85360   0.83333   0.82549   0.00000  Uiso   1.00
O1021  O     0.79373   0.77321   0.74999   0.00000  Uiso   1.00
O1022  O     0.87292   0.77322   0.74999   0.00000  Uiso   1.00
O1023  O     0.81306   0.83334   0.67451   0.00000  Uiso   1.00
O1024  O     0.89225   0.83335   0.67451   0.00000  Uiso   1.00
C1025  C     0.74065   0.70653   0.79236   0.00000  Uiso   1.00
N1026  N     0.70310   0.72206   0.80957   0.00000  Uiso   1.00
loop_
_geom_bond_atom_site_label_1
_geom_bond_atom_site_label_2
_geom_bond_distance
_geom_bond_site_symmetry_2
_ccdc_geom_bond_type
C1     C17     1.446   .     S
C1     O48     1.291   .     A
C1     O49     1.291   .     A
C2     C3      1.418   .     A
C2     C517    1.425   .     S
C2     C541    1.413   .     S
C3     C10     1.431   .     A
C3     C7      1.413   .     A
C4     C8      1.401   .     A
C4     C515    1.425   1_554 S
C4     C518    1.418   1_554 S
C5     C6      1.385   .     A
C5     C517    1.418   .     S
C5     C537    1.397   .     S
C6     H38     1.085   .     S
C6     C7      1.381   .     A
C7     H44     1.071   .     S
C8     C25     1.400   .     A
C8     H40     1.076   .     S
C9     C24     1.388   .     A
C9     C25     1.398   .     A
C9     H31     1.083   .     S
C10    C26     1.403   .     A
C10    C12     1.486   .     S
C11    H45     1.083   .     S
C11    C17     1.397   .     A
C11    C184    1.383   .     S
C12    O50     1.310   .     A
C12    O51     1.290   .     A
C13    H32     1.084   .     S
C13    C14     1.403   .     A
C13    C353    1.383   1_545 S
C14    C22     1.456   .     S
C14    C15     1.416   .     A
C15    C56     1.446   .     S
C15    C358    1.387   1_545 S
C16    H33     1.085   .     S
C16    C17     1.398   .     A
C16    C186    1.387   .     S
C18    N47     1.368   .     A
C18    H34     1.080   .     S
C18    C76     1.416   .     S
C19    N46     1.367   .     A
C19    H35     1.081   .     S
C19    C132    1.416   1_455 S
C20    H36     1.081   .     S
C20    N46     1.367   .     A
C20    C135    1.417   1_455 S
C21    H37     1.081   .     S
C21    N47     1.367   .     A
C21    C77     1.417   .     S
C22    O53     1.295   .     A
C22    O52     1.290   .     A
C23    O55     1.296   .     A
C23    C25     1.460   .     S
C23    O54     1.293   .     A
C24    C518    1.397   1_554 S
C24    H552    1.080   1_554 S
C26    C27     1.390   .     A
C26    H41     1.083   .     S
C27    C541    1.389   .     S
C27    H556    1.079   .     S
C28    H42     1.077   .     S
C28    C540    1.389   1_554 S
C28    C515    1.413   1_554 S
Cu29   N46     2.015   .     S
Cu29   Cu30    2.681   .     S
Cu29   O50     1.969   .     S
Cu29   O54     1.962   .     S
Cu29   O48     1.964   .     S
Cu29   O52     1.966   .     S
Cu30   O51     1.962   .     S
Cu30   O55     1.969   .     S
Cu30   O49     1.966   .     S
Cu30   O53     1.964   .     S
Cu30   N47     2.014   .     S
H39    C537    1.080   .     S
H43    C540    1.079   1_554 S
C56    N57     1.158   .     T
C58    C74     1.446   .     S
C58    O105    1.291   .     A
C58    O106    1.291   .     A
C59    C60     1.418   .     A
C59    C574    1.425   .     S
C59    C598    1.413   .     S
C60    C67     1.431   .     A
C60    C64     1.413   .     A
C61    C65     1.401   .     A
C61    C572    1.425   1_554 S
C61    C575    1.418   1_554 S
C62    C63     1.385   .     A
C62    C574    1.418   .     S
C62    C594    1.397   .     S
C63    H95     1.085   .     S
C63    C64     1.381   .     A
C64    H101    1.071   .     S
C65    C82     1.400   .     A
C65    H97     1.076   .     S
C66    C81     1.388   .     A
C66    C82     1.398   .     A
C66    H88     1.083   .     S
C67    C83     1.403   .     A
C67    C69     1.486   .     S
C68    H102    1.083   .     S
C68    C74     1.397   .     A
C68    C241    1.383   .     S
C69    O107    1.310   .     A
C69    O108    1.290   .     A
C70    H89     1.084   .     S
C70    C71     1.403   .     A
C70    C410    1.383   1_545 S
C71    C79     1.456   .     S
C71    C72     1.416   .     A
C72    C113    1.446   .     S
C72    C415    1.387   1_545 S
C73    H90     1.085   .     S
C73    C74     1.398   .     A
C73    C243    1.387   .     S
C75    N104    1.368   .     A
C75    H91     1.080   .     S
C75    C133    1.416   .     S
C76    N103    1.367   .     A
C76    H92     1.081   .     S
C77    H93     1.081   .     S
C77    N103    1.367   .     A
C78    H94     1.081   .     S
C78    N104    1.367   .     A
C78    C134    1.417   .     S
C79    O110    1.295   .     A
C79    O109    1.290   .     A
C80    O112    1.296   .     A
C80    C82     1.460   .     S
C80    O111    1.293   .     A
C81    C575    1.397   1_554 S
C81    H609    1.080   1_554 S
C83    C84     1.390   .     A
C83    H98     1.083   .     S
C84    C598    1.389   .     S
C84    H613    1.079   .     S
C85    H99     1.077   .     S
C85    C597    1.389   1_554 S
C85    C572    1.413   1_554 S
Cu86   N103    2.015   .     S
Cu86   Cu87    2.681   .     S
Cu86   O107    1.969   .     S
Cu86   O111    1.962   .     S
Cu86   O105    1.964   .     S
Cu86   O109    1.966   .     S
Cu87   O108    1.962   .     S
Cu87   O112    1.969   .     S
Cu87   O106    1.966   .     S
Cu87   O110    1.964   .     S
Cu87   N104    2.014   .     S
H96    C594    1.080   .     S
H100   C597    1.079   1_554 S
C113   N114    1.158   .     T
C115   C131    1.446   .     S
C115   O162    1.291   .     A
C115   O163    1.291   .     A
C116   C117    1.418   .     A
C116   C631    1.425   .     S
C116   C655    1.413   .     S
C117   C124    1.431   .     A
C117   C121    1.413   .     A
C118   C122    1.401   .     A
C118   C629    1.425   1_554 S
C118   C632    1.418   1_554 S
C119   C120    1.385   .     A
C119   C631    1.418   .     S
C119   C651    1.397   .     S
C120   H152    1.085   .     S
C120   C121    1.381   .     A
C121   H158    1.071   .     S
C122   C139    1.400   .     A
C122   H154    1.076   .     S
C123   C138    1.388   .     A
C123   C139    1.398   .     A
C123   H145    1.083   .     S
C124   C140    1.403   .     A
C124   C126    1.486   .     S
C125   H159    1.083   .     S
C125   C131    1.397   .     A
C125   C298    1.383   .     S
C126   O164    1.310   .     A
C126   O165    1.290   .     A
C127   H146    1.084   .     S
C127   C128    1.403   .     A
C127   C467    1.383   1_545 S
C128   C136    1.456   .     S
C128   C129    1.416   .     A
C129   C170    1.446   .     S
C129   C472    1.387   1_545 S
C130   H147    1.085   .     S
C130   C131    1.398   .     A
C130   C300    1.387   .     S
C132   N161    1.368   .     A
C132   H148    1.080   .     S
C132   C19     1.416   1_655 S
C133   N160    1.367   .     A
C133   H149    1.081   .     S
C134   H150    1.081   .     S
C134   N160    1.367   .     A
C135   H151    1.081   .     S
C135   N161    1.367   .     A
C135   C20     1.417   1_655 S
C136   O167    1.295   .     A
C136   O166    1.290   .     A
C137   O169    1.296   .     A
C137   C139    1.460   .     S
C137   O168    1.293   .     A
C138   C632    1.397   1_554 S
C138   H666    1.080   1_554 S
C140   C141    1.390   .     A
C140   H155    1.083   .     S
C141   C655    1.389   .     S
C141   H670    1.079   .     S
C142   H156    1.077   .     S
C142   C654    1.389   1_554 S
C142   C629    1.413   1_554 S
Cu143  N160    2.015   .     S
Cu143  Cu144   2.681   .     S
Cu143  O164    1.969   .     S
Cu143  O168    1.962   .     S
Cu143  O162    1.964   .     S
Cu143  O166    1.966   .     S
Cu144  O165    1.962   .     S
Cu144  O169    1.969   .     S
Cu144  O163    1.966   .     S
Cu144  O167    1.964   .     S
Cu144  N161    2.014   .     S
H153   C651    1.080   .     S
H157   C654    1.079   1_554 S
C170   N171    1.158   .     T
C172   C188    1.446   .     S
C172   O219    1.291   .     A
C172   O220    1.291   .     A
C173   C174    1.418   .     A
C173   C688    1.425   .     S
C173   C712    1.413   .     S
C174   C181    1.431   .     A
C174   C178    1.413   .     A
C175   C179    1.401   .     A
C175   C686    1.425   1_554 S
C175   C689    1.418   1_554 S
C176   C177    1.385   .     A
C176   C688    1.418   .     S
C176   C708    1.397   .     S
C177   H209    1.085   .     S
C177   C178    1.381   .     A
C178   H215    1.071   .     S
C179   C196    1.400   .     A
C179   H211    1.076   .     S
C180   C195    1.388   .     A
C180   C196    1.398   .     A
C180   H202    1.083   .     S
C181   C197    1.403   .     A
C181   C183    1.486   .     S
C182   H216    1.083   .     S
C182   C188    1.397   .     A
C182   C355    1.383   .     S
C183   O221    1.310   .     A
C183   O222    1.290   .     A
C184   H203    1.084   .     S
C184   C185    1.403   .     A
C185   C193    1.456   .     S
C185   C186    1.416   .     A
C186   C227    1.446   .     S
C187   H204    1.085   .     S
C187   C188    1.398   .     A
C187   C357    1.387   .     S
C189   N218    1.368   .     A
C189   H205    1.080   .     S
C189   C247    1.416   .     S
C190   N217    1.367   .     A
C190   H206    1.081   .     S
C190   C303    1.416   1_455 S
C191   H207    1.081   .     S
C191   N217    1.367   .     A
C191   C306    1.417   1_455 S
C192   H208    1.081   .     S
C192   N218    1.367   .     A
C192   C248    1.417   .     S
C193   O224    1.295   .     A
C193   O223    1.290   .     A
C194   O226    1.296   .     A
C194   C196    1.460   .     S
C194   O225    1.293   .     A
C195   C689    1.397   1_554 S
C195   H723    1.080   1_554 S
C197   C198    1.390   .     A
C197   H212    1.083   .     S
C198   C712    1.389   .     S
C198   H727    1.079   .     S
C199   H213    1.077   .     S
C199   C711    1.389   1_554 S
C199   C686    1.413   1_554 S
Cu200  N217    2.015   .     S
Cu200  Cu201   2.681   .     S
Cu200  O221    1.969   .     S
Cu200  O225    1.962   .     S
Cu200  O219    1.964   .     S
Cu200  O223    1.966   .     S
Cu201  O222    1.962   .     S
Cu201  O226    1.969   .     S
Cu201  O220    1.966   .     S
Cu201  O224    1.964   .     S
Cu201  N218    2.014   .     S
H210   C708    1.080   .     S
H214   C711    1.079   1_554 S
C227   N228    1.158   .     T
C229   C245    1.446   .     S
C229   O276    1.291   .     A
C229   O277    1.291   .     A
C230   C231    1.418   .     A
C230   C745    1.425   .     S
C230   C769    1.413   .     S
C231   C238    1.431   .     A
C231   C235    1.413   .     A
C232   C236    1.401   .     A
C232   C743    1.425   1_554 S
C232   C746    1.418   1_554 S
C233   C234    1.385   .     A
C233   C745    1.418   .     S
C233   C765    1.397   .     S
C234   H266    1.085   .     S
C234   C235    1.381   .     A
C235   H272    1.071   .     S
C236   C253    1.400   .     A
C236   H268    1.076   .     S
C237   C252    1.388   .     A
C237   C253    1.398   .     A
C237   H259    1.083   .     S
C238   C254    1.403   .     A
C238   C240    1.486   .     S
C239   H273    1.083   .     S
C239   C245    1.397   .     A
C239   C412    1.383   .     S
C240   O278    1.310   .     A
C240   O279    1.290   .     A
C241   H260    1.084   .     S
C241   C242    1.403   .     A
C242   C250    1.456   .     S
C242   C243    1.416   .     A
C243   C284    1.446   .     S
C244   H261    1.085   .     S
C244   C245    1.398   .     A
C244   C414    1.387   .     S
C246   N275    1.368   .     A
C246   H262    1.080   .     S
C246   C304    1.416   .     S
C247   N274    1.367   .     A
C247   H263    1.081   .     S
C248   H264    1.081   .     S
C248   N274    1.367   .     A
C249   H265    1.081   .     S
C249   N275    1.367   .     A
C249   C305    1.417   .     S
C250   O281    1.295   .     A
C250   O280    1.290   .     A
C251   O283    1.296   .     A
C251   C253    1.460   .     S
C251   O282    1.293   .     A
C252   C746    1.397   1_554 S
C252   H780    1.080   1_554 S
C254   C255    1.390   .     A
C254   H269    1.083   .     S
C255   C769    1.389   .     S
C255   H784    1.079   .     S
C256   H270    1.077   .     S
C256   C768    1.389   1_554 S
C256   C743    1.413   1_554 S
Cu257  N274    2.015   .     S
Cu257  Cu258   2.681   .     S
Cu257  O278    1.969   .     S
Cu257  O282    1.962   .     S
Cu257  O276    1.964   .     S
Cu257  O280    1.966   .     S
Cu258  O279    1.962   .     S
Cu258  O283    1.969   .     S
Cu258  O277    1.966   .     S
Cu258  O281    1.964   .     S
Cu258  N275    2.014   .     S
H267   C765    1.080   .     S
H271   C768    1.079   1_554 S
C284   N285    1.158   .     T
C286   C302    1.446   .     S
C286   O333    1.291   .     A
C286   O334    1.291   .     A
C287   C288    1.418   .     A
C287   C802    1.425   .     S
C287   C826    1.413   .     S
C288   C295    1.431   .     A
C288   C292    1.413   .     A
C289   C293    1.401   .     A
C289   C800    1.425   1_554 S
C289   C803    1.418   1_554 S
C290   C291    1.385   .     A
C290   C802    1.418   .     S
C290   C822    1.397   .     S
C291   H323    1.085   .     S
C291   C292    1.381   .     A
C292   H329    1.071   .     S
C293   C310    1.400   .     A
C293   H325    1.076   .     S
C294   C309    1.388   .     A
C294   C310    1.398   .     A
C294   H316    1.083   .     S
C295   C311    1.403   .     A
C295   C297    1.486   .     S
C296   H330    1.083   .     S
C296   C302    1.397   .     A
C296   C469    1.383   .     S
C297   O335    1.310   .     A
C297   O336    1.290   .     A
C298   H317    1.084   .     S
C298   C299    1.403   .     A
C299   C307    1.456   .     S
C299   C300    1.416   .     A
C300   C341    1.446   .     S
C301   H318    1.085   .     S
C301   C302    1.398   .     A
C301   C471    1.387   .     S
C303   N332    1.368   .     A
C303   H319    1.080   .     S
C303   C190    1.416   1_655 S
C304   N331    1.367   .     A
C304   H320    1.081   .     S
C305   H321    1.081   .     S
C305   N331    1.367   .     A
C306   H322    1.081   .     S
C306   N332    1.367   .     A
C306   C191    1.417   1_655 S
C307   O338    1.295   .     A
C307   O337    1.290   .     A
C308   O340    1.296   .     A
C308   C310    1.460   .     S
C308   O339    1.293   .     A
C309   C803    1.397   1_554 S
C309   H837    1.080   1_554 S
C311   C312    1.390   .     A
C311   H326    1.083   .     S
C312   C826    1.389   .     S
C312   H841    1.079   .     S
C313   H327    1.077   .     S
C313   C825    1.389   1_554 S
C313   C800    1.413   1_554 S
Cu314  N331    2.015   .     S
Cu314  Cu315   2.681   .     S
Cu314  O335    1.969   .     S
Cu314  O339    1.962   .     S
Cu314  O333    1.964   .     S
Cu314  O337    1.966   .     S
Cu315  O336    1.962   .     S
Cu315  O340    1.969   .     S
Cu315  O334    1.966   .     S
Cu315  O338    1.964   .     S
Cu315  N332    2.014   .     S
H324   C822    1.080   .     S
H328   C825    1.079   1_554 S
C341   N342    1.158   .     T
C343   C359    1.446   .     S
C343   O390    1.291   .     A
C343   O391    1.291   .     A
C344   C345    1.418   .     A
C344   C859    1.425   .     S
C344   C883    1.413   .     S
C345   C352    1.431   .     A
C345   C349    1.413   .     A
C346   C350    1.401   .     A
C346   C857    1.425   1_554 S
C346   C860    1.418   1_554 S
C347   C348    1.385   .     A
C347   C859    1.418   .     S
C347   C879    1.397   .     S
C348   H380    1.085   .     S
C348   C349    1.381   .     A
C349   H386    1.071   .     S
C350   C367    1.400   .     A
C350   H382    1.076   .     S
C351   C366    1.388   .     A
C351   C367    1.398   .     A
C351   H373    1.083   .     S
C352   C368    1.403   .     A
C352   C354    1.486   .     S
C353   H387    1.083   .     S
C353   C359    1.397   .     A
C353   C13     1.383   1_565 S
C354   O392    1.310   .     A
C354   O393    1.290   .     A
C355   H374    1.084   .     S
C355   C356    1.403   .     A
C356   C364    1.456   .     S
C356   C357    1.416   .     A
C357   C398    1.446   .     S
C358   H375    1.085   .     S
C358   C359    1.398   .     A
C358   C15     1.387   1_565 S
C360   N389    1.368   .     A
C360   H376    1.080   .     S
C360   C418    1.416   .     S
C361   N388    1.367   .     A
C361   H377    1.081   .     S
C361   C474    1.416   1_455 S
C362   H378    1.081   .     S
C362   N388    1.367   .     A
C362   C477    1.417   1_455 S
C363   H379    1.081   .     S
C363   N389    1.367   .     A
C363   C419    1.417   .     S
C364   O395    1.295   .     A
C364   O394    1.290   .     A
C365   O397    1.296   .     A
C365   C367    1.460   .     S
C365   O396    1.293   .     A
C366   C860    1.397   1_554 S
C366   H894    1.080   1_554 S
C368   C369    1.390   .     A
C368   H383    1.083   .     S
C369   C883    1.389   .     S
C369   H898    1.079   .     S
C370   H384    1.077   .     S
C370   C882    1.389   1_554 S
C370   C857    1.413   1_554 S
Cu371  N388    2.015   .     S
Cu371  Cu372   2.681   .     S
Cu371  O392    1.969   .     S
Cu371  O396    1.962   .     S
Cu371  O390    1.964   .     S
Cu371  O394    1.966   .     S
Cu372  O393    1.962   .     S
Cu372  O397    1.969   .     S
Cu372  O391    1.966   .     S
Cu372  O395    1.964   .     S
Cu372  N389    2.014   .     S
H381   C879    1.080   .     S
H385   C882    1.079   1_554 S
C398   N399    1.158   .     T
C400   C416    1.446   .     S
C400   O447    1.291   .     A
C400   O448    1.291   .     A
C401   C402    1.418   .     A
C401   C916    1.425   .     S
C401   C940    1.413   .     S
C402   C409    1.431   .     A
C402   C406    1.413   .     A
C403   C407    1.401   .     A
C403   C914    1.425   1_554 S
C403   C917    1.418   1_554 S
C404   C405    1.385   .     A
C404   C916    1.418   .     S
C404   C936    1.397   .     S
C405   H437    1.085   .     S
C405   C406    1.381   .     A
C406   H443    1.071   .     S
C407   C424    1.400   .     A
C407   H439    1.076   .     S
C408   C423    1.388   .     A
C408   C424    1.398   .     A
C408   H430    1.083   .     S
C409   C425    1.403   .     A
C409   C411    1.486   .     S
C410   H444    1.083   .     S
C410   C416    1.397   .     A
C410   C70     1.383   1_565 S
C411   O449    1.310   .     A
C411   O450    1.290   .     A
C412   H431    1.084   .     S
C412   C413    1.403   .     A
C413   C421    1.456   .     S
C413   C414    1.416   .     A
C414   C455    1.446   .     S
C415   H432    1.085   .     S
C415   C416    1.398   .     A
C415   C72     1.387   1_565 S
C417   N446    1.368   .     A
C417   H433    1.080   .     S
C417   C475    1.416   .     S
C418   N445    1.367   .     A
C418   H434    1.081   .     S
C419   H435    1.081   .     S
C419   N445    1.367   .     A
C420   H436    1.081   .     S
C420   N446    1.367   .     A
C420   C476    1.417   .     S
C421   O452    1.295   .     A
C421   O451    1.290   .     A
C422   O454    1.296   .     A
C422   C424    1.460   .     S
C422   O453    1.293   .     A
C423   C917    1.397   1_554 S
C423   H951    1.080   1_554 S
C425   C426    1.390   .     A
C425   H440    1.083   .     S
C426   C940    1.389   .     S
C426   H955    1.079   .     S
C427   H441    1.077   .     S
C427   C939    1.389   1_554 S
C427   C914    1.413   1_554 S
Cu428  N445    2.015   .     S
Cu428  Cu429   2.681   .     S
Cu428  O449    1.969   .     S
Cu428  O453    1.962   .     S
Cu428  O447    1.964   .     S
Cu428  O451    1.966   .     S
Cu429  O450    1.962   .     S
Cu429  O454    1.969   .     S
Cu429  O448    1.966   .     S
Cu429  O452    1.964   .     S
Cu429  N446    2.014   .     S
H438   C936    1.080   .     S
H442   C939    1.079   1_554 S
C455   N456    1.158   .     T
C457   C473    1.446   .     S
C457   O504    1.291   .     A
C457   O505    1.291   .     A
C458   C459    1.418   .     A
C458   C973    1.425   .     S
C458   C997    1.413   .     S
C459   C466    1.431   .     A
C459   C463    1.413   .     A
C460   C464    1.401   .     A
C460   C971    1.425   1_554 S
C460   C974    1.418   1_554 S
C461   C462    1.385   .     A
C461   C973    1.418   .     S
C461   C993    1.397   .     S
C462   H494    1.085   .     S
C462   C463    1.381   .     A
C463   H500    1.071   .     S
C464   C481    1.400   .     A
C464   H496    1.076   .     S
C465   C480    1.388   .     A
C465   C481    1.398   .     A
C465   H487    1.083   .     S
C466   C482    1.403   .     A
C466   C468    1.486   .     S
C467   H501    1.083   .     S
C467   C473    1.397   .     A
C467   C127    1.383   1_565 S
C468   O506    1.310   .     A
C468   O507    1.290   .     A
C469   H488    1.084   .     S
C469   C470    1.403   .     A
C470   C478    1.456   .     S
C470   C471    1.416   .     A
C471   C512    1.446   .     S
C472   H489    1.085   .     S
C472   C473    1.398   .     A
C472   C129    1.387   1_565 S
C474   N503    1.368   .     A
C474   H490    1.080   .     S
C474   C361    1.416   1_655 S
C475   N502    1.367   .     A
C475   H491    1.081   .     S
C476   H492    1.081   .     S
C476   N502    1.367   .     A
C477   H493    1.081   .     S
C477   N503    1.367   .     A
C477   C362    1.417   1_655 S
C478   O509    1.295   .     A
C478   O508    1.290   .     A
C479   O511    1.296   .     A
C479   C481    1.460   .     S
C479   O510    1.293   .     A
C480   C974    1.397   1_554 S
C480   H1008   1.080   1_554 S
C482   C483    1.390   .     A
C482   H497    1.083   .     S
C483   C997    1.389   .     S
C483   H1012   1.079   .     S
C484   H498    1.077   .     S
C484   C996    1.389   1_554 S
C484   C971    1.413   1_554 S
Cu485  N502    2.015   .     S
Cu485  Cu486   2.681   .     S
Cu485  O506    1.969   .     S
Cu485  O510    1.962   .     S
Cu485  O504    1.964   .     S
Cu485  O508    1.966   .     S
Cu486  O507    1.962   .     S
Cu486  O511    1.969   .     S
Cu486  O505    1.966   .     S
Cu486  O509    1.964   .     S
Cu486  N503    2.014   .     S
H495   C993    1.080   .     S
H499   C996    1.079   1_554 S
C512   N513    1.158   .     T
C514   C530    1.446   .     S
C514   O561    1.291   .     A
C514   O562    1.291   .     A
C515   C516    1.418   .     A
C515   C4      1.425   1_556 S
C515   C28     1.413   1_556 S
C516   C523    1.431   .     A
C516   C520    1.413   .     A
C517   C521    1.401   .     A
C518   C519    1.385   .     A
C518   C4      1.418   1_556 S
C518   C24     1.397   1_556 S
C519   H551    1.085   .     S
C519   C520    1.381   .     A
C520   H557    1.071   .     S
C521   C538    1.400   .     A
C521   H553    1.076   .     S
C522   C537    1.388   .     A
C522   C538    1.398   .     A
C522   H544    1.083   .     S
C523   C539    1.403   .     A
C523   C525    1.486   .     S
C524   H558    1.083   .     S
C524   C530    1.397   .     A
C524   C697    1.383   .     S
C525   O563    1.310   .     A
C525   O564    1.290   .     A
C526   H545    1.084   .     S
C526   C527    1.403   .     A
C526   C866    1.383   1_545 S
C527   C535    1.456   .     S
C527   C528    1.416   .     A
C528   C569    1.446   .     S
C528   C871    1.387   1_545 S
C529   H546    1.085   .     S
C529   C530    1.398   .     A
C529   C699    1.387   .     S
C531   N560    1.368   .     A
C531   H547    1.080   .     S
C531   C589    1.416   .     S
C532   N559    1.367   .     A
C532   H548    1.081   .     S
C532   C645    1.416   1_455 S
C533   H549    1.081   .     S
C533   N559    1.367   .     A
C533   C648    1.417   1_455 S
C534   H550    1.081   .     S
C534   N560    1.367   .     A
C534   C590    1.417   .     S
C535   O566    1.295   .     A
C535   O565    1.290   .     A
C536   O568    1.296   .     A
C536   C538    1.460   .     S
C536   O567    1.293   .     A
C539   C540    1.390   .     A
C539   H554    1.083   .     S
C540   C28     1.389   1_556 S
C540   H43     1.079   1_556 S
C541   H555    1.077   .     S
Cu542  N559    2.015   .     S
Cu542  Cu543   2.681   .     S
Cu542  O563    1.969   .     S
Cu542  O567    1.962   .     S
Cu542  O561    1.964   .     S
Cu542  O565    1.966   .     S
Cu543  O564    1.962   .     S
Cu543  O568    1.969   .     S
Cu543  O562    1.966   .     S
Cu543  O566    1.964   .     S
Cu543  N560    2.014   .     S
H552   C24     1.080   1_556 S
C569   N570    1.158   .     T
C571   C587    1.446   .     S
C571   O618    1.291   .     A
C571   O619    1.291   .     A
C572   C573    1.418   .     A
C572   C61     1.425   1_556 S
C572   C85     1.413   1_556 S
C573   C580    1.431   .     A
C573   C577    1.413   .     A
C574   C578    1.401   .     A
C575   C576    1.385   .     A
C575   C61     1.418   1_556 S
C575   C81     1.397   1_556 S
C576   H608    1.085   .     S
C576   C577    1.381   .     A
C577   H614    1.071   .     S
C578   C595    1.400   .     A
C578   H610    1.076   .     S
C579   C594    1.388   .     A
C579   C595    1.398   .     A
C579   H601    1.083   .     S
C580   C596    1.403   .     A
C580   C582    1.486   .     S
C581   H615    1.083   .     S
C581   C587    1.397   .     A
C581   C754    1.383   .     S
C582   O620    1.310   .     A
C582   O621    1.290   .     A
C583   H602    1.084   .     S
C583   C584    1.403   .     A
C583   C923    1.383   1_545 S
C584   C592    1.456   .     S
C584   C585    1.416   .     A
C585   C626    1.446   .     S
C585   C928    1.387   1_545 S
C586   H603    1.085   .     S
C586   C587    1.398   .     A
C586   C756    1.387   .     S
C588   N617    1.368   .     A
C588   H604    1.080   .     S
C588   C646    1.416   .     S
C589   N616    1.367   .     A
C589   H605    1.081   .     S
C590   H606    1.081   .     S
C590   N616    1.367   .     A
C591   H607    1.081   .     S
C591   N617    1.367   .     A
C591   C647    1.417   .     S
C592   O623    1.295   .     A
C592   O622    1.290   .     A
C593   O625    1.296   .     A
C593   C595    1.460   .     S
C593   O624    1.293   .     A
C596   C597    1.390   .     A
C596   H611    1.083   .     S
C597   C85     1.389   1_556 S
C597   H100    1.079   1_556 S
C598   H612    1.077   .     S
Cu599  N616    2.015   .     S
Cu599  Cu600   2.681   .     S
Cu599  O620    1.969   .     S
Cu599  O624    1.962   .     S
Cu599  O618    1.964   .     S
Cu599  O622    1.966   .     S
Cu600  O621    1.962   .     S
Cu600  O625    1.969   .     S
Cu600  O619    1.966   .     S
Cu600  O623    1.964   .     S
Cu600  N617    2.014   .     S
H609   C81     1.080   1_556 S
C626   N627    1.158   .     T
C628   C644    1.446   .     S
C628   O675    1.291   .     A
C628   O676    1.291   .     A
C629   C630    1.418   .     A
C629   C118    1.425   1_556 S
C629   C142    1.413   1_556 S
C630   C637    1.431   .     A
C630   C634    1.413   .     A
C631   C635    1.401   .     A
C632   C633    1.385   .     A
C632   C118    1.418   1_556 S
C632   C138    1.397   1_556 S
C633   H665    1.085   .     S
C633   C634    1.381   .     A
C634   H671    1.071   .     S
C635   C652    1.400   .     A
C635   H667    1.076   .     S
C636   C651    1.388   .     A
C636   C652    1.398   .     A
C636   H658    1.083   .     S
C637   C653    1.403   .     A
C637   C639    1.486   .     S
C638   H672    1.083   .     S
C638   C644    1.397   .     A
C638   C811    1.383   .     S
C639   O677    1.310   .     A
C639   O678    1.290   .     A
C640   H659    1.084   .     S
C640   C641    1.403   .     A
C640   C980    1.383   1_545 S
C641   C649    1.456   .     S
C641   C642    1.416   .     A
C642   C683    1.446   .     S
C642   C985    1.387   1_545 S
C643   H660    1.085   .     S
C643   C644    1.398   .     A
C643   C813    1.387   .     S
C645   N674    1.368   .     A
C645   H661    1.080   .     S
C645   C532    1.416   1_655 S
C646   N673    1.367   .     A
C646   H662    1.081   .     S
C647   H663    1.081   .     S
C647   N673    1.367   .     A
C648   H664    1.081   .     S
C648   N674    1.367   .     A
C648   C533    1.417   1_655 S
C649   O680    1.295   .     A
C649   O679    1.290   .     A
C650   O682    1.296   .     A
C650   C652    1.460   .     S
C650   O681    1.293   .     A
C653   C654    1.390   .     A
C653   H668    1.083   .     S
C654   C142    1.389   1_556 S
C654   H157    1.079   1_556 S
C655   H669    1.077   .     S
Cu656  N673    2.015   .     S
Cu656  Cu657   2.681   .     S
Cu656  O677    1.969   .     S
Cu656  O681    1.962   .     S
Cu656  O675    1.964   .     S
Cu656  O679    1.966   .     S
Cu657  O678    1.962   .     S
Cu657  O682    1.969   .     S
Cu657  O676    1.966   .     S
Cu657  O680    1.964   .     S
Cu657  N674    2.014   .     S
H666   C138    1.080   1_556 S
C683   N684    1.158   .     T
C685   C701    1.446   .     S
C685   O732    1.291   .     A
C685   O733    1.291   .     A
C686   C687    1.418   .     A
C686   C175    1.425   1_556 S
C686   C199    1.413   1_556 S
C687   C694    1.431   .     A
C687   C691    1.413   .     A
C688   C692    1.401   .     A
C689   C690    1.385   .     A
C689   C175    1.418   1_556 S
C689   C195    1.397   1_556 S
C690   H722    1.085   .     S
C690   C691    1.381   .     A
C691   H728    1.071   .     S
C692   C709    1.400   .     A
C692   H724    1.076   .     S
C693   C708    1.388   .     A
C693   C709    1.398   .     A
C693   H715    1.083   .     S
C694   C710    1.403   .     A
C694   C696    1.486   .     S
C695   H729    1.083   .     S
C695   C701    1.397   .     A
C695   C868    1.383   .     S
C696   O734    1.310   .     A
C696   O735    1.290   .     A
C697   H716    1.084   .     S
C697   C698    1.403   .     A
C698   C706    1.456   .     S
C698   C699    1.416   .     A
C699   C740    1.446   .     S
C700   H717    1.085   .     S
C700   C701    1.398   .     A
C700   C870    1.387   .     S
C702   N731    1.368   .     A
C702   H718    1.080   .     S
C702   C760    1.416   .     S
C703   N730    1.367   .     A
C703   H719    1.081   .     S
C703   C816    1.416   1_455 S
C704   H720    1.081   .     S
C704   N730    1.367   .     A
C704   C819    1.417   1_455 S
C705   H721    1.081   .     S
C705   N731    1.367   .     A
C705   C761    1.417   .     S
C706   O737    1.295   .     A
C706   O736    1.290   .     A
C707   O739    1.296   .     A
C707   C709    1.460   .     S
C707   O738    1.293   .     A
C710   C711    1.390   .     A
C710   H725    1.083   .     S
C711   C199    1.389   1_556 S
C711   H214    1.079   1_556 S
C712   H726    1.077   .     S
Cu713  N730    2.015   .     S
Cu713  Cu714   2.681   .     S
Cu713  O734    1.969   .     S
Cu713  O738    1.962   .     S
Cu713  O732    1.964   .     S
Cu713  O736    1.966   .     S
Cu714  O735    1.962   .     S
Cu714  O739    1.969   .     S
Cu714  O733    1.966   .     S
Cu714  O737    1.964   .     S
Cu714  N731    2.014   .     S
H723   C195    1.080   1_556 S
C740   N741    1.158   .     T
C742   C758    1.446   .     S
C742   O789    1.291   .     A
C742   O790    1.291   .     A
C743   C744    1.418   .     A
C743   C232    1.425   1_556 S
C743   C256    1.413   1_556 S
C744   C751    1.431   .     A
C744   C748    1.413   .     A
C745   C749    1.401   .     A
C746   C747    1.385   .     A
C746   C232    1.418   1_556 S
C746   C252    1.397   1_556 S
C747   H779    1.085   .     S
C747   C748    1.381   .     A
C748   H785    1.071   .     S
C749   C766    1.400   .     A
C749   H781    1.076   .     S
C750   C765    1.388   .     A
C750   C766    1.398   .     A
C750   H772    1.083   .     S
C751   C767    1.403   .     A
C751   C753    1.486   .     S
C752   H786    1.083   .     S
C752   C758    1.397   .     A
C752   C925    1.383   .     S
C753   O791    1.310   .     A
C753   O792    1.290   .     A
C754   H773    1.084   .     S
C754   C755    1.403   .     A
C755   C763    1.456   .     S
C755   C756    1.416   .     A
C756   C797    1.446   .     S
C757   H774    1.085   .     S
C757   C758    1.398   .     A
C757   C927    1.387   .     S
C759   N788    1.368   .     A
C759   H775    1.080   .     S
C759   C817    1.416   .     S
C760   N787    1.367   .     A
C760   H776    1.081   .     S
C761   H777    1.081   .     S
C761   N787    1.367   .     A
C762   H778    1.081   .     S
C762   N788    1.367   .     A
C762   C818    1.417   .     S
C763   O794    1.295   .     A
C763   O793    1.290   .     A
C764   O796    1.296   .     A
C764   C766    1.460   .     S
C764   O795    1.293   .     A
C767   C768    1.390   .     A
C767   H782    1.083   .     S
C768   C256    1.389   1_556 S
C768   H271    1.079   1_556 S
C769   H783    1.077   .     S
Cu770  N787    2.015   .     S
Cu770  Cu771   2.681   .     S
Cu770  O791    1.969   .     S
Cu770  O795    1.962   .     S
Cu770  O789    1.964   .     S
Cu770  O793    1.966   .     S
Cu771  O792    1.962   .     S
Cu771  O796    1.969   .     S
Cu771  O790    1.966   .     S
Cu771  O794    1.964   .     S
Cu771  N788    2.014   .     S
H780   C252    1.080   1_556 S
C797   N798    1.158   .     T
C799   C815    1.446   .     S
C799   O846    1.291   .     A
C799   O847    1.291   .     A
C800   C801    1.418   .     A
C800   C289    1.425   1_556 S
C800   C313    1.413   1_556 S
C801   C808    1.431   .     A
C801   C805    1.413   .     A
C802   C806    1.401   .     A
C803   C804    1.385   .     A
C803   C289    1.418   1_556 S
C803   C309    1.397   1_556 S
C804   H836    1.085   .     S
C804   C805    1.381   .     A
C805   H842    1.071   .     S
C806   C823    1.400   .     A
C806   H838    1.076   .     S
C807   C822    1.388   .     A
C807   C823    1.398   .     A
C807   H829    1.083   .     S
C808   C824    1.403   .     A
C808   C810    1.486   .     S
C809   H843    1.083   .     S
C809   C815    1.397   .     A
C809   C982    1.383   .     S
C810   O848    1.310   .     A
C810   O849    1.290   .     A
C811   H830    1.084   .     S
C811   C812    1.403   .     A
C812   C820    1.456   .     S
C812   C813    1.416   .     A
C813   C854    1.446   .     S
C814   H831    1.085   .     S
C814   C815    1.398   .     A
C814   C984    1.387   .     S
C816   N845    1.368   .     A
C816   H832    1.080   .     S
C816   C703    1.416   1_655 S
C817   N844    1.367   .     A
C817   H833    1.081   .     S
C818   H834    1.081   .     S
C818   N844    1.367   .     A
C819   H835    1.081   .     S
C819   N845    1.367   .     A
C819   C704    1.417   1_655 S
C820   O851    1.295   .     A
C820   O850    1.290   .     A
C821   O853    1.296   .     A
C821   C823    1.460   .     S
C821   O852    1.293   .     A
C824   C825    1.390   .     A
C824   H839    1.083   .     S
C825   C313    1.389   1_556 S
C825   H328    1.079   1_556 S
C826   H840    1.077   .     S
Cu827  N844    2.015   .     S
Cu827  Cu828   2.681   .     S
Cu827  O848    1.969   .     S
Cu827  O852    1.962   .     S
Cu827  O846    1.964   .     S
Cu827  O850    1.966   .     S
Cu828  O849    1.962   .     S
Cu828  O853    1.969   .     S
Cu828  O847    1.966   .     S
Cu828  O851    1.964   .     S
Cu828  N845    2.014   .     S
H837   C309    1.080   1_556 S
C854   N855    1.158   .     T
C856   C872    1.446   .     S
C856   O903    1.291   .     A
C856   O904    1.291   .     A
C857   C858    1.418   .     A
C857   C346    1.425   1_556 S
C857   C370    1.413   1_556 S
C858   C865    1.431   .     A
C858   C862    1.413   .     A
C859   C863    1.401   .     A
C860   C861    1.385   .     A
C860   C346    1.418   1_556 S
C860   C366    1.397   1_556 S
C861   H893    1.085   .     S
C861   C862    1.381   .     A
C862   H899    1.071   .     S
C863   C880    1.400   .     A
C863   H895    1.076   .     S
C864   C879    1.388   .     A
C864   C880    1.398   .     A
C864   H886    1.083   .     S
C865   C881    1.403   .     A
C865   C867    1.486   .     S
C866   H900    1.083   .     S
C866   C872    1.397   .     A
C866   C526    1.383   1_565 S
C867   O905    1.310   .     A
C867   O906    1.290   .     A
C868   H887    1.084   .     S
C868   C869    1.403   .     A
C869   C877    1.456   .     S
C869   C870    1.416   .     A
C870   C911    1.446   .     S
C871   H888    1.085   .     S
C871   C872    1.398   .     A
C871   C528    1.387   1_565 S
C873   N902    1.368   .     A
C873   H889    1.080   .     S
C873   C931    1.416   .     S
C874   N901    1.367   .     A
C874   H890    1.081   .     S
C874   C987    1.416   1_455 S
C875   H891    1.081   .     S
C875   N901    1.367   .     A
C875   C990    1.417   1_455 S
C876   H892    1.081   .     S
C876   N902    1.367   .     A
C876   C932    1.417   .     S
C877   O908    1.295   .     A
C877   O907    1.290   .     A
C878   O910    1.296   .     A
C878   C880    1.460   .     S
C878   O909    1.293   .     A
C881   C882    1.390   .     A
C881   H896    1.083   .     S
C882   C370    1.389   1_556 S
C882   H385    1.079   1_556 S
C883   H897    1.077   .     S
Cu884  N901    2.015   .     S
Cu884  Cu885   2.681   .     S
Cu884  O905    1.969   .     S
Cu884  O909    1.962   .     S
Cu884  O903    1.964   .     S
Cu884  O907    1.966   .     S
Cu885  O906    1.962   .     S
Cu885  O910    1.969   .     S
Cu885  O904    1.966   .     S
Cu885  O908    1.964   .     S
Cu885  N902    2.014   .     S
H894   C366    1.080   1_556 S
C911   N912    1.158   .     T
C913   C929    1.446   .     S
C913   O960    1.291   .     A
C913   O961    1.291   .     A
C914   C915    1.418   .     A
C914   C403    1.425   1_556 S
C914   C427    1.413   1_556 S
C915   C922    1.431   .     A
C915   C919    1.413   .     A
C916   C920    1.401   .     A
C917   C918    1.385   .     A
C917   C403    1.418   1_556 S
C917   C423    1.397   1_556 S
C918   H950    1.085   .     S
C918   C919    1.381   .     A
C919   H956    1.071   .     S
C920   C937    1.400   .     A
C920   H952    1.076   .     S
C921   C936    1.388   .     A
C921   C937    1.398   .     A
C921   H943    1.083   .     S
C922   C938    1.403   .     A
C922   C924    1.486   .     S
C923   H957    1.083   .     S
C923   C929    1.397   .     A
C923   C583    1.383   1_565 S
C924   O962    1.310   .     A
C924   O963    1.290   .     A
C925   H944    1.084   .     S
C925   C926    1.403   .     A
C926   C934    1.456   .     S
C926   C927    1.416   .     A
C927   C968    1.446   .     S
C928   H945    1.085   .     S
C928   C929    1.398   .     A
C928   C585    1.387   1_565 S
C930   N959    1.368   .     A
C930   H946    1.080   .     S
C930   C988    1.416   .     S
C931   N958    1.367   .     A
C931   H947    1.081   .     S
C932   H948    1.081   .     S
C932   N958    1.367   .     A
C933   H949    1.081   .     S
C933   N959    1.367   .     A
C933   C989    1.417   .     S
C934   O965    1.295   .     A
C934   O964    1.290   .     A
C935   O967    1.296   .     A
C935   C937    1.460   .     S
C935   O966    1.293   .     A
C938   C939    1.390   .     A
C938   H953    1.083   .     S
C939   C427    1.389   1_556 S
C939   H442    1.079   1_556 S
C940   H954    1.077   .     S
Cu941  N958    2.015   .     S
Cu941  Cu942   2.681   .     S
Cu941  O962    1.969   .     S
Cu941  O966    1.962   .     S
Cu941  O960    1.964   .     S
Cu941  O964    1.966   .     S
Cu942  O963    1.962   .     S
Cu942  O967    1.969   .     S
Cu942  O961    1.966   .     S
Cu942  O965    1.964   .     S
Cu942  N959    2.014   .     S
H951   C423    1.080   1_556 S
C968   N969    1.158   .     T
C970   C986    1.446   .     S
C970   O1017   1.291   .     A
C970   O1018   1.291   .     A
C971   C972    1.418   .     A
C971   C460    1.425   1_556 S
C971   C484    1.413   1_556 S
C972   C979    1.431   .     A
C972   C976    1.413   .     A
C973   C977    1.401   .     A
C974   C975    1.385   .     A
C974   C460    1.418   1_556 S
C974   C480    1.397   1_556 S
C975   H1007   1.085   .     S
C975   C976    1.381   .     A
C976   H1013   1.071   .     S
C977   C994    1.400   .     A
C977   H1009   1.076   .     S
C978   C993    1.388   .     A
C978   C994    1.398   .     A
C978   H1000   1.083   .     S
C979   C995    1.403   .     A
C979   C981    1.486   .     S
C980   H1014   1.083   .     S
C980   C986    1.397   .     A
C980   C640    1.383   1_565 S
C981   O1019   1.310   .     A
C981   O1020   1.290   .     A
C982   H1001   1.084   .     S
C982   C983    1.403   .     A
C983   C991    1.456   .     S
C983   C984    1.416   .     A
C984   C1025   1.446   .     S
C985   H1002   1.085   .     S
C985   C986    1.398   .     A
C985   C642    1.387   1_565 S
C987   N1016   1.368   .     A
C987   H1003   1.080   .     S
C987   C874    1.416   1_655 S
C988   N1015   1.367   .     A
C988   H1004   1.081   .     S
C989   H1005   1.081   .     S
C989   N1015   1.367   .     A
C990   H1006   1.081   .     S
C990   N1016   1.367   .     A
C990   C875    1.417   1_655 S
C991   O1022   1.295   .     A
C991   O1021   1.290   .     A
C992   O1024   1.296   .     A
C992   C994    1.460   .     S
C992   O1023   1.293   .     A
C995   C996    1.390   .     A
C995   H1010   1.083   .     S
C996   C484    1.389   1_556 S
C996   H499    1.079   1_556 S
C997   H1011   1.077   .     S
Cu998  N1015   2.015   .     S
Cu998  Cu999   2.681   .     S
Cu998  O1019   1.969   .     S
Cu998  O1023   1.962   .     S
Cu998  O1017   1.964   .     S
Cu998  O1021   1.966   .     S
Cu999  O1020   1.962   .     S
Cu999  O1024   1.969   .     S
Cu999  O1018   1.966   .     S
Cu999  O1022   1.964   .     S
Cu999  N1016   2.014   .     S
H1008  C480    1.080   1_556 S
C1025  N1026   1.158   .     T
