data_str_m2_o1_o18_pcu_sym.209
_audit_creation_date              2020-01-03
_audit_creation_method            'Materials Studio'
_symmetry_space_group_name_H-M    'P1'
_symmetry_Int_Tables_number       1
_symmetry_cell_setting            triclinic
loop_
_symmetry_equiv_pos_as_xyz
  x,y,z
_cell_length_a                    28.5779
_cell_length_b                    32.4016
_cell_length_c                    30.9855
_cell_angle_alpha                 89.9071
_cell_angle_beta                  74.4998
_cell_angle_gamma                 90.1153
loop_
_atom_site_label
_atom_site_type_symbol
_atom_site_fract_x
_atom_site_fract_y
_atom_site_fract_z
_atom_site_U_iso_or_equiv
_atom_site_adp_type
_atom_site_occupancy
O1     O     0.03958   0.10655   0.25000   0.00000  Uiso   1.00
O2     O     0.29375   0.22678   0.25000   0.00000  Uiso   1.00
O3     O     0.29372   0.10654   0.25001   0.00000  Uiso   1.00
O4     O     0.03961   0.22679   0.25000   0.00000  Uiso   1.00
C5     C     0.33290   0.08744   0.25128   0.00000  Uiso   1.00
C6     C     0.00043   0.24590   0.24872   0.00000  Uiso   1.00
O7     O     0.01852   0.16668   0.31492   0.00000  Uiso   1.00
O8     O     0.31481   0.16666   0.18509   0.00000  Uiso   1.00
O9     O     0.27267   0.16667   0.31492   0.00000  Uiso   1.00
O10    O     0.06067   0.16667   0.18508   0.00000  Uiso   1.00
C11    C     0.30610   0.16673   0.33607   0.00000  Uiso   1.00
C12    C     0.02723   0.16617   0.16396   0.00000  Uiso   1.00
Cu13   Cu    0.04689   0.16667   0.25000   0.00000  Uiso   1.00
Cu14   Cu    0.28645   0.16666   0.25000   0.00000  Uiso   1.00
C15    C     0.29116   0.16740   0.38520   0.00000  Uiso   1.00
C16    C     0.04235   0.16209   0.11509   0.00000  Uiso   1.00
C17    C     0.30835   0.17976   0.45628   0.00000  Uiso   1.00
C18    C     0.02725   0.13938   0.04583   0.00000  Uiso   1.00
C19    C     0.32435   0.17632   0.40990   0.00000  Uiso   1.00
C20    C     0.01027   0.14769   0.09140   0.00000  Uiso   1.00
C21    C     0.24229   0.16052   0.40738   0.00000  Uiso   1.00
C22    C     0.09105   0.16914   0.09266   0.00000  Uiso   1.00
C23    C     0.22536   0.16276   0.45428   0.00000  Uiso   1.00
C24    C     0.10961   0.15942   0.04710   0.00000  Uiso   1.00
C25    C     0.25921   0.17349   0.47855   0.00000  Uiso   1.00
C26    C     0.07650   0.14507   0.02356   0.00000  Uiso   1.00
C27    C     0.17563   0.15599   0.47747   0.00000  Uiso   1.00
C28    C     0.15991   0.16340   0.02444   0.00000  Uiso   1.00
C29    C     0.19515   0.17357   0.04734   0.00000  Uiso   1.00
C30    C     0.14129   0.14150   0.45543   0.00000  Uiso   1.00
C31    C     0.24374   0.17829   0.02476   0.00000  Uiso   1.00
C32    C     0.09284   0.13603   0.47818   0.00000  Uiso   1.00
H33    H     0.26935   0.18629   0.04367   0.00000  Uiso   1.00
H34    H     0.06792   0.12461   0.45999   0.00000  Uiso   1.00
H35    H     0.11367   0.18230   0.11181   0.00000  Uiso   1.00
H36    H     0.21790   0.15471   0.38701   0.00000  Uiso   1.00
H37    H     0.30581   0.14182   0.10827   0.00000  Uiso   1.00
H38    H     0.02897   0.18182   0.39334   0.00000  Uiso   1.00
H39    H     0.00098   0.18803   0.47469   0.00000  Uiso   1.00
H40    H     0.00205   0.12766   0.02814   0.00000  Uiso   1.00
H41    H     0.18680   0.17726   0.08310   0.00000  Uiso   1.00
H42    H     0.15072   0.13283   0.42066   0.00000  Uiso   1.00
C43    C     0.30651   0.02226   0.22629   0.00000  Uiso   1.00
C44    C     0.02683   0.31108   0.27371   0.00000  Uiso   1.00
H45    H     0.28707   0.03973   0.20674   0.00000  Uiso   1.00
H46    H     0.04627   0.29361   0.29326   0.00000  Uiso   1.00
C47    C     0.30775   0.31280   0.22308   0.00000  Uiso   1.00
C48    C     0.02558   0.02054   0.27693   0.00000  Uiso   1.00
C49    C     0.00102   0.29053   0.24764   0.00000  Uiso   1.00
C50    C     0.33231   0.04280   0.25236   0.00000  Uiso   1.00
C51    C     0.18261   0.14343   0.28024   0.00000  Uiso   1.00
C52    C     0.15073   0.18990   0.21976   0.00000  Uiso   1.00
H53    H     0.19417   0.12471   0.30442   0.00000  Uiso   1.00
H54    H     0.13917   0.20862   0.19557   0.00000  Uiso   1.00
C55    C     0.13302   0.14348   0.28026   0.00000  Uiso   1.00
C56    C     0.20031   0.18985   0.21974   0.00000  Uiso   1.00
H57    H     0.10728   0.12489   0.30450   0.00000  Uiso   1.00
H58    H     0.22605   0.20843   0.19550   0.00000  Uiso   1.00
N59    N     0.11736   0.16668   0.24999   0.00000  Uiso   1.00
N60    N     0.21597   0.16666   0.25001   0.00000  Uiso   1.00
N61    N     0.28408   0.29281   0.19320   0.00000  Uiso   1.00
O62    O     0.30630   0.26388   0.16641   0.00000  Uiso   1.00
O63    O     0.24368   0.30759   0.18785   0.00000  Uiso   1.00
N64    N     0.04923   0.04053   0.30682   0.00000  Uiso   1.00
O65    O     0.02699   0.06945   0.33361   0.00000  Uiso   1.00
O66    O     0.08963   0.02576   0.31217   0.00000  Uiso   1.00
O67    O     0.37291   0.10655   0.25000   0.00000  Uiso   1.00
O68    O     0.62709   0.22678   0.25000   0.00000  Uiso   1.00
O69    O     0.62706   0.10654   0.25001   0.00000  Uiso   1.00
O70    O     0.37294   0.22679   0.25000   0.00000  Uiso   1.00
C71    C     0.66623   0.08744   0.25128   0.00000  Uiso   1.00
C72    C     0.33377   0.24590   0.24872   0.00000  Uiso   1.00
O73    O     0.35186   0.16668   0.31492   0.00000  Uiso   1.00
O74    O     0.64814   0.16666   0.18509   0.00000  Uiso   1.00
O75    O     0.60600   0.16667   0.31492   0.00000  Uiso   1.00
O76    O     0.39400   0.16667   0.18508   0.00000  Uiso   1.00
C77    C     0.63943   0.16673   0.33607   0.00000  Uiso   1.00
C78    C     0.36056   0.16617   0.16396   0.00000  Uiso   1.00
Cu79   Cu    0.38022   0.16667   0.25000   0.00000  Uiso   1.00
Cu80   Cu    0.61978   0.16666   0.25000   0.00000  Uiso   1.00
C81    C     0.62449   0.16740   0.38520   0.00000  Uiso   1.00
C82    C     0.37568   0.16209   0.11509   0.00000  Uiso   1.00
C83    C     0.64169   0.17976   0.45628   0.00000  Uiso   1.00
C84    C     0.36059   0.13938   0.04583   0.00000  Uiso   1.00
C85    C     0.65768   0.17632   0.40990   0.00000  Uiso   1.00
C86    C     0.34360   0.14769   0.09140   0.00000  Uiso   1.00
C87    C     0.57563   0.16052   0.40738   0.00000  Uiso   1.00
C88    C     0.42439   0.16914   0.09266   0.00000  Uiso   1.00
C89    C     0.55869   0.16276   0.45428   0.00000  Uiso   1.00
C90    C     0.44294   0.15942   0.04710   0.00000  Uiso   1.00
C91    C     0.59255   0.17349   0.47855   0.00000  Uiso   1.00
C92    C     0.40984   0.14507   0.02356   0.00000  Uiso   1.00
C93    C     0.50897   0.15599   0.47747   0.00000  Uiso   1.00
C94    C     0.49324   0.16340   0.02444   0.00000  Uiso   1.00
C95    C     0.52848   0.17357   0.04734   0.00000  Uiso   1.00
C96    C     0.47463   0.14150   0.45543   0.00000  Uiso   1.00
C97    C     0.57708   0.17829   0.02476   0.00000  Uiso   1.00
C98    C     0.42618   0.13603   0.47818   0.00000  Uiso   1.00
H99    H     0.60268   0.18629   0.04367   0.00000  Uiso   1.00
H100   H     0.40125   0.12461   0.45999   0.00000  Uiso   1.00
H101   H     0.44700   0.18230   0.11181   0.00000  Uiso   1.00
H102   H     0.55123   0.15471   0.38701   0.00000  Uiso   1.00
H103   H     0.63914   0.14182   0.10827   0.00000  Uiso   1.00
H104   H     0.36231   0.18182   0.39334   0.00000  Uiso   1.00
H105   H     0.33431   0.18803   0.47469   0.00000  Uiso   1.00
H106   H     0.33538   0.12766   0.02814   0.00000  Uiso   1.00
H107   H     0.52014   0.17726   0.08310   0.00000  Uiso   1.00
H108   H     0.48405   0.13283   0.42066   0.00000  Uiso   1.00
C109   C     0.63984   0.02226   0.22629   0.00000  Uiso   1.00
C110   C     0.36016   0.31108   0.27371   0.00000  Uiso   1.00
H111   H     0.62041   0.03973   0.20674   0.00000  Uiso   1.00
H112   H     0.37960   0.29361   0.29326   0.00000  Uiso   1.00
C113   C     0.64108   0.31280   0.22308   0.00000  Uiso   1.00
C114   C     0.35891   0.02054   0.27693   0.00000  Uiso   1.00
C115   C     0.33435   0.29053   0.24764   0.00000  Uiso   1.00
C116   C     0.66564   0.04280   0.25236   0.00000  Uiso   1.00
C117   C     0.51594   0.14343   0.28024   0.00000  Uiso   1.00
C118   C     0.48406   0.18990   0.21976   0.00000  Uiso   1.00
H119   H     0.52750   0.12471   0.30442   0.00000  Uiso   1.00
H120   H     0.47250   0.20862   0.19557   0.00000  Uiso   1.00
C121   C     0.46635   0.14348   0.28026   0.00000  Uiso   1.00
C122   C     0.53365   0.18985   0.21974   0.00000  Uiso   1.00
H123   H     0.44062   0.12489   0.30450   0.00000  Uiso   1.00
H124   H     0.55938   0.20843   0.19550   0.00000  Uiso   1.00
N125   N     0.45069   0.16668   0.24999   0.00000  Uiso   1.00
N126   N     0.54931   0.16666   0.25001   0.00000  Uiso   1.00
N127   N     0.61742   0.29281   0.19320   0.00000  Uiso   1.00
O128   O     0.63963   0.26388   0.16641   0.00000  Uiso   1.00
O129   O     0.57701   0.30759   0.18785   0.00000  Uiso   1.00
N130   N     0.38256   0.04053   0.30682   0.00000  Uiso   1.00
O131   O     0.36033   0.06945   0.33361   0.00000  Uiso   1.00
O132   O     0.42297   0.02576   0.31217   0.00000  Uiso   1.00
O133   O     0.70625   0.10655   0.25000   0.00000  Uiso   1.00
O134   O     0.96042   0.22678   0.25000   0.00000  Uiso   1.00
O135   O     0.96039   0.10654   0.25001   0.00000  Uiso   1.00
O136   O     0.70628   0.22679   0.25000   0.00000  Uiso   1.00
C137   C     0.99956   0.08744   0.25128   0.00000  Uiso   1.00
C138   C     0.66710   0.24590   0.24872   0.00000  Uiso   1.00
O139   O     0.68519   0.16668   0.31492   0.00000  Uiso   1.00
O140   O     0.98148   0.16666   0.18509   0.00000  Uiso   1.00
O141   O     0.93933   0.16667   0.31492   0.00000  Uiso   1.00
O142   O     0.72733   0.16667   0.18508   0.00000  Uiso   1.00
C143   C     0.97277   0.16673   0.33607   0.00000  Uiso   1.00
C144   C     0.69390   0.16617   0.16396   0.00000  Uiso   1.00
Cu145  Cu    0.71355   0.16667   0.25000   0.00000  Uiso   1.00
Cu146  Cu    0.95311   0.16666   0.25000   0.00000  Uiso   1.00
C147   C     0.95782   0.16740   0.38520   0.00000  Uiso   1.00
C148   C     0.70902   0.16209   0.11509   0.00000  Uiso   1.00
C149   C     0.97502   0.17976   0.45628   0.00000  Uiso   1.00
C150   C     0.69392   0.13938   0.04583   0.00000  Uiso   1.00
C151   C     0.99101   0.17632   0.40990   0.00000  Uiso   1.00
C152   C     0.67694   0.14769   0.09140   0.00000  Uiso   1.00
C153   C     0.90896   0.16052   0.40738   0.00000  Uiso   1.00
C154   C     0.75772   0.16914   0.09266   0.00000  Uiso   1.00
C155   C     0.89202   0.16276   0.45428   0.00000  Uiso   1.00
C156   C     0.77628   0.15942   0.04710   0.00000  Uiso   1.00
C157   C     0.92588   0.17349   0.47855   0.00000  Uiso   1.00
C158   C     0.74317   0.14507   0.02356   0.00000  Uiso   1.00
C159   C     0.84230   0.15599   0.47747   0.00000  Uiso   1.00
C160   C     0.82658   0.16340   0.02444   0.00000  Uiso   1.00
C161   C     0.86181   0.17357   0.04734   0.00000  Uiso   1.00
C162   C     0.80796   0.14150   0.45543   0.00000  Uiso   1.00
C163   C     0.91041   0.17829   0.02476   0.00000  Uiso   1.00
C164   C     0.75951   0.13603   0.47818   0.00000  Uiso   1.00
H165   H     0.93602   0.18629   0.04367   0.00000  Uiso   1.00
H166   H     0.73459   0.12461   0.45999   0.00000  Uiso   1.00
H167   H     0.78033   0.18230   0.11181   0.00000  Uiso   1.00
H168   H     0.88457   0.15471   0.38701   0.00000  Uiso   1.00
H169   H     0.97247   0.14182   0.10827   0.00000  Uiso   1.00
H170   H     0.69564   0.18182   0.39334   0.00000  Uiso   1.00
H171   H     0.66765   0.18803   0.47469   0.00000  Uiso   1.00
H172   H     0.66872   0.12766   0.02814   0.00000  Uiso   1.00
H173   H     0.85347   0.17726   0.08310   0.00000  Uiso   1.00
H174   H     0.81739   0.13283   0.42066   0.00000  Uiso   1.00
C175   C     0.97317   0.02226   0.22629   0.00000  Uiso   1.00
C176   C     0.69350   0.31108   0.27371   0.00000  Uiso   1.00
H177   H     0.95374   0.03973   0.20674   0.00000  Uiso   1.00
H178   H     0.71293   0.29361   0.29326   0.00000  Uiso   1.00
C179   C     0.97442   0.31280   0.22308   0.00000  Uiso   1.00
C180   C     0.69225   0.02054   0.27693   0.00000  Uiso   1.00
C181   C     0.66769   0.29053   0.24764   0.00000  Uiso   1.00
C182   C     0.99898   0.04280   0.25236   0.00000  Uiso   1.00
C183   C     0.84928   0.14343   0.28024   0.00000  Uiso   1.00
C184   C     0.81739   0.18990   0.21976   0.00000  Uiso   1.00
H185   H     0.86083   0.12471   0.30442   0.00000  Uiso   1.00
H186   H     0.80584   0.20862   0.19557   0.00000  Uiso   1.00
C187   C     0.79969   0.14348   0.28026   0.00000  Uiso   1.00
C188   C     0.86698   0.18985   0.21974   0.00000  Uiso   1.00
H189   H     0.77395   0.12489   0.30450   0.00000  Uiso   1.00
H190   H     0.89272   0.20843   0.19550   0.00000  Uiso   1.00
N191   N     0.78403   0.16668   0.24999   0.00000  Uiso   1.00
N192   N     0.88264   0.16666   0.25001   0.00000  Uiso   1.00
N193   N     0.95075   0.29281   0.19320   0.00000  Uiso   1.00
O194   O     0.97297   0.26388   0.16641   0.00000  Uiso   1.00
O195   O     0.91034   0.30759   0.18785   0.00000  Uiso   1.00
N196   N     0.71589   0.04053   0.30682   0.00000  Uiso   1.00
O197   O     0.69366   0.06945   0.33361   0.00000  Uiso   1.00
O198   O     0.75630   0.02576   0.31217   0.00000  Uiso   1.00
O199   O     0.03958   0.43989   0.25000   0.00000  Uiso   1.00
O200   O     0.29375   0.56011   0.25000   0.00000  Uiso   1.00
O201   O     0.29372   0.43988   0.25001   0.00000  Uiso   1.00
O202   O     0.03961   0.56012   0.25000   0.00000  Uiso   1.00
C203   C     0.33290   0.42077   0.25128   0.00000  Uiso   1.00
C204   C     0.00043   0.57923   0.24872   0.00000  Uiso   1.00
O205   O     0.01852   0.50001   0.31492   0.00000  Uiso   1.00
O206   O     0.31481   0.49999   0.18509   0.00000  Uiso   1.00
O207   O     0.27267   0.50000   0.31492   0.00000  Uiso   1.00
O208   O     0.06067   0.50000   0.18508   0.00000  Uiso   1.00
C209   C     0.30610   0.50007   0.33607   0.00000  Uiso   1.00
C210   C     0.02723   0.49950   0.16396   0.00000  Uiso   1.00
Cu211  Cu    0.04689   0.50001   0.25000   0.00000  Uiso   1.00
Cu212  Cu    0.28645   0.49999   0.25000   0.00000  Uiso   1.00
C213   C     0.29116   0.50074   0.38520   0.00000  Uiso   1.00
C214   C     0.04235   0.49542   0.11509   0.00000  Uiso   1.00
C215   C     0.30835   0.51310   0.45628   0.00000  Uiso   1.00
C216   C     0.02725   0.47272   0.04583   0.00000  Uiso   1.00
C217   C     0.32435   0.50966   0.40990   0.00000  Uiso   1.00
C218   C     0.01027   0.48102   0.09140   0.00000  Uiso   1.00
C219   C     0.24229   0.49385   0.40738   0.00000  Uiso   1.00
C220   C     0.09105   0.50248   0.09266   0.00000  Uiso   1.00
C221   C     0.22536   0.49609   0.45428   0.00000  Uiso   1.00
C222   C     0.10961   0.49276   0.04710   0.00000  Uiso   1.00
C223   C     0.25921   0.50683   0.47855   0.00000  Uiso   1.00
C224   C     0.07650   0.47841   0.02356   0.00000  Uiso   1.00
C225   C     0.17563   0.48933   0.47747   0.00000  Uiso   1.00
C226   C     0.15991   0.49673   0.02444   0.00000  Uiso   1.00
C227   C     0.19515   0.50691   0.04734   0.00000  Uiso   1.00
C228   C     0.14129   0.47484   0.45543   0.00000  Uiso   1.00
C229   C     0.24374   0.51162   0.02476   0.00000  Uiso   1.00
C230   C     0.09284   0.46937   0.47818   0.00000  Uiso   1.00
H231   H     0.26935   0.51962   0.04367   0.00000  Uiso   1.00
H232   H     0.06792   0.45794   0.45999   0.00000  Uiso   1.00
H233   H     0.11367   0.51563   0.11181   0.00000  Uiso   1.00
H234   H     0.21790   0.48804   0.38701   0.00000  Uiso   1.00
H235   H     0.30581   0.47515   0.10827   0.00000  Uiso   1.00
H236   H     0.02897   0.51516   0.39334   0.00000  Uiso   1.00
H237   H     0.00098   0.52137   0.47469   0.00000  Uiso   1.00
H238   H     0.00205   0.46099   0.02814   0.00000  Uiso   1.00
H239   H     0.18680   0.51059   0.08310   0.00000  Uiso   1.00
H240   H     0.15072   0.46616   0.42066   0.00000  Uiso   1.00
C241   C     0.30651   0.35559   0.22629   0.00000  Uiso   1.00
C242   C     0.02683   0.64442   0.27371   0.00000  Uiso   1.00
H243   H     0.28707   0.37307   0.20674   0.00000  Uiso   1.00
H244   H     0.04627   0.62694   0.29326   0.00000  Uiso   1.00
C245   C     0.30775   0.64613   0.22308   0.00000  Uiso   1.00
C246   C     0.02558   0.35387   0.27693   0.00000  Uiso   1.00
C247   C     0.00102   0.62387   0.24764   0.00000  Uiso   1.00
C248   C     0.33231   0.37614   0.25236   0.00000  Uiso   1.00
C249   C     0.18261   0.47676   0.28024   0.00000  Uiso   1.00
C250   C     0.15073   0.52323   0.21976   0.00000  Uiso   1.00
H251   H     0.19417   0.45804   0.30442   0.00000  Uiso   1.00
H252   H     0.13917   0.54195   0.19557   0.00000  Uiso   1.00
C253   C     0.13302   0.47681   0.28026   0.00000  Uiso   1.00
C254   C     0.20031   0.52318   0.21974   0.00000  Uiso   1.00
H255   H     0.10728   0.45823   0.30450   0.00000  Uiso   1.00
H256   H     0.22605   0.54177   0.19550   0.00000  Uiso   1.00
N257   N     0.11736   0.50001   0.24999   0.00000  Uiso   1.00
N258   N     0.21597   0.49999   0.25001   0.00000  Uiso   1.00
N259   N     0.28408   0.62614   0.19320   0.00000  Uiso   1.00
O260   O     0.30630   0.59721   0.16641   0.00000  Uiso   1.00
O261   O     0.24368   0.64092   0.18785   0.00000  Uiso   1.00
N262   N     0.04923   0.37386   0.30682   0.00000  Uiso   1.00
O263   O     0.02699   0.40279   0.33361   0.00000  Uiso   1.00
O264   O     0.08963   0.35909   0.31217   0.00000  Uiso   1.00
O265   O     0.37291   0.43989   0.25000   0.00000  Uiso   1.00
O266   O     0.62709   0.56011   0.25000   0.00000  Uiso   1.00
O267   O     0.62706   0.43988   0.25001   0.00000  Uiso   1.00
O268   O     0.37294   0.56012   0.25000   0.00000  Uiso   1.00
C269   C     0.66623   0.42077   0.25128   0.00000  Uiso   1.00
C270   C     0.33377   0.57923   0.24872   0.00000  Uiso   1.00
O271   O     0.35186   0.50001   0.31492   0.00000  Uiso   1.00
O272   O     0.64814   0.49999   0.18509   0.00000  Uiso   1.00
O273   O     0.60600   0.50000   0.31492   0.00000  Uiso   1.00
O274   O     0.39400   0.50000   0.18508   0.00000  Uiso   1.00
C275   C     0.63943   0.50007   0.33607   0.00000  Uiso   1.00
C276   C     0.36056   0.49950   0.16396   0.00000  Uiso   1.00
Cu277  Cu    0.38022   0.50001   0.25000   0.00000  Uiso   1.00
Cu278  Cu    0.61978   0.49999   0.25000   0.00000  Uiso   1.00
C279   C     0.62449   0.50074   0.38520   0.00000  Uiso   1.00
C280   C     0.37568   0.49542   0.11509   0.00000  Uiso   1.00
C281   C     0.64169   0.51310   0.45628   0.00000  Uiso   1.00
C282   C     0.36059   0.47272   0.04583   0.00000  Uiso   1.00
C283   C     0.65768   0.50966   0.40990   0.00000  Uiso   1.00
C284   C     0.34360   0.48102   0.09140   0.00000  Uiso   1.00
C285   C     0.57563   0.49385   0.40738   0.00000  Uiso   1.00
C286   C     0.42439   0.50248   0.09266   0.00000  Uiso   1.00
C287   C     0.55869   0.49609   0.45428   0.00000  Uiso   1.00
C288   C     0.44294   0.49276   0.04710   0.00000  Uiso   1.00
C289   C     0.59255   0.50683   0.47855   0.00000  Uiso   1.00
C290   C     0.40984   0.47841   0.02356   0.00000  Uiso   1.00
C291   C     0.50897   0.48933   0.47747   0.00000  Uiso   1.00
C292   C     0.49324   0.49673   0.02444   0.00000  Uiso   1.00
C293   C     0.52848   0.50691   0.04734   0.00000  Uiso   1.00
C294   C     0.47463   0.47484   0.45543   0.00000  Uiso   1.00
C295   C     0.57708   0.51162   0.02476   0.00000  Uiso   1.00
C296   C     0.42618   0.46937   0.47818   0.00000  Uiso   1.00
H297   H     0.60268   0.51962   0.04367   0.00000  Uiso   1.00
H298   H     0.40125   0.45794   0.45999   0.00000  Uiso   1.00
H299   H     0.44700   0.51563   0.11181   0.00000  Uiso   1.00
H300   H     0.55123   0.48804   0.38701   0.00000  Uiso   1.00
H301   H     0.63914   0.47515   0.10827   0.00000  Uiso   1.00
H302   H     0.36231   0.51516   0.39334   0.00000  Uiso   1.00
H303   H     0.33431   0.52137   0.47469   0.00000  Uiso   1.00
H304   H     0.33538   0.46099   0.02814   0.00000  Uiso   1.00
H305   H     0.52014   0.51059   0.08310   0.00000  Uiso   1.00
H306   H     0.48405   0.46616   0.42066   0.00000  Uiso   1.00
C307   C     0.63984   0.35559   0.22629   0.00000  Uiso   1.00
C308   C     0.36016   0.64442   0.27371   0.00000  Uiso   1.00
H309   H     0.62041   0.37307   0.20674   0.00000  Uiso   1.00
H310   H     0.37960   0.62694   0.29326   0.00000  Uiso   1.00
C311   C     0.64108   0.64613   0.22308   0.00000  Uiso   1.00
C312   C     0.35891   0.35387   0.27693   0.00000  Uiso   1.00
C313   C     0.33435   0.62387   0.24764   0.00000  Uiso   1.00
C314   C     0.66564   0.37614   0.25236   0.00000  Uiso   1.00
C315   C     0.51594   0.47676   0.28024   0.00000  Uiso   1.00
C316   C     0.48406   0.52323   0.21976   0.00000  Uiso   1.00
H317   H     0.52750   0.45804   0.30442   0.00000  Uiso   1.00
H318   H     0.47250   0.54195   0.19557   0.00000  Uiso   1.00
C319   C     0.46635   0.47681   0.28026   0.00000  Uiso   1.00
C320   C     0.53365   0.52318   0.21974   0.00000  Uiso   1.00
H321   H     0.44062   0.45823   0.30450   0.00000  Uiso   1.00
H322   H     0.55938   0.54177   0.19550   0.00000  Uiso   1.00
N323   N     0.45069   0.50001   0.24999   0.00000  Uiso   1.00
N324   N     0.54931   0.49999   0.25001   0.00000  Uiso   1.00
N325   N     0.61742   0.62614   0.19320   0.00000  Uiso   1.00
O326   O     0.63963   0.59721   0.16641   0.00000  Uiso   1.00
O327   O     0.57701   0.64092   0.18785   0.00000  Uiso   1.00
N328   N     0.38256   0.37386   0.30682   0.00000  Uiso   1.00
O329   O     0.36033   0.40279   0.33361   0.00000  Uiso   1.00
O330   O     0.42297   0.35909   0.31217   0.00000  Uiso   1.00
O331   O     0.70625   0.43989   0.25000   0.00000  Uiso   1.00
O332   O     0.96042   0.56011   0.25000   0.00000  Uiso   1.00
O333   O     0.96039   0.43988   0.25001   0.00000  Uiso   1.00
O334   O     0.70628   0.56012   0.25000   0.00000  Uiso   1.00
C335   C     0.99956   0.42077   0.25128   0.00000  Uiso   1.00
C336   C     0.66710   0.57923   0.24872   0.00000  Uiso   1.00
O337   O     0.68519   0.50001   0.31492   0.00000  Uiso   1.00
O338   O     0.98148   0.49999   0.18509   0.00000  Uiso   1.00
O339   O     0.93933   0.50000   0.31492   0.00000  Uiso   1.00
O340   O     0.72733   0.50000   0.18508   0.00000  Uiso   1.00
C341   C     0.97277   0.50007   0.33607   0.00000  Uiso   1.00
C342   C     0.69390   0.49950   0.16396   0.00000  Uiso   1.00
Cu343  Cu    0.71355   0.50001   0.25000   0.00000  Uiso   1.00
Cu344  Cu    0.95311   0.49999   0.25000   0.00000  Uiso   1.00
C345   C     0.95782   0.50074   0.38520   0.00000  Uiso   1.00
C346   C     0.70902   0.49542   0.11509   0.00000  Uiso   1.00
C347   C     0.97502   0.51310   0.45628   0.00000  Uiso   1.00
C348   C     0.69392   0.47272   0.04583   0.00000  Uiso   1.00
C349   C     0.99101   0.50966   0.40990   0.00000  Uiso   1.00
C350   C     0.67694   0.48102   0.09140   0.00000  Uiso   1.00
C351   C     0.90896   0.49385   0.40738   0.00000  Uiso   1.00
C352   C     0.75772   0.50248   0.09266   0.00000  Uiso   1.00
C353   C     0.89202   0.49609   0.45428   0.00000  Uiso   1.00
C354   C     0.77628   0.49276   0.04710   0.00000  Uiso   1.00
C355   C     0.92588   0.50683   0.47855   0.00000  Uiso   1.00
C356   C     0.74317   0.47841   0.02356   0.00000  Uiso   1.00
C357   C     0.84230   0.48933   0.47747   0.00000  Uiso   1.00
C358   C     0.82658   0.49673   0.02444   0.00000  Uiso   1.00
C359   C     0.86181   0.50691   0.04734   0.00000  Uiso   1.00
C360   C     0.80796   0.47484   0.45543   0.00000  Uiso   1.00
C361   C     0.91041   0.51162   0.02476   0.00000  Uiso   1.00
C362   C     0.75951   0.46937   0.47818   0.00000  Uiso   1.00
H363   H     0.93602   0.51962   0.04367   0.00000  Uiso   1.00
H364   H     0.73459   0.45794   0.45999   0.00000  Uiso   1.00
H365   H     0.78033   0.51563   0.11181   0.00000  Uiso   1.00
H366   H     0.88457   0.48804   0.38701   0.00000  Uiso   1.00
H367   H     0.97247   0.47515   0.10827   0.00000  Uiso   1.00
H368   H     0.69564   0.51516   0.39334   0.00000  Uiso   1.00
H369   H     0.66765   0.52137   0.47469   0.00000  Uiso   1.00
H370   H     0.66872   0.46099   0.02814   0.00000  Uiso   1.00
H371   H     0.85347   0.51059   0.08310   0.00000  Uiso   1.00
H372   H     0.81739   0.46616   0.42066   0.00000  Uiso   1.00
C373   C     0.97317   0.35559   0.22629   0.00000  Uiso   1.00
C374   C     0.69350   0.64442   0.27371   0.00000  Uiso   1.00
H375   H     0.95374   0.37307   0.20674   0.00000  Uiso   1.00
H376   H     0.71293   0.62694   0.29326   0.00000  Uiso   1.00
C377   C     0.97442   0.64613   0.22308   0.00000  Uiso   1.00
C378   C     0.69225   0.35387   0.27693   0.00000  Uiso   1.00
C379   C     0.66769   0.62387   0.24764   0.00000  Uiso   1.00
C380   C     0.99898   0.37614   0.25236   0.00000  Uiso   1.00
C381   C     0.84928   0.47676   0.28024   0.00000  Uiso   1.00
C382   C     0.81739   0.52323   0.21976   0.00000  Uiso   1.00
H383   H     0.86083   0.45804   0.30442   0.00000  Uiso   1.00
H384   H     0.80584   0.54195   0.19557   0.00000  Uiso   1.00
C385   C     0.79969   0.47681   0.28026   0.00000  Uiso   1.00
C386   C     0.86698   0.52318   0.21974   0.00000  Uiso   1.00
H387   H     0.77395   0.45823   0.30450   0.00000  Uiso   1.00
H388   H     0.89272   0.54177   0.19550   0.00000  Uiso   1.00
N389   N     0.78403   0.50001   0.24999   0.00000  Uiso   1.00
N390   N     0.88264   0.49999   0.25001   0.00000  Uiso   1.00
N391   N     0.95075   0.62614   0.19320   0.00000  Uiso   1.00
O392   O     0.97297   0.59721   0.16641   0.00000  Uiso   1.00
O393   O     0.91034   0.64092   0.18785   0.00000  Uiso   1.00
N394   N     0.71589   0.37386   0.30682   0.00000  Uiso   1.00
O395   O     0.69366   0.40279   0.33361   0.00000  Uiso   1.00
O396   O     0.75630   0.35909   0.31217   0.00000  Uiso   1.00
O397   O     0.03958   0.77322   0.25000   0.00000  Uiso   1.00
O398   O     0.29375   0.89345   0.25000   0.00000  Uiso   1.00
O399   O     0.29372   0.77321   0.25001   0.00000  Uiso   1.00
O400   O     0.03961   0.89346   0.25000   0.00000  Uiso   1.00
C401   C     0.33290   0.75410   0.25128   0.00000  Uiso   1.00
C402   C     0.00043   0.91256   0.24872   0.00000  Uiso   1.00
O403   O     0.01852   0.83334   0.31492   0.00000  Uiso   1.00
O404   O     0.31481   0.83332   0.18509   0.00000  Uiso   1.00
O405   O     0.27267   0.83333   0.31492   0.00000  Uiso   1.00
O406   O     0.06067   0.83333   0.18508   0.00000  Uiso   1.00
C407   C     0.30610   0.83340   0.33607   0.00000  Uiso   1.00
C408   C     0.02723   0.83284   0.16396   0.00000  Uiso   1.00
Cu409  Cu    0.04689   0.83334   0.25000   0.00000  Uiso   1.00
Cu410  Cu    0.28645   0.83333   0.25000   0.00000  Uiso   1.00
C411   C     0.29116   0.83407   0.38520   0.00000  Uiso   1.00
C412   C     0.04235   0.82875   0.11509   0.00000  Uiso   1.00
C413   C     0.30835   0.84643   0.45628   0.00000  Uiso   1.00
C414   C     0.02725   0.80605   0.04583   0.00000  Uiso   1.00
C415   C     0.32435   0.84299   0.40990   0.00000  Uiso   1.00
C416   C     0.01027   0.81435   0.09140   0.00000  Uiso   1.00
C417   C     0.24229   0.82718   0.40738   0.00000  Uiso   1.00
C418   C     0.09105   0.83581   0.09266   0.00000  Uiso   1.00
C419   C     0.22536   0.82943   0.45428   0.00000  Uiso   1.00
C420   C     0.10961   0.82609   0.04710   0.00000  Uiso   1.00
C421   C     0.25921   0.84016   0.47855   0.00000  Uiso   1.00
C422   C     0.07650   0.81174   0.02356   0.00000  Uiso   1.00
C423   C     0.17563   0.82266   0.47747   0.00000  Uiso   1.00
C424   C     0.15991   0.83006   0.02444   0.00000  Uiso   1.00
C425   C     0.19515   0.84024   0.04734   0.00000  Uiso   1.00
C426   C     0.14129   0.80817   0.45543   0.00000  Uiso   1.00
C427   C     0.24374   0.84495   0.02476   0.00000  Uiso   1.00
C428   C     0.09284   0.80270   0.47818   0.00000  Uiso   1.00
H429   H     0.26935   0.85296   0.04367   0.00000  Uiso   1.00
H430   H     0.06792   0.79127   0.45999   0.00000  Uiso   1.00
H431   H     0.11367   0.84897   0.11181   0.00000  Uiso   1.00
H432   H     0.21790   0.82137   0.38701   0.00000  Uiso   1.00
H433   H     0.30581   0.80849   0.10827   0.00000  Uiso   1.00
H434   H     0.02897   0.84849   0.39334   0.00000  Uiso   1.00
H435   H     0.00098   0.85470   0.47469   0.00000  Uiso   1.00
H436   H     0.00205   0.79433   0.02814   0.00000  Uiso   1.00
H437   H     0.18680   0.84392   0.08310   0.00000  Uiso   1.00
H438   H     0.15072   0.79949   0.42066   0.00000  Uiso   1.00
C439   C     0.30651   0.68892   0.22629   0.00000  Uiso   1.00
C440   C     0.02683   0.97775   0.27371   0.00000  Uiso   1.00
H441   H     0.28707   0.70640   0.20674   0.00000  Uiso   1.00
H442   H     0.04627   0.96027   0.29326   0.00000  Uiso   1.00
C443   C     0.30775   0.97947   0.22308   0.00000  Uiso   1.00
C444   C     0.02558   0.68720   0.27693   0.00000  Uiso   1.00
C445   C     0.00102   0.95720   0.24764   0.00000  Uiso   1.00
C446   C     0.33231   0.70947   0.25236   0.00000  Uiso   1.00
C447   C     0.18261   0.81009   0.28024   0.00000  Uiso   1.00
C448   C     0.15073   0.85657   0.21976   0.00000  Uiso   1.00
H449   H     0.19417   0.79137   0.30442   0.00000  Uiso   1.00
H450   H     0.13917   0.87528   0.19557   0.00000  Uiso   1.00
C451   C     0.13302   0.81014   0.28026   0.00000  Uiso   1.00
C452   C     0.20031   0.85652   0.21974   0.00000  Uiso   1.00
H453   H     0.10728   0.79156   0.30450   0.00000  Uiso   1.00
H454   H     0.22605   0.87510   0.19550   0.00000  Uiso   1.00
N455   N     0.11736   0.83334   0.24999   0.00000  Uiso   1.00
N456   N     0.21597   0.83332   0.25001   0.00000  Uiso   1.00
N457   N     0.28408   0.95948   0.19320   0.00000  Uiso   1.00
O458   O     0.30630   0.93055   0.16641   0.00000  Uiso   1.00
O459   O     0.24368   0.97426   0.18785   0.00000  Uiso   1.00
N460   N     0.04923   0.70720   0.30682   0.00000  Uiso   1.00
O461   O     0.02699   0.73612   0.33361   0.00000  Uiso   1.00
O462   O     0.08963   0.69243   0.31217   0.00000  Uiso   1.00
O463   O     0.37291   0.77322   0.25000   0.00000  Uiso   1.00
O464   O     0.62709   0.89345   0.25000   0.00000  Uiso   1.00
O465   O     0.62706   0.77321   0.25001   0.00000  Uiso   1.00
O466   O     0.37294   0.89346   0.25000   0.00000  Uiso   1.00
C467   C     0.66623   0.75410   0.25128   0.00000  Uiso   1.00
C468   C     0.33377   0.91256   0.24872   0.00000  Uiso   1.00
O469   O     0.35186   0.83334   0.31492   0.00000  Uiso   1.00
O470   O     0.64814   0.83332   0.18509   0.00000  Uiso   1.00
O471   O     0.60600   0.83333   0.31492   0.00000  Uiso   1.00
O472   O     0.39400   0.83333   0.18508   0.00000  Uiso   1.00
C473   C     0.63943   0.83340   0.33607   0.00000  Uiso   1.00
C474   C     0.36056   0.83284   0.16396   0.00000  Uiso   1.00
Cu475  Cu    0.38022   0.83334   0.25000   0.00000  Uiso   1.00
Cu476  Cu    0.61978   0.83333   0.25000   0.00000  Uiso   1.00
C477   C     0.62449   0.83407   0.38520   0.00000  Uiso   1.00
C478   C     0.37568   0.82875   0.11509   0.00000  Uiso   1.00
C479   C     0.64169   0.84643   0.45628   0.00000  Uiso   1.00
C480   C     0.36059   0.80605   0.04583   0.00000  Uiso   1.00
C481   C     0.65768   0.84299   0.40990   0.00000  Uiso   1.00
C482   C     0.34360   0.81435   0.09140   0.00000  Uiso   1.00
C483   C     0.57563   0.82718   0.40738   0.00000  Uiso   1.00
C484   C     0.42439   0.83581   0.09266   0.00000  Uiso   1.00
C485   C     0.55869   0.82943   0.45428   0.00000  Uiso   1.00
C486   C     0.44294   0.82609   0.04710   0.00000  Uiso   1.00
C487   C     0.59255   0.84016   0.47855   0.00000  Uiso   1.00
C488   C     0.40984   0.81174   0.02356   0.00000  Uiso   1.00
C489   C     0.50897   0.82266   0.47747   0.00000  Uiso   1.00
C490   C     0.49324   0.83006   0.02444   0.00000  Uiso   1.00
C491   C     0.52848   0.84024   0.04734   0.00000  Uiso   1.00
C492   C     0.47463   0.80817   0.45543   0.00000  Uiso   1.00
C493   C     0.57708   0.84495   0.02476   0.00000  Uiso   1.00
C494   C     0.42618   0.80270   0.47818   0.00000  Uiso   1.00
H495   H     0.60268   0.85296   0.04367   0.00000  Uiso   1.00
H496   H     0.40125   0.79127   0.45999   0.00000  Uiso   1.00
H497   H     0.44700   0.84897   0.11181   0.00000  Uiso   1.00
H498   H     0.55123   0.82137   0.38701   0.00000  Uiso   1.00
H499   H     0.63914   0.80849   0.10827   0.00000  Uiso   1.00
H500   H     0.36231   0.84849   0.39334   0.00000  Uiso   1.00
H501   H     0.33431   0.85470   0.47469   0.00000  Uiso   1.00
H502   H     0.33538   0.79433   0.02814   0.00000  Uiso   1.00
H503   H     0.52014   0.84392   0.08310   0.00000  Uiso   1.00
H504   H     0.48405   0.79949   0.42066   0.00000  Uiso   1.00
C505   C     0.63984   0.68892   0.22629   0.00000  Uiso   1.00
C506   C     0.36016   0.97775   0.27371   0.00000  Uiso   1.00
H507   H     0.62041   0.70640   0.20674   0.00000  Uiso   1.00
H508   H     0.37960   0.96027   0.29326   0.00000  Uiso   1.00
C509   C     0.64108   0.97947   0.22308   0.00000  Uiso   1.00
C510   C     0.35891   0.68720   0.27693   0.00000  Uiso   1.00
C511   C     0.33435   0.95720   0.24764   0.00000  Uiso   1.00
C512   C     0.66564   0.70947   0.25236   0.00000  Uiso   1.00
C513   C     0.51594   0.81009   0.28024   0.00000  Uiso   1.00
C514   C     0.48406   0.85657   0.21976   0.00000  Uiso   1.00
H515   H     0.52750   0.79137   0.30442   0.00000  Uiso   1.00
H516   H     0.47250   0.87528   0.19557   0.00000  Uiso   1.00
C517   C     0.46635   0.81014   0.28026   0.00000  Uiso   1.00
C518   C     0.53365   0.85652   0.21974   0.00000  Uiso   1.00
H519   H     0.44062   0.79156   0.30450   0.00000  Uiso   1.00
H520   H     0.55938   0.87510   0.19550   0.00000  Uiso   1.00
N521   N     0.45069   0.83334   0.24999   0.00000  Uiso   1.00
N522   N     0.54931   0.83332   0.25001   0.00000  Uiso   1.00
N523   N     0.61742   0.95948   0.19320   0.00000  Uiso   1.00
O524   O     0.63963   0.93055   0.16641   0.00000  Uiso   1.00
O525   O     0.57701   0.97426   0.18785   0.00000  Uiso   1.00
N526   N     0.38256   0.70720   0.30682   0.00000  Uiso   1.00
O527   O     0.36033   0.73612   0.33361   0.00000  Uiso   1.00
O528   O     0.42297   0.69243   0.31217   0.00000  Uiso   1.00
O529   O     0.70625   0.77322   0.25000   0.00000  Uiso   1.00
O530   O     0.96042   0.89345   0.25000   0.00000  Uiso   1.00
O531   O     0.96039   0.77321   0.25001   0.00000  Uiso   1.00
O532   O     0.70628   0.89346   0.25000   0.00000  Uiso   1.00
C533   C     0.99956   0.75410   0.25128   0.00000  Uiso   1.00
C534   C     0.66710   0.91256   0.24872   0.00000  Uiso   1.00
O535   O     0.68519   0.83334   0.31492   0.00000  Uiso   1.00
O536   O     0.98148   0.83332   0.18509   0.00000  Uiso   1.00
O537   O     0.93933   0.83333   0.31492   0.00000  Uiso   1.00
O538   O     0.72733   0.83333   0.18508   0.00000  Uiso   1.00
C539   C     0.97277   0.83340   0.33607   0.00000  Uiso   1.00
C540   C     0.69390   0.83284   0.16396   0.00000  Uiso   1.00
Cu541  Cu    0.71355   0.83334   0.25000   0.00000  Uiso   1.00
Cu542  Cu    0.95311   0.83333   0.25000   0.00000  Uiso   1.00
C543   C     0.95782   0.83407   0.38520   0.00000  Uiso   1.00
C544   C     0.70902   0.82875   0.11509   0.00000  Uiso   1.00
C545   C     0.97502   0.84643   0.45628   0.00000  Uiso   1.00
C546   C     0.69392   0.80605   0.04583   0.00000  Uiso   1.00
C547   C     0.99101   0.84299   0.40990   0.00000  Uiso   1.00
C548   C     0.67694   0.81435   0.09140   0.00000  Uiso   1.00
C549   C     0.90896   0.82718   0.40738   0.00000  Uiso   1.00
C550   C     0.75772   0.83581   0.09266   0.00000  Uiso   1.00
C551   C     0.89202   0.82943   0.45428   0.00000  Uiso   1.00
C552   C     0.77628   0.82609   0.04710   0.00000  Uiso   1.00
C553   C     0.92588   0.84016   0.47855   0.00000  Uiso   1.00
C554   C     0.74317   0.81174   0.02356   0.00000  Uiso   1.00
C555   C     0.84230   0.82266   0.47747   0.00000  Uiso   1.00
C556   C     0.82658   0.83006   0.02444   0.00000  Uiso   1.00
C557   C     0.86181   0.84024   0.04734   0.00000  Uiso   1.00
C558   C     0.80796   0.80817   0.45543   0.00000  Uiso   1.00
C559   C     0.91041   0.84495   0.02476   0.00000  Uiso   1.00
C560   C     0.75951   0.80270   0.47818   0.00000  Uiso   1.00
H561   H     0.93602   0.85296   0.04367   0.00000  Uiso   1.00
H562   H     0.73459   0.79127   0.45999   0.00000  Uiso   1.00
H563   H     0.78033   0.84897   0.11181   0.00000  Uiso   1.00
H564   H     0.88457   0.82137   0.38701   0.00000  Uiso   1.00
H565   H     0.97247   0.80849   0.10827   0.00000  Uiso   1.00
H566   H     0.69564   0.84849   0.39334   0.00000  Uiso   1.00
H567   H     0.66765   0.85470   0.47469   0.00000  Uiso   1.00
H568   H     0.66872   0.79433   0.02814   0.00000  Uiso   1.00
H569   H     0.85347   0.84392   0.08310   0.00000  Uiso   1.00
H570   H     0.81739   0.79949   0.42066   0.00000  Uiso   1.00
C571   C     0.97317   0.68892   0.22629   0.00000  Uiso   1.00
C572   C     0.69350   0.97775   0.27371   0.00000  Uiso   1.00
H573   H     0.95374   0.70640   0.20674   0.00000  Uiso   1.00
H574   H     0.71293   0.96027   0.29326   0.00000  Uiso   1.00
C575   C     0.97442   0.97947   0.22308   0.00000  Uiso   1.00
C576   C     0.69225   0.68720   0.27693   0.00000  Uiso   1.00
C577   C     0.66769   0.95720   0.24764   0.00000  Uiso   1.00
C578   C     0.99898   0.70947   0.25236   0.00000  Uiso   1.00
C579   C     0.84928   0.81009   0.28024   0.00000  Uiso   1.00
C580   C     0.81739   0.85657   0.21976   0.00000  Uiso   1.00
H581   H     0.86083   0.79137   0.30442   0.00000  Uiso   1.00
H582   H     0.80584   0.87528   0.19557   0.00000  Uiso   1.00
C583   C     0.79969   0.81014   0.28026   0.00000  Uiso   1.00
C584   C     0.86698   0.85652   0.21974   0.00000  Uiso   1.00
H585   H     0.77395   0.79156   0.30450   0.00000  Uiso   1.00
H586   H     0.89272   0.87510   0.19550   0.00000  Uiso   1.00
N587   N     0.78403   0.83334   0.24999   0.00000  Uiso   1.00
N588   N     0.88264   0.83332   0.25001   0.00000  Uiso   1.00
N589   N     0.95075   0.95948   0.19320   0.00000  Uiso   1.00
O590   O     0.97297   0.93055   0.16641   0.00000  Uiso   1.00
O591   O     0.91034   0.97426   0.18785   0.00000  Uiso   1.00
N592   N     0.71589   0.70720   0.30682   0.00000  Uiso   1.00
O593   O     0.69366   0.73612   0.33361   0.00000  Uiso   1.00
O594   O     0.75630   0.69243   0.31217   0.00000  Uiso   1.00
O595   O     0.03958   0.10655   0.75000   0.00000  Uiso   1.00
O596   O     0.29375   0.22678   0.75000   0.00000  Uiso   1.00
O597   O     0.29372   0.10654   0.75001   0.00000  Uiso   1.00
O598   O     0.03961   0.22679   0.75000   0.00000  Uiso   1.00
C599   C     0.33290   0.08744   0.75128   0.00000  Uiso   1.00
C600   C     0.00043   0.24590   0.74872   0.00000  Uiso   1.00
O601   O     0.01852   0.16668   0.81492   0.00000  Uiso   1.00
O602   O     0.31481   0.16666   0.68509   0.00000  Uiso   1.00
O603   O     0.27267   0.16667   0.81492   0.00000  Uiso   1.00
O604   O     0.06067   0.16667   0.68508   0.00000  Uiso   1.00
C605   C     0.30610   0.16673   0.83607   0.00000  Uiso   1.00
C606   C     0.02723   0.16617   0.66396   0.00000  Uiso   1.00
Cu607  Cu    0.04689   0.16667   0.75000   0.00000  Uiso   1.00
Cu608  Cu    0.28645   0.16666   0.75000   0.00000  Uiso   1.00
C609   C     0.29116   0.16740   0.88520   0.00000  Uiso   1.00
C610   C     0.04235   0.16209   0.61509   0.00000  Uiso   1.00
C611   C     0.30835   0.17976   0.95628   0.00000  Uiso   1.00
C612   C     0.02725   0.13938   0.54583   0.00000  Uiso   1.00
C613   C     0.32435   0.17632   0.90990   0.00000  Uiso   1.00
C614   C     0.01027   0.14769   0.59140   0.00000  Uiso   1.00
C615   C     0.24229   0.16052   0.90738   0.00000  Uiso   1.00
C616   C     0.09105   0.16914   0.59266   0.00000  Uiso   1.00
C617   C     0.22536   0.16276   0.95428   0.00000  Uiso   1.00
C618   C     0.10961   0.15942   0.54710   0.00000  Uiso   1.00
C619   C     0.25921   0.17349   0.97855   0.00000  Uiso   1.00
C620   C     0.07650   0.14507   0.52356   0.00000  Uiso   1.00
C621   C     0.17563   0.15599   0.97747   0.00000  Uiso   1.00
C622   C     0.15991   0.16340   0.52444   0.00000  Uiso   1.00
C623   C     0.19515   0.17357   0.54734   0.00000  Uiso   1.00
C624   C     0.14129   0.14150   0.95543   0.00000  Uiso   1.00
C625   C     0.24374   0.17829   0.52476   0.00000  Uiso   1.00
C626   C     0.09284   0.13603   0.97818   0.00000  Uiso   1.00
H627   H     0.26935   0.18629   0.54367   0.00000  Uiso   1.00
H628   H     0.06792   0.12461   0.95999   0.00000  Uiso   1.00
H629   H     0.11367   0.18230   0.61181   0.00000  Uiso   1.00
H630   H     0.21790   0.15471   0.88701   0.00000  Uiso   1.00
H631   H     0.30581   0.14182   0.60827   0.00000  Uiso   1.00
H632   H     0.02897   0.18182   0.89334   0.00000  Uiso   1.00
H633   H     0.00098   0.18803   0.97469   0.00000  Uiso   1.00
H634   H     0.00205   0.12766   0.52814   0.00000  Uiso   1.00
H635   H     0.18680   0.17726   0.58310   0.00000  Uiso   1.00
H636   H     0.15072   0.13283   0.92066   0.00000  Uiso   1.00
C637   C     0.30651   0.02226   0.72629   0.00000  Uiso   1.00
C638   C     0.02683   0.31108   0.77371   0.00000  Uiso   1.00
H639   H     0.28707   0.03973   0.70674   0.00000  Uiso   1.00
H640   H     0.04627   0.29361   0.79326   0.00000  Uiso   1.00
C641   C     0.30775   0.31280   0.72308   0.00000  Uiso   1.00
C642   C     0.02558   0.02054   0.77693   0.00000  Uiso   1.00
C643   C     0.00102   0.29053   0.74764   0.00000  Uiso   1.00
C644   C     0.33231   0.04280   0.75236   0.00000  Uiso   1.00
C645   C     0.18261   0.14343   0.78024   0.00000  Uiso   1.00
C646   C     0.15073   0.18990   0.71976   0.00000  Uiso   1.00
H647   H     0.19417   0.12471   0.80442   0.00000  Uiso   1.00
H648   H     0.13917   0.20862   0.69557   0.00000  Uiso   1.00
C649   C     0.13302   0.14348   0.78026   0.00000  Uiso   1.00
C650   C     0.20031   0.18985   0.71974   0.00000  Uiso   1.00
H651   H     0.10728   0.12489   0.80450   0.00000  Uiso   1.00
H652   H     0.22605   0.20843   0.69550   0.00000  Uiso   1.00
N653   N     0.11736   0.16668   0.74999   0.00000  Uiso   1.00
N654   N     0.21597   0.16666   0.75001   0.00000  Uiso   1.00
N655   N     0.28408   0.29281   0.69320   0.00000  Uiso   1.00
O656   O     0.30630   0.26388   0.66641   0.00000  Uiso   1.00
O657   O     0.24368   0.30759   0.68785   0.00000  Uiso   1.00
N658   N     0.04923   0.04053   0.80682   0.00000  Uiso   1.00
O659   O     0.02699   0.06945   0.83361   0.00000  Uiso   1.00
O660   O     0.08963   0.02576   0.81217   0.00000  Uiso   1.00
O661   O     0.37291   0.10655   0.75000   0.00000  Uiso   1.00
O662   O     0.62709   0.22678   0.75000   0.00000  Uiso   1.00
O663   O     0.62706   0.10654   0.75001   0.00000  Uiso   1.00
O664   O     0.37294   0.22679   0.75000   0.00000  Uiso   1.00
C665   C     0.66623   0.08744   0.75128   0.00000  Uiso   1.00
C666   C     0.33377   0.24590   0.74872   0.00000  Uiso   1.00
O667   O     0.35186   0.16668   0.81492   0.00000  Uiso   1.00
O668   O     0.64814   0.16666   0.68509   0.00000  Uiso   1.00
O669   O     0.60600   0.16667   0.81492   0.00000  Uiso   1.00
O670   O     0.39400   0.16667   0.68508   0.00000  Uiso   1.00
C671   C     0.63943   0.16673   0.83607   0.00000  Uiso   1.00
C672   C     0.36056   0.16617   0.66396   0.00000  Uiso   1.00
Cu673  Cu    0.38022   0.16667   0.75000   0.00000  Uiso   1.00
Cu674  Cu    0.61978   0.16666   0.75000   0.00000  Uiso   1.00
C675   C     0.62449   0.16740   0.88520   0.00000  Uiso   1.00
C676   C     0.37568   0.16209   0.61509   0.00000  Uiso   1.00
C677   C     0.64169   0.17976   0.95628   0.00000  Uiso   1.00
C678   C     0.36059   0.13938   0.54583   0.00000  Uiso   1.00
C679   C     0.65768   0.17632   0.90990   0.00000  Uiso   1.00
C680   C     0.34360   0.14769   0.59140   0.00000  Uiso   1.00
C681   C     0.57563   0.16052   0.90738   0.00000  Uiso   1.00
C682   C     0.42439   0.16914   0.59266   0.00000  Uiso   1.00
C683   C     0.55869   0.16276   0.95428   0.00000  Uiso   1.00
C684   C     0.44294   0.15942   0.54710   0.00000  Uiso   1.00
C685   C     0.59255   0.17349   0.97855   0.00000  Uiso   1.00
C686   C     0.40984   0.14507   0.52356   0.00000  Uiso   1.00
C687   C     0.50897   0.15599   0.97747   0.00000  Uiso   1.00
C688   C     0.49324   0.16340   0.52444   0.00000  Uiso   1.00
C689   C     0.52848   0.17357   0.54734   0.00000  Uiso   1.00
C690   C     0.47463   0.14150   0.95543   0.00000  Uiso   1.00
C691   C     0.57708   0.17829   0.52476   0.00000  Uiso   1.00
C692   C     0.42618   0.13603   0.97818   0.00000  Uiso   1.00
H693   H     0.60268   0.18629   0.54367   0.00000  Uiso   1.00
H694   H     0.40125   0.12461   0.95999   0.00000  Uiso   1.00
H695   H     0.44700   0.18230   0.61181   0.00000  Uiso   1.00
H696   H     0.55123   0.15471   0.88701   0.00000  Uiso   1.00
H697   H     0.63914   0.14182   0.60827   0.00000  Uiso   1.00
H698   H     0.36231   0.18182   0.89334   0.00000  Uiso   1.00
H699   H     0.33431   0.18803   0.97469   0.00000  Uiso   1.00
H700   H     0.33538   0.12766   0.52814   0.00000  Uiso   1.00
H701   H     0.52014   0.17726   0.58310   0.00000  Uiso   1.00
H702   H     0.48405   0.13283   0.92066   0.00000  Uiso   1.00
C703   C     0.63984   0.02226   0.72629   0.00000  Uiso   1.00
C704   C     0.36016   0.31108   0.77371   0.00000  Uiso   1.00
H705   H     0.62041   0.03973   0.70674   0.00000  Uiso   1.00
H706   H     0.37960   0.29361   0.79326   0.00000  Uiso   1.00
C707   C     0.64108   0.31280   0.72308   0.00000  Uiso   1.00
C708   C     0.35891   0.02054   0.77693   0.00000  Uiso   1.00
C709   C     0.33435   0.29053   0.74764   0.00000  Uiso   1.00
C710   C     0.66564   0.04280   0.75236   0.00000  Uiso   1.00
C711   C     0.51594   0.14343   0.78024   0.00000  Uiso   1.00
C712   C     0.48406   0.18990   0.71976   0.00000  Uiso   1.00
H713   H     0.52750   0.12471   0.80442   0.00000  Uiso   1.00
H714   H     0.47250   0.20862   0.69557   0.00000  Uiso   1.00
C715   C     0.46635   0.14348   0.78026   0.00000  Uiso   1.00
C716   C     0.53365   0.18985   0.71974   0.00000  Uiso   1.00
H717   H     0.44062   0.12489   0.80450   0.00000  Uiso   1.00
H718   H     0.55938   0.20843   0.69550   0.00000  Uiso   1.00
N719   N     0.45069   0.16668   0.74999   0.00000  Uiso   1.00
N720   N     0.54931   0.16666   0.75001   0.00000  Uiso   1.00
N721   N     0.61742   0.29281   0.69320   0.00000  Uiso   1.00
O722   O     0.63963   0.26388   0.66641   0.00000  Uiso   1.00
O723   O     0.57701   0.30759   0.68785   0.00000  Uiso   1.00
N724   N     0.38256   0.04053   0.80682   0.00000  Uiso   1.00
O725   O     0.36033   0.06945   0.83361   0.00000  Uiso   1.00
O726   O     0.42297   0.02576   0.81217   0.00000  Uiso   1.00
O727   O     0.70625   0.10655   0.75000   0.00000  Uiso   1.00
O728   O     0.96042   0.22678   0.75000   0.00000  Uiso   1.00
O729   O     0.96039   0.10654   0.75001   0.00000  Uiso   1.00
O730   O     0.70628   0.22679   0.75000   0.00000  Uiso   1.00
C731   C     0.99956   0.08744   0.75128   0.00000  Uiso   1.00
C732   C     0.66710   0.24590   0.74872   0.00000  Uiso   1.00
O733   O     0.68519   0.16668   0.81492   0.00000  Uiso   1.00
O734   O     0.98148   0.16666   0.68509   0.00000  Uiso   1.00
O735   O     0.93933   0.16667   0.81492   0.00000  Uiso   1.00
O736   O     0.72733   0.16667   0.68508   0.00000  Uiso   1.00
C737   C     0.97277   0.16673   0.83607   0.00000  Uiso   1.00
C738   C     0.69390   0.16617   0.66396   0.00000  Uiso   1.00
Cu739  Cu    0.71355   0.16667   0.75000   0.00000  Uiso   1.00
Cu740  Cu    0.95311   0.16666   0.75000   0.00000  Uiso   1.00
C741   C     0.95782   0.16740   0.88520   0.00000  Uiso   1.00
C742   C     0.70902   0.16209   0.61509   0.00000  Uiso   1.00
C743   C     0.97502   0.17976   0.95628   0.00000  Uiso   1.00
C744   C     0.69392   0.13938   0.54583   0.00000  Uiso   1.00
C745   C     0.99101   0.17632   0.90990   0.00000  Uiso   1.00
C746   C     0.67694   0.14769   0.59140   0.00000  Uiso   1.00
C747   C     0.90896   0.16052   0.90738   0.00000  Uiso   1.00
C748   C     0.75772   0.16914   0.59266   0.00000  Uiso   1.00
C749   C     0.89202   0.16276   0.95428   0.00000  Uiso   1.00
C750   C     0.77628   0.15942   0.54710   0.00000  Uiso   1.00
C751   C     0.92588   0.17349   0.97855   0.00000  Uiso   1.00
C752   C     0.74317   0.14507   0.52356   0.00000  Uiso   1.00
C753   C     0.84230   0.15599   0.97747   0.00000  Uiso   1.00
C754   C     0.82658   0.16340   0.52444   0.00000  Uiso   1.00
C755   C     0.86181   0.17357   0.54734   0.00000  Uiso   1.00
C756   C     0.80796   0.14150   0.95543   0.00000  Uiso   1.00
C757   C     0.91041   0.17829   0.52476   0.00000  Uiso   1.00
C758   C     0.75951   0.13603   0.97818   0.00000  Uiso   1.00
H759   H     0.93602   0.18629   0.54367   0.00000  Uiso   1.00
H760   H     0.73459   0.12461   0.95999   0.00000  Uiso   1.00
H761   H     0.78033   0.18230   0.61181   0.00000  Uiso   1.00
H762   H     0.88457   0.15471   0.88701   0.00000  Uiso   1.00
H763   H     0.97247   0.14182   0.60827   0.00000  Uiso   1.00
H764   H     0.69564   0.18182   0.89334   0.00000  Uiso   1.00
H765   H     0.66765   0.18803   0.97469   0.00000  Uiso   1.00
H766   H     0.66872   0.12766   0.52814   0.00000  Uiso   1.00
H767   H     0.85347   0.17726   0.58310   0.00000  Uiso   1.00
H768   H     0.81739   0.13283   0.92066   0.00000  Uiso   1.00
C769   C     0.97317   0.02226   0.72629   0.00000  Uiso   1.00
C770   C     0.69350   0.31108   0.77371   0.00000  Uiso   1.00
H771   H     0.95374   0.03973   0.70674   0.00000  Uiso   1.00
H772   H     0.71293   0.29361   0.79326   0.00000  Uiso   1.00
C773   C     0.97442   0.31280   0.72308   0.00000  Uiso   1.00
C774   C     0.69225   0.02054   0.77693   0.00000  Uiso   1.00
C775   C     0.66769   0.29053   0.74764   0.00000  Uiso   1.00
C776   C     0.99898   0.04280   0.75236   0.00000  Uiso   1.00
C777   C     0.84928   0.14343   0.78024   0.00000  Uiso   1.00
C778   C     0.81739   0.18990   0.71976   0.00000  Uiso   1.00
H779   H     0.86083   0.12471   0.80442   0.00000  Uiso   1.00
H780   H     0.80584   0.20862   0.69557   0.00000  Uiso   1.00
C781   C     0.79969   0.14348   0.78026   0.00000  Uiso   1.00
C782   C     0.86698   0.18985   0.71974   0.00000  Uiso   1.00
H783   H     0.77395   0.12489   0.80450   0.00000  Uiso   1.00
H784   H     0.89272   0.20843   0.69550   0.00000  Uiso   1.00
N785   N     0.78403   0.16668   0.74999   0.00000  Uiso   1.00
N786   N     0.88264   0.16666   0.75001   0.00000  Uiso   1.00
N787   N     0.95075   0.29281   0.69320   0.00000  Uiso   1.00
O788   O     0.97297   0.26388   0.66641   0.00000  Uiso   1.00
O789   O     0.91034   0.30759   0.68785   0.00000  Uiso   1.00
N790   N     0.71589   0.04053   0.80682   0.00000  Uiso   1.00
O791   O     0.69366   0.06945   0.83361   0.00000  Uiso   1.00
O792   O     0.75630   0.02576   0.81217   0.00000  Uiso   1.00
O793   O     0.03958   0.43989   0.75000   0.00000  Uiso   1.00
O794   O     0.29375   0.56011   0.75000   0.00000  Uiso   1.00
O795   O     0.29372   0.43988   0.75001   0.00000  Uiso   1.00
O796   O     0.03961   0.56012   0.75000   0.00000  Uiso   1.00
C797   C     0.33290   0.42077   0.75128   0.00000  Uiso   1.00
C798   C     0.00043   0.57923   0.74872   0.00000  Uiso   1.00
O799   O     0.01852   0.50001   0.81492   0.00000  Uiso   1.00
O800   O     0.31481   0.49999   0.68509   0.00000  Uiso   1.00
O801   O     0.27267   0.50000   0.81492   0.00000  Uiso   1.00
O802   O     0.06067   0.50000   0.68508   0.00000  Uiso   1.00
C803   C     0.30610   0.50007   0.83607   0.00000  Uiso   1.00
C804   C     0.02723   0.49950   0.66396   0.00000  Uiso   1.00
Cu805  Cu    0.04689   0.50001   0.75000   0.00000  Uiso   1.00
Cu806  Cu    0.28645   0.49999   0.75000   0.00000  Uiso   1.00
C807   C     0.29116   0.50074   0.88520   0.00000  Uiso   1.00
C808   C     0.04235   0.49542   0.61509   0.00000  Uiso   1.00
C809   C     0.30835   0.51310   0.95628   0.00000  Uiso   1.00
C810   C     0.02725   0.47272   0.54583   0.00000  Uiso   1.00
C811   C     0.32435   0.50966   0.90990   0.00000  Uiso   1.00
C812   C     0.01027   0.48102   0.59140   0.00000  Uiso   1.00
C813   C     0.24229   0.49385   0.90738   0.00000  Uiso   1.00
C814   C     0.09105   0.50248   0.59266   0.00000  Uiso   1.00
C815   C     0.22536   0.49609   0.95428   0.00000  Uiso   1.00
C816   C     0.10961   0.49276   0.54710   0.00000  Uiso   1.00
C817   C     0.25921   0.50683   0.97855   0.00000  Uiso   1.00
C818   C     0.07650   0.47841   0.52356   0.00000  Uiso   1.00
C819   C     0.17563   0.48933   0.97747   0.00000  Uiso   1.00
C820   C     0.15991   0.49673   0.52444   0.00000  Uiso   1.00
C821   C     0.19515   0.50691   0.54734   0.00000  Uiso   1.00
C822   C     0.14129   0.47484   0.95543   0.00000  Uiso   1.00
C823   C     0.24374   0.51162   0.52476   0.00000  Uiso   1.00
C824   C     0.09284   0.46937   0.97818   0.00000  Uiso   1.00
H825   H     0.26935   0.51962   0.54367   0.00000  Uiso   1.00
H826   H     0.06792   0.45794   0.95999   0.00000  Uiso   1.00
H827   H     0.11367   0.51563   0.61181   0.00000  Uiso   1.00
H828   H     0.21790   0.48804   0.88701   0.00000  Uiso   1.00
H829   H     0.30581   0.47515   0.60827   0.00000  Uiso   1.00
H830   H     0.02897   0.51516   0.89334   0.00000  Uiso   1.00
H831   H     0.00098   0.52137   0.97469   0.00000  Uiso   1.00
H832   H     0.00205   0.46099   0.52814   0.00000  Uiso   1.00
H833   H     0.18680   0.51059   0.58310   0.00000  Uiso   1.00
H834   H     0.15072   0.46616   0.92066   0.00000  Uiso   1.00
C835   C     0.30651   0.35559   0.72629   0.00000  Uiso   1.00
C836   C     0.02683   0.64442   0.77371   0.00000  Uiso   1.00
H837   H     0.28707   0.37307   0.70674   0.00000  Uiso   1.00
H838   H     0.04627   0.62694   0.79326   0.00000  Uiso   1.00
C839   C     0.30775   0.64613   0.72308   0.00000  Uiso   1.00
C840   C     0.02558   0.35387   0.77693   0.00000  Uiso   1.00
C841   C     0.00102   0.62387   0.74764   0.00000  Uiso   1.00
C842   C     0.33231   0.37614   0.75236   0.00000  Uiso   1.00
C843   C     0.18261   0.47676   0.78024   0.00000  Uiso   1.00
C844   C     0.15073   0.52323   0.71976   0.00000  Uiso   1.00
H845   H     0.19417   0.45804   0.80442   0.00000  Uiso   1.00
H846   H     0.13917   0.54195   0.69557   0.00000  Uiso   1.00
C847   C     0.13302   0.47681   0.78026   0.00000  Uiso   1.00
C848   C     0.20031   0.52318   0.71974   0.00000  Uiso   1.00
H849   H     0.10728   0.45823   0.80450   0.00000  Uiso   1.00
H850   H     0.22605   0.54177   0.69550   0.00000  Uiso   1.00
N851   N     0.11736   0.50001   0.74999   0.00000  Uiso   1.00
N852   N     0.21597   0.49999   0.75001   0.00000  Uiso   1.00
N853   N     0.28408   0.62614   0.69320   0.00000  Uiso   1.00
O854   O     0.30630   0.59721   0.66641   0.00000  Uiso   1.00
O855   O     0.24368   0.64092   0.68785   0.00000  Uiso   1.00
N856   N     0.04923   0.37386   0.80682   0.00000  Uiso   1.00
O857   O     0.02699   0.40279   0.83361   0.00000  Uiso   1.00
O858   O     0.08963   0.35909   0.81217   0.00000  Uiso   1.00
O859   O     0.37291   0.43989   0.75000   0.00000  Uiso   1.00
O860   O     0.62709   0.56011   0.75000   0.00000  Uiso   1.00
O861   O     0.62706   0.43988   0.75001   0.00000  Uiso   1.00
O862   O     0.37294   0.56012   0.75000   0.00000  Uiso   1.00
C863   C     0.66623   0.42077   0.75128   0.00000  Uiso   1.00
C864   C     0.33377   0.57923   0.74872   0.00000  Uiso   1.00
O865   O     0.35186   0.50001   0.81492   0.00000  Uiso   1.00
O866   O     0.64814   0.49999   0.68509   0.00000  Uiso   1.00
O867   O     0.60600   0.50000   0.81492   0.00000  Uiso   1.00
O868   O     0.39400   0.50000   0.68508   0.00000  Uiso   1.00
C869   C     0.63943   0.50007   0.83607   0.00000  Uiso   1.00
C870   C     0.36056   0.49950   0.66396   0.00000  Uiso   1.00
Cu871  Cu    0.38022   0.50001   0.75000   0.00000  Uiso   1.00
Cu872  Cu    0.61978   0.49999   0.75000   0.00000  Uiso   1.00
C873   C     0.62449   0.50074   0.88520   0.00000  Uiso   1.00
C874   C     0.37568   0.49542   0.61509   0.00000  Uiso   1.00
C875   C     0.64169   0.51310   0.95628   0.00000  Uiso   1.00
C876   C     0.36059   0.47272   0.54583   0.00000  Uiso   1.00
C877   C     0.65768   0.50966   0.90990   0.00000  Uiso   1.00
C878   C     0.34360   0.48102   0.59140   0.00000  Uiso   1.00
C879   C     0.57563   0.49385   0.90738   0.00000  Uiso   1.00
C880   C     0.42439   0.50248   0.59266   0.00000  Uiso   1.00
C881   C     0.55869   0.49609   0.95428   0.00000  Uiso   1.00
C882   C     0.44294   0.49276   0.54710   0.00000  Uiso   1.00
C883   C     0.59255   0.50683   0.97855   0.00000  Uiso   1.00
C884   C     0.40984   0.47841   0.52356   0.00000  Uiso   1.00
C885   C     0.50897   0.48933   0.97747   0.00000  Uiso   1.00
C886   C     0.49324   0.49673   0.52444   0.00000  Uiso   1.00
C887   C     0.52848   0.50691   0.54734   0.00000  Uiso   1.00
C888   C     0.47463   0.47484   0.95543   0.00000  Uiso   1.00
C889   C     0.57708   0.51162   0.52476   0.00000  Uiso   1.00
C890   C     0.42618   0.46937   0.97818   0.00000  Uiso   1.00
H891   H     0.60268   0.51962   0.54367   0.00000  Uiso   1.00
H892   H     0.40125   0.45794   0.95999   0.00000  Uiso   1.00
H893   H     0.44700   0.51563   0.61181   0.00000  Uiso   1.00
H894   H     0.55123   0.48804   0.88701   0.00000  Uiso   1.00
H895   H     0.63914   0.47515   0.60827   0.00000  Uiso   1.00
H896   H     0.36231   0.51516   0.89334   0.00000  Uiso   1.00
H897   H     0.33431   0.52137   0.97469   0.00000  Uiso   1.00
H898   H     0.33538   0.46099   0.52814   0.00000  Uiso   1.00
H899   H     0.52014   0.51059   0.58310   0.00000  Uiso   1.00
H900   H     0.48405   0.46616   0.92066   0.00000  Uiso   1.00
C901   C     0.63984   0.35559   0.72629   0.00000  Uiso   1.00
C902   C     0.36016   0.64442   0.77371   0.00000  Uiso   1.00
H903   H     0.62041   0.37307   0.70674   0.00000  Uiso   1.00
H904   H     0.37960   0.62694   0.79326   0.00000  Uiso   1.00
C905   C     0.64108   0.64613   0.72308   0.00000  Uiso   1.00
C906   C     0.35891   0.35387   0.77693   0.00000  Uiso   1.00
C907   C     0.33435   0.62387   0.74764   0.00000  Uiso   1.00
C908   C     0.66564   0.37614   0.75236   0.00000  Uiso   1.00
C909   C     0.51594   0.47676   0.78024   0.00000  Uiso   1.00
C910   C     0.48406   0.52323   0.71976   0.00000  Uiso   1.00
H911   H     0.52750   0.45804   0.80442   0.00000  Uiso   1.00
H912   H     0.47250   0.54195   0.69557   0.00000  Uiso   1.00
C913   C     0.46635   0.47681   0.78026   0.00000  Uiso   1.00
C914   C     0.53365   0.52318   0.71974   0.00000  Uiso   1.00
H915   H     0.44062   0.45823   0.80450   0.00000  Uiso   1.00
H916   H     0.55938   0.54177   0.69550   0.00000  Uiso   1.00
N917   N     0.45069   0.50001   0.74999   0.00000  Uiso   1.00
N918   N     0.54931   0.49999   0.75001   0.00000  Uiso   1.00
N919   N     0.61742   0.62614   0.69320   0.00000  Uiso   1.00
O920   O     0.63963   0.59721   0.66641   0.00000  Uiso   1.00
O921   O     0.57701   0.64092   0.68785   0.00000  Uiso   1.00
N922   N     0.38256   0.37386   0.80682   0.00000  Uiso   1.00
O923   O     0.36033   0.40279   0.83361   0.00000  Uiso   1.00
O924   O     0.42297   0.35909   0.81217   0.00000  Uiso   1.00
O925   O     0.70625   0.43989   0.75000   0.00000  Uiso   1.00
O926   O     0.96042   0.56011   0.75000   0.00000  Uiso   1.00
O927   O     0.96039   0.43988   0.75001   0.00000  Uiso   1.00
O928   O     0.70628   0.56012   0.75000   0.00000  Uiso   1.00
C929   C     0.99956   0.42077   0.75128   0.00000  Uiso   1.00
C930   C     0.66710   0.57923   0.74872   0.00000  Uiso   1.00
O931   O     0.68519   0.50001   0.81492   0.00000  Uiso   1.00
O932   O     0.98148   0.49999   0.68509   0.00000  Uiso   1.00
O933   O     0.93933   0.50000   0.81492   0.00000  Uiso   1.00
O934   O     0.72733   0.50000   0.68508   0.00000  Uiso   1.00
C935   C     0.97277   0.50007   0.83607   0.00000  Uiso   1.00
C936   C     0.69390   0.49950   0.66396   0.00000  Uiso   1.00
Cu937  Cu    0.71355   0.50001   0.75000   0.00000  Uiso   1.00
Cu938  Cu    0.95311   0.49999   0.75000   0.00000  Uiso   1.00
C939   C     0.95782   0.50074   0.88520   0.00000  Uiso   1.00
C940   C     0.70902   0.49542   0.61509   0.00000  Uiso   1.00
C941   C     0.97502   0.51310   0.95628   0.00000  Uiso   1.00
C942   C     0.69392   0.47272   0.54583   0.00000  Uiso   1.00
C943   C     0.99101   0.50966   0.90990   0.00000  Uiso   1.00
C944   C     0.67694   0.48102   0.59140   0.00000  Uiso   1.00
C945   C     0.90896   0.49385   0.90738   0.00000  Uiso   1.00
C946   C     0.75772   0.50248   0.59266   0.00000  Uiso   1.00
C947   C     0.89202   0.49609   0.95428   0.00000  Uiso   1.00
C948   C     0.77628   0.49276   0.54710   0.00000  Uiso   1.00
C949   C     0.92588   0.50683   0.97855   0.00000  Uiso   1.00
C950   C     0.74317   0.47841   0.52356   0.00000  Uiso   1.00
C951   C     0.84230   0.48933   0.97747   0.00000  Uiso   1.00
C952   C     0.82658   0.49673   0.52444   0.00000  Uiso   1.00
C953   C     0.86181   0.50691   0.54734   0.00000  Uiso   1.00
C954   C     0.80796   0.47484   0.95543   0.00000  Uiso   1.00
C955   C     0.91041   0.51162   0.52476   0.00000  Uiso   1.00
C956   C     0.75951   0.46937   0.97818   0.00000  Uiso   1.00
H957   H     0.93602   0.51962   0.54367   0.00000  Uiso   1.00
H958   H     0.73459   0.45794   0.95999   0.00000  Uiso   1.00
H959   H     0.78033   0.51563   0.61181   0.00000  Uiso   1.00
H960   H     0.88457   0.48804   0.88701   0.00000  Uiso   1.00
H961   H     0.97247   0.47515   0.60827   0.00000  Uiso   1.00
H962   H     0.69564   0.51516   0.89334   0.00000  Uiso   1.00
H963   H     0.66765   0.52137   0.97469   0.00000  Uiso   1.00
H964   H     0.66872   0.46099   0.52814   0.00000  Uiso   1.00
H965   H     0.85347   0.51059   0.58310   0.00000  Uiso   1.00
H966   H     0.81739   0.46616   0.92066   0.00000  Uiso   1.00
C967   C     0.97317   0.35559   0.72629   0.00000  Uiso   1.00
C968   C     0.69350   0.64442   0.77371   0.00000  Uiso   1.00
H969   H     0.95374   0.37307   0.70674   0.00000  Uiso   1.00
H970   H     0.71293   0.62694   0.79326   0.00000  Uiso   1.00
C971   C     0.97442   0.64613   0.72308   0.00000  Uiso   1.00
C972   C     0.69225   0.35387   0.77693   0.00000  Uiso   1.00
C973   C     0.66769   0.62387   0.74764   0.00000  Uiso   1.00
C974   C     0.99898   0.37614   0.75236   0.00000  Uiso   1.00
C975   C     0.84928   0.47676   0.78024   0.00000  Uiso   1.00
C976   C     0.81739   0.52323   0.71976   0.00000  Uiso   1.00
H977   H     0.86083   0.45804   0.80442   0.00000  Uiso   1.00
H978   H     0.80584   0.54195   0.69557   0.00000  Uiso   1.00
C979   C     0.79969   0.47681   0.78026   0.00000  Uiso   1.00
C980   C     0.86698   0.52318   0.71974   0.00000  Uiso   1.00
H981   H     0.77395   0.45823   0.80450   0.00000  Uiso   1.00
H982   H     0.89272   0.54177   0.69550   0.00000  Uiso   1.00
N983   N     0.78403   0.50001   0.74999   0.00000  Uiso   1.00
N984   N     0.88264   0.49999   0.75001   0.00000  Uiso   1.00
N985   N     0.95075   0.62614   0.69320   0.00000  Uiso   1.00
O986   O     0.97297   0.59721   0.66641   0.00000  Uiso   1.00
O987   O     0.91034   0.64092   0.68785   0.00000  Uiso   1.00
N988   N     0.71589   0.37386   0.80682   0.00000  Uiso   1.00
O989   O     0.69366   0.40279   0.83361   0.00000  Uiso   1.00
O990   O     0.75630   0.35909   0.81217   0.00000  Uiso   1.00
O991   O     0.03958   0.77322   0.75000   0.00000  Uiso   1.00
O992   O     0.29375   0.89345   0.75000   0.00000  Uiso   1.00
O993   O     0.29372   0.77321   0.75001   0.00000  Uiso   1.00
O994   O     0.03961   0.89346   0.75000   0.00000  Uiso   1.00
C995   C     0.33290   0.75410   0.75128   0.00000  Uiso   1.00
C996   C     0.00043   0.91256   0.74872   0.00000  Uiso   1.00
O997   O     0.01852   0.83334   0.81492   0.00000  Uiso   1.00
O998   O     0.31481   0.83332   0.68509   0.00000  Uiso   1.00
O999   O     0.27267   0.83333   0.81492   0.00000  Uiso   1.00
O1000  O     0.06067   0.83333   0.68508   0.00000  Uiso   1.00
C1001  C     0.30610   0.83340   0.83607   0.00000  Uiso   1.00
C1002  C     0.02723   0.83284   0.66396   0.00000  Uiso   1.00
Cu1003 Cu    0.04689   0.83334   0.75000   0.00000  Uiso   1.00
Cu1004 Cu    0.28645   0.83333   0.75000   0.00000  Uiso   1.00
C1005  C     0.29116   0.83407   0.88520   0.00000  Uiso   1.00
C1006  C     0.04235   0.82875   0.61509   0.00000  Uiso   1.00
C1007  C     0.30835   0.84643   0.95628   0.00000  Uiso   1.00
C1008  C     0.02725   0.80605   0.54583   0.00000  Uiso   1.00
C1009  C     0.32435   0.84299   0.90990   0.00000  Uiso   1.00
C1010  C     0.01027   0.81435   0.59140   0.00000  Uiso   1.00
C1011  C     0.24229   0.82718   0.90738   0.00000  Uiso   1.00
C1012  C     0.09105   0.83581   0.59266   0.00000  Uiso   1.00
C1013  C     0.22536   0.82943   0.95428   0.00000  Uiso   1.00
C1014  C     0.10961   0.82609   0.54710   0.00000  Uiso   1.00
C1015  C     0.25921   0.84016   0.97855   0.00000  Uiso   1.00
C1016  C     0.07650   0.81174   0.52356   0.00000  Uiso   1.00
C1017  C     0.17563   0.82266   0.97747   0.00000  Uiso   1.00
C1018  C     0.15991   0.83006   0.52444   0.00000  Uiso   1.00
C1019  C     0.19515   0.84024   0.54734   0.00000  Uiso   1.00
C1020  C     0.14129   0.80817   0.95543   0.00000  Uiso   1.00
C1021  C     0.24374   0.84495   0.52476   0.00000  Uiso   1.00
C1022  C     0.09284   0.80270   0.97818   0.00000  Uiso   1.00
H1023  H     0.26935   0.85296   0.54367   0.00000  Uiso   1.00
H1024  H     0.06792   0.79127   0.95999   0.00000  Uiso   1.00
H1025  H     0.11367   0.84897   0.61181   0.00000  Uiso   1.00
H1026  H     0.21790   0.82137   0.88701   0.00000  Uiso   1.00
H1027  H     0.30581   0.80849   0.60827   0.00000  Uiso   1.00
H1028  H     0.02897   0.84849   0.89334   0.00000  Uiso   1.00
H1029  H     0.00098   0.85470   0.97469   0.00000  Uiso   1.00
H1030  H     0.00205   0.79433   0.52814   0.00000  Uiso   1.00
H1031  H     0.18680   0.84392   0.58310   0.00000  Uiso   1.00
H1032  H     0.15072   0.79949   0.92066   0.00000  Uiso   1.00
C1033  C     0.30651   0.68892   0.72629   0.00000  Uiso   1.00
C1034  C     0.02683   0.97775   0.77371   0.00000  Uiso   1.00
H1035  H     0.28707   0.70640   0.70674   0.00000  Uiso   1.00
H1036  H     0.04627   0.96027   0.79326   0.00000  Uiso   1.00
C1037  C     0.30775   0.97947   0.72308   0.00000  Uiso   1.00
C1038  C     0.02558   0.68720   0.77693   0.00000  Uiso   1.00
C1039  C     0.00102   0.95720   0.74764   0.00000  Uiso   1.00
C1040  C     0.33231   0.70947   0.75236   0.00000  Uiso   1.00
C1041  C     0.18261   0.81009   0.78024   0.00000  Uiso   1.00
C1042  C     0.15073   0.85657   0.71976   0.00000  Uiso   1.00
H1043  H     0.19417   0.79137   0.80442   0.00000  Uiso   1.00
H1044  H     0.13917   0.87528   0.69557   0.00000  Uiso   1.00
C1045  C     0.13302   0.81014   0.78026   0.00000  Uiso   1.00
C1046  C     0.20031   0.85652   0.71974   0.00000  Uiso   1.00
H1047  H     0.10728   0.79156   0.80450   0.00000  Uiso   1.00
H1048  H     0.22605   0.87510   0.69550   0.00000  Uiso   1.00
N1049  N     0.11736   0.83334   0.74999   0.00000  Uiso   1.00
N1050  N     0.21597   0.83332   0.75001   0.00000  Uiso   1.00
N1051  N     0.28408   0.95948   0.69320   0.00000  Uiso   1.00
O1052  O     0.30630   0.93055   0.66641   0.00000  Uiso   1.00
O1053  O     0.24368   0.97426   0.68785   0.00000  Uiso   1.00
N1054  N     0.04923   0.70720   0.80682   0.00000  Uiso   1.00
O1055  O     0.02699   0.73612   0.83361   0.00000  Uiso   1.00
O1056  O     0.08963   0.69243   0.81217   0.00000  Uiso   1.00
O1057  O     0.37291   0.77322   0.75000   0.00000  Uiso   1.00
O1058  O     0.62709   0.89345   0.75000   0.00000  Uiso   1.00
O1059  O     0.62706   0.77321   0.75001   0.00000  Uiso   1.00
O1060  O     0.37294   0.89346   0.75000   0.00000  Uiso   1.00
C1061  C     0.66623   0.75410   0.75128   0.00000  Uiso   1.00
C1062  C     0.33377   0.91256   0.74872   0.00000  Uiso   1.00
O1063  O     0.35186   0.83334   0.81492   0.00000  Uiso   1.00
O1064  O     0.64814   0.83332   0.68509   0.00000  Uiso   1.00
O1065  O     0.60600   0.83333   0.81492   0.00000  Uiso   1.00
O1066  O     0.39400   0.83333   0.68508   0.00000  Uiso   1.00
C1067  C     0.63943   0.83340   0.83607   0.00000  Uiso   1.00
C1068  C     0.36056   0.83284   0.66396   0.00000  Uiso   1.00
Cu1069 Cu    0.38022   0.83334   0.75000   0.00000  Uiso   1.00
Cu1070 Cu    0.61978   0.83333   0.75000   0.00000  Uiso   1.00
C1071  C     0.62449   0.83407   0.88520   0.00000  Uiso   1.00
C1072  C     0.37568   0.82875   0.61509   0.00000  Uiso   1.00
C1073  C     0.64169   0.84643   0.95628   0.00000  Uiso   1.00
C1074  C     0.36059   0.80605   0.54583   0.00000  Uiso   1.00
C1075  C     0.65768   0.84299   0.90990   0.00000  Uiso   1.00
C1076  C     0.34360   0.81435   0.59140   0.00000  Uiso   1.00
C1077  C     0.57563   0.82718   0.90738   0.00000  Uiso   1.00
C1078  C     0.42439   0.83581   0.59266   0.00000  Uiso   1.00
C1079  C     0.55869   0.82943   0.95428   0.00000  Uiso   1.00
C1080  C     0.44294   0.82609   0.54710   0.00000  Uiso   1.00
C1081  C     0.59255   0.84016   0.97855   0.00000  Uiso   1.00
C1082  C     0.40984   0.81174   0.52356   0.00000  Uiso   1.00
C1083  C     0.50897   0.82266   0.97747   0.00000  Uiso   1.00
C1084  C     0.49324   0.83006   0.52444   0.00000  Uiso   1.00
C1085  C     0.52848   0.84024   0.54734   0.00000  Uiso   1.00
C1086  C     0.47463   0.80817   0.95543   0.00000  Uiso   1.00
C1087  C     0.57708   0.84495   0.52476   0.00000  Uiso   1.00
C1088  C     0.42618   0.80270   0.97818   0.00000  Uiso   1.00
H1089  H     0.60268   0.85296   0.54367   0.00000  Uiso   1.00
H1090  H     0.40125   0.79127   0.95999   0.00000  Uiso   1.00
H1091  H     0.44700   0.84897   0.61181   0.00000  Uiso   1.00
H1092  H     0.55123   0.82137   0.88701   0.00000  Uiso   1.00
H1093  H     0.63914   0.80849   0.60827   0.00000  Uiso   1.00
H1094  H     0.36231   0.84849   0.89334   0.00000  Uiso   1.00
H1095  H     0.33431   0.85470   0.97469   0.00000  Uiso   1.00
H1096  H     0.33538   0.79433   0.52814   0.00000  Uiso   1.00
H1097  H     0.52014   0.84392   0.58310   0.00000  Uiso   1.00
H1098  H     0.48405   0.79949   0.92066   0.00000  Uiso   1.00
C1099  C     0.63984   0.68892   0.72629   0.00000  Uiso   1.00
C1100  C     0.36016   0.97775   0.77371   0.00000  Uiso   1.00
H1101  H     0.62041   0.70640   0.70674   0.00000  Uiso   1.00
H1102  H     0.37960   0.96027   0.79326   0.00000  Uiso   1.00
C1103  C     0.64108   0.97947   0.72308   0.00000  Uiso   1.00
C1104  C     0.35891   0.68720   0.77693   0.00000  Uiso   1.00
C1105  C     0.33435   0.95720   0.74764   0.00000  Uiso   1.00
C1106  C     0.66564   0.70947   0.75236   0.00000  Uiso   1.00
C1107  C     0.51594   0.81009   0.78024   0.00000  Uiso   1.00
C1108  C     0.48406   0.85657   0.71976   0.00000  Uiso   1.00
H1109  H     0.52750   0.79137   0.80442   0.00000  Uiso   1.00
H1110  H     0.47250   0.87528   0.69557   0.00000  Uiso   1.00
C1111  C     0.46635   0.81014   0.78026   0.00000  Uiso   1.00
C1112  C     0.53365   0.85652   0.71974   0.00000  Uiso   1.00
H1113  H     0.44062   0.79156   0.80450   0.00000  Uiso   1.00
H1114  H     0.55938   0.87510   0.69550   0.00000  Uiso   1.00
N1115  N     0.45069   0.83334   0.74999   0.00000  Uiso   1.00
N1116  N     0.54931   0.83332   0.75001   0.00000  Uiso   1.00
N1117  N     0.61742   0.95948   0.69320   0.00000  Uiso   1.00
O1118  O     0.63963   0.93055   0.66641   0.00000  Uiso   1.00
O1119  O     0.57701   0.97426   0.68785   0.00000  Uiso   1.00
N1120  N     0.38256   0.70720   0.80682   0.00000  Uiso   1.00
O1121  O     0.36033   0.73612   0.83361   0.00000  Uiso   1.00
O1122  O     0.42297   0.69243   0.81217   0.00000  Uiso   1.00
O1123  O     0.70625   0.77322   0.75000   0.00000  Uiso   1.00
O1124  O     0.96042   0.89345   0.75000   0.00000  Uiso   1.00
O1125  O     0.96039   0.77321   0.75001   0.00000  Uiso   1.00
O1126  O     0.70628   0.89346   0.75000   0.00000  Uiso   1.00
C1127  C     0.99956   0.75410   0.75128   0.00000  Uiso   1.00
C1128  C     0.66710   0.91256   0.74872   0.00000  Uiso   1.00
O1129  O     0.68519   0.83334   0.81492   0.00000  Uiso   1.00
O1130  O     0.98148   0.83332   0.68509   0.00000  Uiso   1.00
O1131  O     0.93933   0.83333   0.81492   0.00000  Uiso   1.00
O1132  O     0.72733   0.83333   0.68508   0.00000  Uiso   1.00
C1133  C     0.97277   0.83340   0.83607   0.00000  Uiso   1.00
C1134  C     0.69390   0.83284   0.66396   0.00000  Uiso   1.00
Cu1135 Cu    0.71355   0.83334   0.75000   0.00000  Uiso   1.00
Cu1136 Cu    0.95311   0.83333   0.75000   0.00000  Uiso   1.00
C1137  C     0.95782   0.83407   0.88520   0.00000  Uiso   1.00
C1138  C     0.70902   0.82875   0.61509   0.00000  Uiso   1.00
C1139  C     0.97502   0.84643   0.95628   0.00000  Uiso   1.00
C1140  C     0.69392   0.80605   0.54583   0.00000  Uiso   1.00
C1141  C     0.99101   0.84299   0.90990   0.00000  Uiso   1.00
C1142  C     0.67694   0.81435   0.59140   0.00000  Uiso   1.00
C1143  C     0.90896   0.82718   0.90738   0.00000  Uiso   1.00
C1144  C     0.75772   0.83581   0.59266   0.00000  Uiso   1.00
C1145  C     0.89202   0.82943   0.95428   0.00000  Uiso   1.00
C1146  C     0.77628   0.82609   0.54710   0.00000  Uiso   1.00
C1147  C     0.92588   0.84016   0.97855   0.00000  Uiso   1.00
C1148  C     0.74317   0.81174   0.52356   0.00000  Uiso   1.00
C1149  C     0.84230   0.82266   0.97747   0.00000  Uiso   1.00
C1150  C     0.82658   0.83006   0.52444   0.00000  Uiso   1.00
C1151  C     0.86181   0.84024   0.54734   0.00000  Uiso   1.00
C1152  C     0.80796   0.80817   0.95543   0.00000  Uiso   1.00
C1153  C     0.91041   0.84495   0.52476   0.00000  Uiso   1.00
C1154  C     0.75951   0.80270   0.97818   0.00000  Uiso   1.00
H1155  H     0.93602   0.85296   0.54367   0.00000  Uiso   1.00
H1156  H     0.73459   0.79127   0.95999   0.00000  Uiso   1.00
H1157  H     0.78033   0.84897   0.61181   0.00000  Uiso   1.00
H1158  H     0.88457   0.82137   0.88701   0.00000  Uiso   1.00
H1159  H     0.97247   0.80849   0.60827   0.00000  Uiso   1.00
H1160  H     0.69564   0.84849   0.89334   0.00000  Uiso   1.00
H1161  H     0.66765   0.85470   0.97469   0.00000  Uiso   1.00
H1162  H     0.66872   0.79433   0.52814   0.00000  Uiso   1.00
H1163  H     0.85347   0.84392   0.58310   0.00000  Uiso   1.00
H1164  H     0.81739   0.79949   0.92066   0.00000  Uiso   1.00
C1165  C     0.97317   0.68892   0.72629   0.00000  Uiso   1.00
C1166  C     0.69350   0.97775   0.77371   0.00000  Uiso   1.00
H1167  H     0.95374   0.70640   0.70674   0.00000  Uiso   1.00
H1168  H     0.71293   0.96027   0.79326   0.00000  Uiso   1.00
C1169  C     0.97442   0.97947   0.72308   0.00000  Uiso   1.00
C1170  C     0.69225   0.68720   0.77693   0.00000  Uiso   1.00
C1171  C     0.66769   0.95720   0.74764   0.00000  Uiso   1.00
C1172  C     0.99898   0.70947   0.75236   0.00000  Uiso   1.00
C1173  C     0.84928   0.81009   0.78024   0.00000  Uiso   1.00
C1174  C     0.81739   0.85657   0.71976   0.00000  Uiso   1.00
H1175  H     0.86083   0.79137   0.80442   0.00000  Uiso   1.00
H1176  H     0.80584   0.87528   0.69557   0.00000  Uiso   1.00
C1177  C     0.79969   0.81014   0.78026   0.00000  Uiso   1.00
C1178  C     0.86698   0.85652   0.71974   0.00000  Uiso   1.00
H1179  H     0.77395   0.79156   0.80450   0.00000  Uiso   1.00
H1180  H     0.89272   0.87510   0.69550   0.00000  Uiso   1.00
N1181  N     0.78403   0.83334   0.74999   0.00000  Uiso   1.00
N1182  N     0.88264   0.83332   0.75001   0.00000  Uiso   1.00
N1183  N     0.95075   0.95948   0.69320   0.00000  Uiso   1.00
O1184  O     0.97297   0.93055   0.66641   0.00000  Uiso   1.00
O1185  O     0.91034   0.97426   0.68785   0.00000  Uiso   1.00
N1186  N     0.71589   0.70720   0.80682   0.00000  Uiso   1.00
O1187  O     0.69366   0.73612   0.83361   0.00000  Uiso   1.00
O1188  O     0.75630   0.69243   0.81217   0.00000  Uiso   1.00
loop_
_geom_bond_atom_site_label_1
_geom_bond_atom_site_label_2
_geom_bond_distance
_geom_bond_site_symmetry_2
_ccdc_geom_bond_type
O1     Cu13    1.959   .     S
O1     C137    1.291   1_455 S
O2     Cu14    1.959   .     S
O2     C72     1.291   .     S
O3     Cu14    1.959   .     S
O3     C5      1.290   .     A
O4     C6      1.290   .     A
O4     Cu13    1.959   .     S
C5     C50     1.447   .     S
C5     O67     1.291   .     S
C6     C49     1.447   .     S
C6     O134    1.291   1_455 S
O7     Cu13    1.957   .     S
O7     C143    1.297   1_455 S
O8     Cu14    1.957   .     S
O8     C78     1.297   .     S
O9     Cu14    1.944   .     S
O9     C11     1.295   .     A
O10    C12     1.295   .     A
O10    Cu13    1.944   .     S
C11    C15     1.467   .     S
C11    O73     1.297   .     S
C12    C16     1.466   .     S
C12    O140    1.297   1_455 S
Cu13   N59     2.014   .     S
Cu13   Cu146   2.680   1_455 S
Cu14   N60     2.014   .     S
Cu14   Cu79    2.680   .     S
C15    C21     1.399   .     A
C15    C19     1.399   .     A
C16    C20     1.398   .     A
C16    C22     1.398   .     A
C17    C25     1.404   .     A
C17    C19     1.391   .     A
C17    H105    1.083   .     S
C18    C20     1.392   .     A
C18    C26     1.404   .     A
C18    H40     1.084   .     S
C19    H104    1.083   .     S
C20    H169    1.083   1_455 S
C21    H36     1.075   .     S
C21    C23     1.406   .     A
C22    H35     1.075   .     S
C22    C24     1.405   .     A
C23    C27     1.427   .     A
C23    C25     1.418   .     A
C24    C28     1.427   .     A
C24    C26     1.418   .     A
C25    C625    1.390   .     S
C26    C626    1.390   1_554 S
C27    C30     1.417   .     A
C27    C622    1.425   .     S
C28    C29     1.417   .     A
C28    C621    1.425   1_554 S
C29    C31     1.386   .     A
C29    H41     1.076   .     S
C30    C32     1.386   .     A
C30    H42     1.076   .     S
C31    H33     1.084   .     S
C31    C619    1.390   1_554 S
C32    H34     1.084   .     S
C32    C620    1.390   .     S
H37    C86     1.083   .     S
H38    C151    1.083   1_455 S
H39    C149    1.083   1_455 S
C43    C50     1.399   .     A
C43    H45     1.084   .     S
C43    C443    1.390   1_545 S
C44    C49     1.399   .     A
C44    H46     1.084   .     S
C44    C246    1.390   .     S
C47    N61     1.438   .     S
C47    C241    1.390   .     S
C47    C115    1.410   .     S
C48    N64     1.438   .     S
C48    C440    1.390   1_545 S
C48    C182    1.410   1_455 S
C49    C179    1.410   1_455 S
C50    C114    1.410   .     S
C51    C55     1.417   .     A
C51    H53     1.082   .     S
C51    N60     1.368   .     A
C52    N59     1.368   .     A
C52    H54     1.082   .     S
C52    C56     1.417   .     A
C55    N59     1.367   .     A
C55    H57     1.081   .     S
C56    H58     1.081   .     S
C56    N60     1.367   .     A
N61    O62     1.302   .     A
N61    O63     1.302   .     A
N64    O65     1.302   .     A
N64    O66     1.302   .     A
O67    Cu79    1.959   .     S
O68    Cu80    1.959   .     S
O68    C138    1.291   .     S
O69    Cu80    1.959   .     S
O69    C71     1.290   .     A
O70    C72     1.290   .     A
O70    Cu79    1.959   .     S
C71    C116    1.447   .     S
C71    O133    1.291   .     S
C72    C115    1.447   .     S
O73    Cu79    1.957   .     S
O74    Cu80    1.957   .     S
O74    C144    1.297   .     S
O75    Cu80    1.944   .     S
O75    C77     1.295   .     A
O76    C78     1.295   .     A
O76    Cu79    1.944   .     S
C77    C81     1.467   .     S
C77    O139    1.297   .     S
C78    C82     1.466   .     S
Cu79   N125    2.014   .     S
Cu80   N126    2.014   .     S
Cu80   Cu145   2.680   .     S
C81    C87     1.399   .     A
C81    C85     1.399   .     A
C82    C86     1.398   .     A
C82    C88     1.398   .     A
C83    C91     1.404   .     A
C83    C85     1.391   .     A
C83    H171    1.083   .     S
C84    C86     1.392   .     A
C84    C92     1.404   .     A
C84    H106    1.084   .     S
C85    H170    1.083   .     S
C87    H102    1.075   .     S
C87    C89     1.406   .     A
C88    H101    1.075   .     S
C88    C90     1.405   .     A
C89    C93     1.427   .     A
C89    C91     1.418   .     A
C90    C94     1.427   .     A
C90    C92     1.418   .     A
C91    C691    1.390   .     S
C92    C692    1.390   1_554 S
C93    C96     1.417   .     A
C93    C688    1.425   .     S
C94    C95     1.417   .     A
C94    C687    1.425   1_554 S
C95    C97     1.386   .     A
C95    H107    1.076   .     S
C96    C98     1.386   .     A
C96    H108    1.076   .     S
C97    H99     1.084   .     S
C97    C685    1.390   1_554 S
C98    H100    1.084   .     S
C98    C686    1.390   .     S
H103   C152    1.083   .     S
C109   C116    1.399   .     A
C109   H111    1.084   .     S
C109   C509    1.390   1_545 S
C110   C115    1.399   .     A
C110   H112    1.084   .     S
C110   C312    1.390   .     S
C113   N127    1.438   .     S
C113   C307    1.390   .     S
C113   C181    1.410   .     S
C114   N130    1.438   .     S
C114   C506    1.390   1_545 S
C116   C180    1.410   .     S
C117   C121    1.417   .     A
C117   H119    1.082   .     S
C117   N126    1.368   .     A
C118   N125    1.368   .     A
C118   H120    1.082   .     S
C118   C122    1.417   .     A
C121   N125    1.367   .     A
C121   H123    1.081   .     S
C122   H124    1.081   .     S
C122   N126    1.367   .     A
N127   O128    1.302   .     A
N127   O129    1.302   .     A
N130   O131    1.302   .     A
N130   O132    1.302   .     A
O133   Cu145   1.959   .     S
O134   Cu146   1.959   .     S
O134   C6      1.291   1_655 S
O135   Cu146   1.959   .     S
O135   C137    1.290   .     A
O136   C138    1.290   .     A
O136   Cu145   1.959   .     S
C137   C182    1.447   .     S
C137   O1      1.291   1_655 S
C138   C181    1.447   .     S
O139   Cu145   1.957   .     S
O140   Cu146   1.957   .     S
O140   C12     1.297   1_655 S
O141   Cu146   1.944   .     S
O141   C143    1.295   .     A
O142   C144    1.295   .     A
O142   Cu145   1.944   .     S
C143   C147    1.467   .     S
C143   O7      1.297   1_655 S
C144   C148    1.466   .     S
Cu145  N191    2.014   .     S
Cu146  N192    2.014   .     S
Cu146  Cu13    2.680   1_655 S
C147   C153    1.399   .     A
C147   C151    1.399   .     A
C148   C152    1.398   .     A
C148   C154    1.398   .     A
C149   C157    1.404   .     A
C149   C151    1.391   .     A
C149   H39     1.083   1_655 S
C150   C152    1.392   .     A
C150   C158    1.404   .     A
C150   H172    1.084   .     S
C151   H38     1.083   1_655 S
C153   H168    1.075   .     S
C153   C155    1.406   .     A
C154   H167    1.075   .     S
C154   C156    1.405   .     A
C155   C159    1.427   .     A
C155   C157    1.418   .     A
C156   C160    1.427   .     A
C156   C158    1.418   .     A
C157   C757    1.390   .     S
C158   C758    1.390   1_554 S
C159   C162    1.417   .     A
C159   C754    1.425   .     S
C160   C161    1.417   .     A
C160   C753    1.425   1_554 S
C161   C163    1.386   .     A
C161   H173    1.076   .     S
C162   C164    1.386   .     A
C162   H174    1.076   .     S
C163   H165    1.084   .     S
C163   C751    1.390   1_554 S
C164   H166    1.084   .     S
C164   C752    1.390   .     S
H169   C20     1.083   1_655 S
C175   C182    1.399   .     A
C175   H177    1.084   .     S
C175   C575    1.390   1_545 S
C176   C181    1.399   .     A
C176   H178    1.084   .     S
C176   C378    1.390   .     S
C179   N193    1.438   .     S
C179   C373    1.390   .     S
C179   C49     1.410   1_655 S
C180   N196    1.438   .     S
C180   C572    1.390   1_545 S
C182   C48     1.410   1_655 S
C183   C187    1.417   .     A
C183   H185    1.082   .     S
C183   N192    1.368   .     A
C184   N191    1.368   .     A
C184   H186    1.082   .     S
C184   C188    1.417   .     A
C187   N191    1.367   .     A
C187   H189    1.081   .     S
C188   H190    1.081   .     S
C188   N192    1.367   .     A
N193   O194    1.302   .     A
N193   O195    1.302   .     A
N196   O197    1.302   .     A
N196   O198    1.302   .     A
O199   Cu211   1.959   .     S
O199   C335    1.291   1_455 S
O200   Cu212   1.959   .     S
O200   C270    1.291   .     S
O201   Cu212   1.959   .     S
O201   C203    1.290   .     A
O202   C204    1.290   .     A
O202   Cu211   1.959   .     S
C203   C248    1.447   .     S
C203   O265    1.291   .     S
C204   C247    1.447   .     S
C204   O332    1.291   1_455 S
O205   Cu211   1.957   .     S
O205   C341    1.297   1_455 S
O206   Cu212   1.957   .     S
O206   C276    1.297   .     S
O207   Cu212   1.944   .     S
O207   C209    1.295   .     A
O208   C210    1.295   .     A
O208   Cu211   1.944   .     S
C209   C213    1.467   .     S
C209   O271    1.297   .     S
C210   C214    1.466   .     S
C210   O338    1.297   1_455 S
Cu211  N257    2.014   .     S
Cu211  Cu344   2.680   1_455 S
Cu212  N258    2.014   .     S
Cu212  Cu277   2.680   .     S
C213   C219    1.399   .     A
C213   C217    1.399   .     A
C214   C218    1.398   .     A
C214   C220    1.398   .     A
C215   C223    1.404   .     A
C215   C217    1.391   .     A
C215   H303    1.083   .     S
C216   C218    1.392   .     A
C216   C224    1.404   .     A
C216   H238    1.084   .     S
C217   H302    1.083   .     S
C218   H367    1.083   1_455 S
C219   H234    1.075   .     S
C219   C221    1.406   .     A
C220   H233    1.075   .     S
C220   C222    1.405   .     A
C221   C225    1.427   .     A
C221   C223    1.418   .     A
C222   C226    1.427   .     A
C222   C224    1.418   .     A
C223   C823    1.390   .     S
C224   C824    1.390   1_554 S
C225   C228    1.417   .     A
C225   C820    1.425   .     S
C226   C227    1.417   .     A
C226   C819    1.425   1_554 S
C227   C229    1.386   .     A
C227   H239    1.076   .     S
C228   C230    1.386   .     A
C228   H240    1.076   .     S
C229   H231    1.084   .     S
C229   C817    1.390   1_554 S
C230   H232    1.084   .     S
C230   C818    1.390   .     S
H235   C284    1.083   .     S
H236   C349    1.083   1_455 S
H237   C347    1.083   1_455 S
C241   C248    1.399   .     A
C241   H243    1.084   .     S
C242   C247    1.399   .     A
C242   H244    1.084   .     S
C242   C444    1.390   .     S
C245   N259    1.438   .     S
C245   C439    1.390   .     S
C245   C313    1.410   .     S
C246   N262    1.438   .     S
C246   C380    1.410   1_455 S
C247   C377    1.410   1_455 S
C248   C312    1.410   .     S
C249   C253    1.417   .     A
C249   H251    1.082   .     S
C249   N258    1.368   .     A
C250   N257    1.368   .     A
C250   H252    1.082   .     S
C250   C254    1.417   .     A
C253   N257    1.367   .     A
C253   H255    1.081   .     S
C254   H256    1.081   .     S
C254   N258    1.367   .     A
N259   O260    1.302   .     A
N259   O261    1.302   .     A
N262   O263    1.302   .     A
N262   O264    1.302   .     A
O265   Cu277   1.959   .     S
O266   Cu278   1.959   .     S
O266   C336    1.291   .     S
O267   Cu278   1.959   .     S
O267   C269    1.290   .     A
O268   C270    1.290   .     A
O268   Cu277   1.959   .     S
C269   C314    1.447   .     S
C269   O331    1.291   .     S
C270   C313    1.447   .     S
O271   Cu277   1.957   .     S
O272   Cu278   1.957   .     S
O272   C342    1.297   .     S
O273   Cu278   1.944   .     S
O273   C275    1.295   .     A
O274   C276    1.295   .     A
O274   Cu277   1.944   .     S
C275   C279    1.467   .     S
C275   O337    1.297   .     S
C276   C280    1.466   .     S
Cu277  N323    2.014   .     S
Cu278  N324    2.014   .     S
Cu278  Cu343   2.680   .     S
C279   C285    1.399   .     A
C279   C283    1.399   .     A
C280   C284    1.398   .     A
C280   C286    1.398   .     A
C281   C289    1.404   .     A
C281   C283    1.391   .     A
C281   H369    1.083   .     S
C282   C284    1.392   .     A
C282   C290    1.404   .     A
C282   H304    1.084   .     S
C283   H368    1.083   .     S
C285   H300    1.075   .     S
C285   C287    1.406   .     A
C286   H299    1.075   .     S
C286   C288    1.405   .     A
C287   C291    1.427   .     A
C287   C289    1.418   .     A
C288   C292    1.427   .     A
C288   C290    1.418   .     A
C289   C889    1.390   .     S
C290   C890    1.390   1_554 S
C291   C294    1.417   .     A
C291   C886    1.425   .     S
C292   C293    1.417   .     A
C292   C885    1.425   1_554 S
C293   C295    1.386   .     A
C293   H305    1.076   .     S
C294   C296    1.386   .     A
C294   H306    1.076   .     S
C295   H297    1.084   .     S
C295   C883    1.390   1_554 S
C296   H298    1.084   .     S
C296   C884    1.390   .     S
H301   C350    1.083   .     S
C307   C314    1.399   .     A
C307   H309    1.084   .     S
C308   C313    1.399   .     A
C308   H310    1.084   .     S
C308   C510    1.390   .     S
C311   N325    1.438   .     S
C311   C505    1.390   .     S
C311   C379    1.410   .     S
C312   N328    1.438   .     S
C314   C378    1.410   .     S
C315   C319    1.417   .     A
C315   H317    1.082   .     S
C315   N324    1.368   .     A
C316   N323    1.368   .     A
C316   H318    1.082   .     S
C316   C320    1.417   .     A
C319   N323    1.367   .     A
C319   H321    1.081   .     S
C320   H322    1.081   .     S
C320   N324    1.367   .     A
N325   O326    1.302   .     A
N325   O327    1.302   .     A
N328   O329    1.302   .     A
N328   O330    1.302   .     A
O331   Cu343   1.959   .     S
O332   Cu344   1.959   .     S
O332   C204    1.291   1_655 S
O333   Cu344   1.959   .     S
O333   C335    1.290   .     A
O334   C336    1.290   .     A
O334   Cu343   1.959   .     S
C335   C380    1.447   .     S
C335   O199    1.291   1_655 S
C336   C379    1.447   .     S
O337   Cu343   1.957   .     S
O338   Cu344   1.957   .     S
O338   C210    1.297   1_655 S
O339   Cu344   1.944   .     S
O339   C341    1.295   .     A
O340   C342    1.295   .     A
O340   Cu343   1.944   .     S
C341   C345    1.467   .     S
C341   O205    1.297   1_655 S
C342   C346    1.466   .     S
Cu343  N389    2.014   .     S
Cu344  N390    2.014   .     S
Cu344  Cu211   2.680   1_655 S
C345   C351    1.399   .     A
C345   C349    1.399   .     A
C346   C350    1.398   .     A
C346   C352    1.398   .     A
C347   C355    1.404   .     A
C347   C349    1.391   .     A
C347   H237    1.083   1_655 S
C348   C350    1.392   .     A
C348   C356    1.404   .     A
C348   H370    1.084   .     S
C349   H236    1.083   1_655 S
C351   H366    1.075   .     S
C351   C353    1.406   .     A
C352   H365    1.075   .     S
C352   C354    1.405   .     A
C353   C357    1.427   .     A
C353   C355    1.418   .     A
C354   C358    1.427   .     A
C354   C356    1.418   .     A
C355   C955    1.390   .     S
C356   C956    1.390   1_554 S
C357   C360    1.417   .     A
C357   C952    1.425   .     S
C358   C359    1.417   .     A
C358   C951    1.425   1_554 S
C359   C361    1.386   .     A
C359   H371    1.076   .     S
C360   C362    1.386   .     A
C360   H372    1.076   .     S
C361   H363    1.084   .     S
C361   C949    1.390   1_554 S
C362   H364    1.084   .     S
C362   C950    1.390   .     S
H367   C218    1.083   1_655 S
C373   C380    1.399   .     A
C373   H375    1.084   .     S
C374   C379    1.399   .     A
C374   H376    1.084   .     S
C374   C576    1.390   .     S
C377   N391    1.438   .     S
C377   C571    1.390   .     S
C377   C247    1.410   1_655 S
C378   N394    1.438   .     S
C380   C246    1.410   1_655 S
C381   C385    1.417   .     A
C381   H383    1.082   .     S
C381   N390    1.368   .     A
C382   N389    1.368   .     A
C382   H384    1.082   .     S
C382   C386    1.417   .     A
C385   N389    1.367   .     A
C385   H387    1.081   .     S
C386   H388    1.081   .     S
C386   N390    1.367   .     A
N391   O392    1.302   .     A
N391   O393    1.302   .     A
N394   O395    1.302   .     A
N394   O396    1.302   .     A
O397   Cu409   1.959   .     S
O397   C533    1.291   1_455 S
O398   Cu410   1.959   .     S
O398   C468    1.291   .     S
O399   Cu410   1.959   .     S
O399   C401    1.290   .     A
O400   C402    1.290   .     A
O400   Cu409   1.959   .     S
C401   C446    1.447   .     S
C401   O463    1.291   .     S
C402   C445    1.447   .     S
C402   O530    1.291   1_455 S
O403   Cu409   1.957   .     S
O403   C539    1.297   1_455 S
O404   Cu410   1.957   .     S
O404   C474    1.297   .     S
O405   Cu410   1.944   .     S
O405   C407    1.295   .     A
O406   C408    1.295   .     A
O406   Cu409   1.944   .     S
C407   C411    1.467   .     S
C407   O469    1.297   .     S
C408   C412    1.466   .     S
C408   O536    1.297   1_455 S
Cu409  N455    2.014   .     S
Cu409  Cu542   2.680   1_455 S
Cu410  N456    2.014   .     S
Cu410  Cu475   2.680   .     S
C411   C417    1.399   .     A
C411   C415    1.399   .     A
C412   C416    1.398   .     A
C412   C418    1.398   .     A
C413   C421    1.404   .     A
C413   C415    1.391   .     A
C413   H501    1.083   .     S
C414   C416    1.392   .     A
C414   C422    1.404   .     A
C414   H436    1.084   .     S
C415   H500    1.083   .     S
C416   H565    1.083   1_455 S
C417   H432    1.075   .     S
C417   C419    1.406   .     A
C418   H431    1.075   .     S
C418   C420    1.405   .     A
C419   C423    1.427   .     A
C419   C421    1.418   .     A
C420   C424    1.427   .     A
C420   C422    1.418   .     A
C421   C1021   1.390   .     S
C422   C1022   1.390   1_554 S
C423   C426    1.417   .     A
C423   C1018   1.425   .     S
C424   C425    1.417   .     A
C424   C1017   1.425   1_554 S
C425   C427    1.386   .     A
C425   H437    1.076   .     S
C426   C428    1.386   .     A
C426   H438    1.076   .     S
C427   H429    1.084   .     S
C427   C1015   1.390   1_554 S
C428   H430    1.084   .     S
C428   C1016   1.390   .     S
H433   C482    1.083   .     S
H434   C547    1.083   1_455 S
H435   C545    1.083   1_455 S
C439   C446    1.399   .     A
C439   H441    1.084   .     S
C440   C445    1.399   .     A
C440   H442    1.084   .     S
C440   C48     1.390   1_565 S
C443   N457    1.438   .     S
C443   C43     1.390   1_565 S
C443   C511    1.410   .     S
C444   N460    1.438   .     S
C444   C578    1.410   1_455 S
C445   C575    1.410   1_455 S
C446   C510    1.410   .     S
C447   C451    1.417   .     A
C447   H449    1.082   .     S
C447   N456    1.368   .     A
C448   N455    1.368   .     A
C448   H450    1.082   .     S
C448   C452    1.417   .     A
C451   N455    1.367   .     A
C451   H453    1.081   .     S
C452   H454    1.081   .     S
C452   N456    1.367   .     A
N457   O458    1.302   .     A
N457   O459    1.302   .     A
N460   O461    1.302   .     A
N460   O462    1.302   .     A
O463   Cu475   1.959   .     S
O464   Cu476   1.959   .     S
O464   C534    1.291   .     S
O465   Cu476   1.959   .     S
O465   C467    1.290   .     A
O466   C468    1.290   .     A
O466   Cu475   1.959   .     S
C467   C512    1.447   .     S
C467   O529    1.291   .     S
C468   C511    1.447   .     S
O469   Cu475   1.957   .     S
O470   Cu476   1.957   .     S
O470   C540    1.297   .     S
O471   Cu476   1.944   .     S
O471   C473    1.295   .     A
O472   C474    1.295   .     A
O472   Cu475   1.944   .     S
C473   C477    1.467   .     S
C473   O535    1.297   .     S
C474   C478    1.466   .     S
Cu475  N521    2.014   .     S
Cu476  N522    2.014   .     S
Cu476  Cu541   2.680   .     S
C477   C483    1.399   .     A
C477   C481    1.399   .     A
C478   C482    1.398   .     A
C478   C484    1.398   .     A
C479   C487    1.404   .     A
C479   C481    1.391   .     A
C479   H567    1.083   .     S
C480   C482    1.392   .     A
C480   C488    1.404   .     A
C480   H502    1.084   .     S
C481   H566    1.083   .     S
C483   H498    1.075   .     S
C483   C485    1.406   .     A
C484   H497    1.075   .     S
C484   C486    1.405   .     A
C485   C489    1.427   .     A
C485   C487    1.418   .     A
C486   C490    1.427   .     A
C486   C488    1.418   .     A
C487   C1087   1.390   .     S
C488   C1088   1.390   1_554 S
C489   C492    1.417   .     A
C489   C1084   1.425   .     S
C490   C491    1.417   .     A
C490   C1083   1.425   1_554 S
C491   C493    1.386   .     A
C491   H503    1.076   .     S
C492   C494    1.386   .     A
C492   H504    1.076   .     S
C493   H495    1.084   .     S
C493   C1081   1.390   1_554 S
C494   H496    1.084   .     S
C494   C1082   1.390   .     S
H499   C548    1.083   .     S
C505   C512    1.399   .     A
C505   H507    1.084   .     S
C506   C511    1.399   .     A
C506   H508    1.084   .     S
C506   C114    1.390   1_565 S
C509   N523    1.438   .     S
C509   C109    1.390   1_565 S
C509   C577    1.410   .     S
C510   N526    1.438   .     S
C512   C576    1.410   .     S
C513   C517    1.417   .     A
C513   H515    1.082   .     S
C513   N522    1.368   .     A
C514   N521    1.368   .     A
C514   H516    1.082   .     S
C514   C518    1.417   .     A
C517   N521    1.367   .     A
C517   H519    1.081   .     S
C518   H520    1.081   .     S
C518   N522    1.367   .     A
N523   O524    1.302   .     A
N523   O525    1.302   .     A
N526   O527    1.302   .     A
N526   O528    1.302   .     A
O529   Cu541   1.959   .     S
O530   Cu542   1.959   .     S
O530   C402    1.291   1_655 S
O531   Cu542   1.959   .     S
O531   C533    1.290   .     A
O532   C534    1.290   .     A
O532   Cu541   1.959   .     S
C533   C578    1.447   .     S
C533   O397    1.291   1_655 S
C534   C577    1.447   .     S
O535   Cu541   1.957   .     S
O536   Cu542   1.957   .     S
O536   C408    1.297   1_655 S
O537   Cu542   1.944   .     S
O537   C539    1.295   .     A
O538   C540    1.295   .     A
O538   Cu541   1.944   .     S
C539   C543    1.467   .     S
C539   O403    1.297   1_655 S
C540   C544    1.466   .     S
Cu541  N587    2.014   .     S
Cu542  N588    2.014   .     S
Cu542  Cu409   2.680   1_655 S
C543   C549    1.399   .     A
C543   C547    1.399   .     A
C544   C548    1.398   .     A
C544   C550    1.398   .     A
C545   C553    1.404   .     A
C545   C547    1.391   .     A
C545   H435    1.083   1_655 S
C546   C548    1.392   .     A
C546   C554    1.404   .     A
C546   H568    1.084   .     S
C547   H434    1.083   1_655 S
C549   H564    1.075   .     S
C549   C551    1.406   .     A
C550   H563    1.075   .     S
C550   C552    1.405   .     A
C551   C555    1.427   .     A
C551   C553    1.418   .     A
C552   C556    1.427   .     A
C552   C554    1.418   .     A
C553   C1153   1.390   .     S
C554   C1154   1.390   1_554 S
C555   C558    1.417   .     A
C555   C1150   1.425   .     S
C556   C557    1.417   .     A
C556   C1149   1.425   1_554 S
C557   C559    1.386   .     A
C557   H569    1.076   .     S
C558   C560    1.386   .     A
C558   H570    1.076   .     S
C559   H561    1.084   .     S
C559   C1147   1.390   1_554 S
C560   H562    1.084   .     S
C560   C1148   1.390   .     S
H565   C416    1.083   1_655 S
C571   C578    1.399   .     A
C571   H573    1.084   .     S
C572   C577    1.399   .     A
C572   H574    1.084   .     S
C572   C180    1.390   1_565 S
C575   N589    1.438   .     S
C575   C175    1.390   1_565 S
C575   C445    1.410   1_655 S
C576   N592    1.438   .     S
C578   C444    1.410   1_655 S
C579   C583    1.417   .     A
C579   H581    1.082   .     S
C579   N588    1.368   .     A
C580   N587    1.368   .     A
C580   H582    1.082   .     S
C580   C584    1.417   .     A
C583   N587    1.367   .     A
C583   H585    1.081   .     S
C584   H586    1.081   .     S
C584   N588    1.367   .     A
N589   O590    1.302   .     A
N589   O591    1.302   .     A
N592   O593    1.302   .     A
N592   O594    1.302   .     A
O595   Cu607   1.959   .     S
O595   C731    1.291   1_455 S
O596   Cu608   1.959   .     S
O596   C666    1.291   .     S
O597   Cu608   1.959   .     S
O597   C599    1.290   .     A
O598   C600    1.290   .     A
O598   Cu607   1.959   .     S
C599   C644    1.447   .     S
C599   O661    1.291   .     S
C600   C643    1.447   .     S
C600   O728    1.291   1_455 S
O601   Cu607   1.957   .     S
O601   C737    1.297   1_455 S
O602   Cu608   1.957   .     S
O602   C672    1.297   .     S
O603   Cu608   1.944   .     S
O603   C605    1.295   .     A
O604   C606    1.295   .     A
O604   Cu607   1.944   .     S
C605   C609    1.467   .     S
C605   O667    1.297   .     S
C606   C610    1.466   .     S
C606   O734    1.297   1_455 S
Cu607  N653    2.014   .     S
Cu607  Cu740   2.680   1_455 S
Cu608  N654    2.014   .     S
Cu608  Cu673   2.680   .     S
C609   C615    1.399   .     A
C609   C613    1.399   .     A
C610   C614    1.398   .     A
C610   C616    1.398   .     A
C611   C619    1.404   .     A
C611   C613    1.391   .     A
C611   H699    1.083   .     S
C612   C614    1.392   .     A
C612   C620    1.404   .     A
C612   H634    1.084   .     S
C613   H698    1.083   .     S
C614   H763    1.083   1_455 S
C615   H630    1.075   .     S
C615   C617    1.406   .     A
C616   H629    1.075   .     S
C616   C618    1.405   .     A
C617   C621    1.427   .     A
C617   C619    1.418   .     A
C618   C622    1.427   .     A
C618   C620    1.418   .     A
C619   C31     1.390   1_556 S
C621   C624    1.417   .     A
C621   C28     1.425   1_556 S
C622   C623    1.417   .     A
C623   C625    1.386   .     A
C623   H635    1.076   .     S
C624   C626    1.386   .     A
C624   H636    1.076   .     S
C625   H627    1.084   .     S
C626   H628    1.084   .     S
C626   C26     1.390   1_556 S
H631   C680    1.083   .     S
H632   C745    1.083   1_455 S
H633   C743    1.083   1_455 S
C637   C644    1.399   .     A
C637   H639    1.084   .     S
C637   C1037   1.390   1_545 S
C638   C643    1.399   .     A
C638   H640    1.084   .     S
C638   C840    1.390   .     S
C641   N655    1.438   .     S
C641   C835    1.390   .     S
C641   C709    1.410   .     S
C642   N658    1.438   .     S
C642   C1034   1.390   1_545 S
C642   C776    1.410   1_455 S
C643   C773    1.410   1_455 S
C644   C708    1.410   .     S
C645   C649    1.417   .     A
C645   H647    1.082   .     S
C645   N654    1.368   .     A
C646   N653    1.368   .     A
C646   H648    1.082   .     S
C646   C650    1.417   .     A
C649   N653    1.367   .     A
C649   H651    1.081   .     S
C650   H652    1.081   .     S
C650   N654    1.367   .     A
N655   O656    1.302   .     A
N655   O657    1.302   .     A
N658   O659    1.302   .     A
N658   O660    1.302   .     A
O661   Cu673   1.959   .     S
O662   Cu674   1.959   .     S
O662   C732    1.291   .     S
O663   Cu674   1.959   .     S
O663   C665    1.290   .     A
O664   C666    1.290   .     A
O664   Cu673   1.959   .     S
C665   C710    1.447   .     S
C665   O727    1.291   .     S
C666   C709    1.447   .     S
O667   Cu673   1.957   .     S
O668   Cu674   1.957   .     S
O668   C738    1.297   .     S
O669   Cu674   1.944   .     S
O669   C671    1.295   .     A
O670   C672    1.295   .     A
O670   Cu673   1.944   .     S
C671   C675    1.467   .     S
C671   O733    1.297   .     S
C672   C676    1.466   .     S
Cu673  N719    2.014   .     S
Cu674  N720    2.014   .     S
Cu674  Cu739   2.680   .     S
C675   C681    1.399   .     A
C675   C679    1.399   .     A
C676   C680    1.398   .     A
C676   C682    1.398   .     A
C677   C685    1.404   .     A
C677   C679    1.391   .     A
C677   H765    1.083   .     S
C678   C680    1.392   .     A
C678   C686    1.404   .     A
C678   H700    1.084   .     S
C679   H764    1.083   .     S
C681   H696    1.075   .     S
C681   C683    1.406   .     A
C682   H695    1.075   .     S
C682   C684    1.405   .     A
C683   C687    1.427   .     A
C683   C685    1.418   .     A
C684   C688    1.427   .     A
C684   C686    1.418   .     A
C685   C97     1.390   1_556 S
C687   C690    1.417   .     A
C687   C94     1.425   1_556 S
C688   C689    1.417   .     A
C689   C691    1.386   .     A
C689   H701    1.076   .     S
C690   C692    1.386   .     A
C690   H702    1.076   .     S
C691   H693    1.084   .     S
C692   H694    1.084   .     S
C692   C92     1.390   1_556 S
H697   C746    1.083   .     S
C703   C710    1.399   .     A
C703   H705    1.084   .     S
C703   C1103   1.390   1_545 S
C704   C709    1.399   .     A
C704   H706    1.084   .     S
C704   C906    1.390   .     S
C707   N721    1.438   .     S
C707   C901    1.390   .     S
C707   C775    1.410   .     S
C708   N724    1.438   .     S
C708   C1100   1.390   1_545 S
C710   C774    1.410   .     S
C711   C715    1.417   .     A
C711   H713    1.082   .     S
C711   N720    1.368   .     A
C712   N719    1.368   .     A
C712   H714    1.082   .     S
C712   C716    1.417   .     A
C715   N719    1.367   .     A
C715   H717    1.081   .     S
C716   H718    1.081   .     S
C716   N720    1.367   .     A
N721   O722    1.302   .     A
N721   O723    1.302   .     A
N724   O725    1.302   .     A
N724   O726    1.302   .     A
O727   Cu739   1.959   .     S
O728   Cu740   1.959   .     S
O728   C600    1.291   1_655 S
O729   Cu740   1.959   .     S
O729   C731    1.290   .     A
O730   C732    1.290   .     A
O730   Cu739   1.959   .     S
C731   C776    1.447   .     S
C731   O595    1.291   1_655 S
C732   C775    1.447   .     S
O733   Cu739   1.957   .     S
O734   Cu740   1.957   .     S
O734   C606    1.297   1_655 S
O735   Cu740   1.944   .     S
O735   C737    1.295   .     A
O736   C738    1.295   .     A
O736   Cu739   1.944   .     S
C737   C741    1.467   .     S
C737   O601    1.297   1_655 S
C738   C742    1.466   .     S
Cu739  N785    2.014   .     S
Cu740  N786    2.014   .     S
Cu740  Cu607   2.680   1_655 S
C741   C747    1.399   .     A
C741   C745    1.399   .     A
C742   C746    1.398   .     A
C742   C748    1.398   .     A
C743   C751    1.404   .     A
C743   C745    1.391   .     A
C743   H633    1.083   1_655 S
C744   C746    1.392   .     A
C744   C752    1.404   .     A
C744   H766    1.084   .     S
C745   H632    1.083   1_655 S
C747   H762    1.075   .     S
C747   C749    1.406   .     A
C748   H761    1.075   .     S
C748   C750    1.405   .     A
C749   C753    1.427   .     A
C749   C751    1.418   .     A
C750   C754    1.427   .     A
C750   C752    1.418   .     A
C751   C163    1.390   1_556 S
C753   C756    1.417   .     A
C753   C160    1.425   1_556 S
C754   C755    1.417   .     A
C755   C757    1.386   .     A
C755   H767    1.076   .     S
C756   C758    1.386   .     A
C756   H768    1.076   .     S
C757   H759    1.084   .     S
C758   H760    1.084   .     S
C758   C158    1.390   1_556 S
H763   C614    1.083   1_655 S
C769   C776    1.399   .     A
C769   H771    1.084   .     S
C769   C1169   1.390   1_545 S
C770   C775    1.399   .     A
C770   H772    1.084   .     S
C770   C972    1.390   .     S
C773   N787    1.438   .     S
C773   C967    1.390   .     S
C773   C643    1.410   1_655 S
C774   N790    1.438   .     S
C774   C1166   1.390   1_545 S
C776   C642    1.410   1_655 S
C777   C781    1.417   .     A
C777   H779    1.082   .     S
C777   N786    1.368   .     A
C778   N785    1.368   .     A
C778   H780    1.082   .     S
C778   C782    1.417   .     A
C781   N785    1.367   .     A
C781   H783    1.081   .     S
C782   H784    1.081   .     S
C782   N786    1.367   .     A
N787   O788    1.302   .     A
N787   O789    1.302   .     A
N790   O791    1.302   .     A
N790   O792    1.302   .     A
O793   Cu805   1.959   .     S
O793   C929    1.291   1_455 S
O794   Cu806   1.959   .     S
O794   C864    1.291   .     S
O795   Cu806   1.959   .     S
O795   C797    1.290   .     A
O796   C798    1.290   .     A
O796   Cu805   1.959   .     S
C797   C842    1.447   .     S
C797   O859    1.291   .     S
C798   C841    1.447   .     S
C798   O926    1.291   1_455 S
O799   Cu805   1.957   .     S
O799   C935    1.297   1_455 S
O800   Cu806   1.957   .     S
O800   C870    1.297   .     S
O801   Cu806   1.944   .     S
O801   C803    1.295   .     A
O802   C804    1.295   .     A
O802   Cu805   1.944   .     S
C803   C807    1.467   .     S
C803   O865    1.297   .     S
C804   C808    1.466   .     S
C804   O932    1.297   1_455 S
Cu805  N851    2.014   .     S
Cu805  Cu938   2.680   1_455 S
Cu806  N852    2.014   .     S
Cu806  Cu871   2.680   .     S
C807   C813    1.399   .     A
C807   C811    1.399   .     A
C808   C812    1.398   .     A
C808   C814    1.398   .     A
C809   C817    1.404   .     A
C809   C811    1.391   .     A
C809   H897    1.083   .     S
C810   C812    1.392   .     A
C810   C818    1.404   .     A
C810   H832    1.084   .     S
C811   H896    1.083   .     S
C812   H961    1.083   1_455 S
C813   H828    1.075   .     S
C813   C815    1.406   .     A
C814   H827    1.075   .     S
C814   C816    1.405   .     A
C815   C819    1.427   .     A
C815   C817    1.418   .     A
C816   C820    1.427   .     A
C816   C818    1.418   .     A
C817   C229    1.390   1_556 S
C819   C822    1.417   .     A
C819   C226    1.425   1_556 S
C820   C821    1.417   .     A
C821   C823    1.386   .     A
C821   H833    1.076   .     S
C822   C824    1.386   .     A
C822   H834    1.076   .     S
C823   H825    1.084   .     S
C824   H826    1.084   .     S
C824   C224    1.390   1_556 S
H829   C878    1.083   .     S
H830   C943    1.083   1_455 S
H831   C941    1.083   1_455 S
C835   C842    1.399   .     A
C835   H837    1.084   .     S
C836   C841    1.399   .     A
C836   H838    1.084   .     S
C836   C1038   1.390   .     S
C839   N853    1.438   .     S
C839   C1033   1.390   .     S
C839   C907    1.410   .     S
C840   N856    1.438   .     S
C840   C974    1.410   1_455 S
C841   C971    1.410   1_455 S
C842   C906    1.410   .     S
C843   C847    1.417   .     A
C843   H845    1.082   .     S
C843   N852    1.368   .     A
C844   N851    1.368   .     A
C844   H846    1.082   .     S
C844   C848    1.417   .     A
C847   N851    1.367   .     A
C847   H849    1.081   .     S
C848   H850    1.081   .     S
C848   N852    1.367   .     A
N853   O854    1.302   .     A
N853   O855    1.302   .     A
N856   O857    1.302   .     A
N856   O858    1.302   .     A
O859   Cu871   1.959   .     S
O860   Cu872   1.959   .     S
O860   C930    1.291   .     S
O861   Cu872   1.959   .     S
O861   C863    1.290   .     A
O862   C864    1.290   .     A
O862   Cu871   1.959   .     S
C863   C908    1.447   .     S
C863   O925    1.291   .     S
C864   C907    1.447   .     S
O865   Cu871   1.957   .     S
O866   Cu872   1.957   .     S
O866   C936    1.297   .     S
O867   Cu872   1.944   .     S
O867   C869    1.295   .     A
O868   C870    1.295   .     A
O868   Cu871   1.944   .     S
C869   C873    1.467   .     S
C869   O931    1.297   .     S
C870   C874    1.466   .     S
Cu871  N917    2.014   .     S
Cu872  N918    2.014   .     S
Cu872  Cu937   2.680   .     S
C873   C879    1.399   .     A
C873   C877    1.399   .     A
C874   C878    1.398   .     A
C874   C880    1.398   .     A
C875   C883    1.404   .     A
C875   C877    1.391   .     A
C875   H963    1.083   .     S
C876   C878    1.392   .     A
C876   C884    1.404   .     A
C876   H898    1.084   .     S
C877   H962    1.083   .     S
C879   H894    1.075   .     S
C879   C881    1.406   .     A
C880   H893    1.075   .     S
C880   C882    1.405   .     A
C881   C885    1.427   .     A
C881   C883    1.418   .     A
C882   C886    1.427   .     A
C882   C884    1.418   .     A
C883   C295    1.390   1_556 S
C885   C888    1.417   .     A
C885   C292    1.425   1_556 S
C886   C887    1.417   .     A
C887   C889    1.386   .     A
C887   H899    1.076   .     S
C888   C890    1.386   .     A
C888   H900    1.076   .     S
C889   H891    1.084   .     S
C890   H892    1.084   .     S
C890   C290    1.390   1_556 S
H895   C944    1.083   .     S
C901   C908    1.399   .     A
C901   H903    1.084   .     S
C902   C907    1.399   .     A
C902   H904    1.084   .     S
C902   C1104   1.390   .     S
C905   N919    1.438   .     S
C905   C1099   1.390   .     S
C905   C973    1.410   .     S
C906   N922    1.438   .     S
C908   C972    1.410   .     S
C909   C913    1.417   .     A
C909   H911    1.082   .     S
C909   N918    1.368   .     A
C910   N917    1.368   .     A
C910   H912    1.082   .     S
C910   C914    1.417   .     A
C913   N917    1.367   .     A
C913   H915    1.081   .     S
C914   H916    1.081   .     S
C914   N918    1.367   .     A
N919   O920    1.302   .     A
N919   O921    1.302   .     A
N922   O923    1.302   .     A
N922   O924    1.302   .     A
O925   Cu937   1.959   .     S
O926   Cu938   1.959   .     S
O926   C798    1.291   1_655 S
O927   Cu938   1.959   .     S
O927   C929    1.290   .     A
O928   C930    1.290   .     A
O928   Cu937   1.959   .     S
C929   C974    1.447   .     S
C929   O793    1.291   1_655 S
C930   C973    1.447   .     S
O931   Cu937   1.957   .     S
O932   Cu938   1.957   .     S
O932   C804    1.297   1_655 S
O933   Cu938   1.944   .     S
O933   C935    1.295   .     A
O934   C936    1.295   .     A
O934   Cu937   1.944   .     S
C935   C939    1.467   .     S
C935   O799    1.297   1_655 S
C936   C940    1.466   .     S
Cu937  N983    2.014   .     S
Cu938  N984    2.014   .     S
Cu938  Cu805   2.680   1_655 S
C939   C945    1.399   .     A
C939   C943    1.399   .     A
C940   C944    1.398   .     A
C940   C946    1.398   .     A
C941   C949    1.404   .     A
C941   C943    1.391   .     A
C941   H831    1.083   1_655 S
C942   C944    1.392   .     A
C942   C950    1.404   .     A
C942   H964    1.084   .     S
C943   H830    1.083   1_655 S
C945   H960    1.075   .     S
C945   C947    1.406   .     A
C946   H959    1.075   .     S
C946   C948    1.405   .     A
C947   C951    1.427   .     A
C947   C949    1.418   .     A
C948   C952    1.427   .     A
C948   C950    1.418   .     A
C949   C361    1.390   1_556 S
C951   C954    1.417   .     A
C951   C358    1.425   1_556 S
C952   C953    1.417   .     A
C953   C955    1.386   .     A
C953   H965    1.076   .     S
C954   C956    1.386   .     A
C954   H966    1.076   .     S
C955   H957    1.084   .     S
C956   H958    1.084   .     S
C956   C356    1.390   1_556 S
H961   C812    1.083   1_655 S
C967   C974    1.399   .     A
C967   H969    1.084   .     S
C968   C973    1.399   .     A
C968   H970    1.084   .     S
C968   C1170   1.390   .     S
C971   N985    1.438   .     S
C971   C1165   1.390   .     S
C971   C841    1.410   1_655 S
C972   N988    1.438   .     S
C974   C840    1.410   1_655 S
C975   C979    1.417   .     A
C975   H977    1.082   .     S
C975   N984    1.368   .     A
C976   N983    1.368   .     A
C976   H978    1.082   .     S
C976   C980    1.417   .     A
C979   N983    1.367   .     A
C979   H981    1.081   .     S
C980   H982    1.081   .     S
C980   N984    1.367   .     A
N985   O986    1.302   .     A
N985   O987    1.302   .     A
N988   O989    1.302   .     A
N988   O990    1.302   .     A
O991   Cu1003  1.959   .     S
O991   C1127   1.291   1_455 S
O992   Cu1004  1.959   .     S
O992   C1062   1.291   .     S
O993   Cu1004  1.959   .     S
O993   C995    1.290   .     A
O994   C996    1.290   .     A
O994   Cu1003  1.959   .     S
C995   C1040   1.447   .     S
C995   O1057   1.291   .     S
C996   C1039   1.447   .     S
C996   O1124   1.291   1_455 S
O997   Cu1003  1.957   .     S
O997   C1133   1.297   1_455 S
O998   Cu1004  1.957   .     S
O998   C1068   1.297   .     S
O999   Cu1004  1.944   .     S
O999   C1001   1.295   .     A
O1000  C1002   1.295   .     A
O1000  Cu1003  1.944   .     S
C1001  C1005   1.467   .     S
C1001  O1063   1.297   .     S
C1002  C1006   1.466   .     S
C1002  O1130   1.297   1_455 S
Cu1003 N1049   2.014   .     S
Cu1003 Cu1136  2.680   1_455 S
Cu1004 N1050   2.014   .     S
Cu1004 Cu1069  2.680   .     S
C1005  C1011   1.399   .     A
C1005  C1009   1.399   .     A
C1006  C1010   1.398   .     A
C1006  C1012   1.398   .     A
C1007  C1015   1.404   .     A
C1007  C1009   1.391   .     A
C1007  H1095   1.083   .     S
C1008  C1010   1.392   .     A
C1008  C1016   1.404   .     A
C1008  H1030   1.084   .     S
C1009  H1094   1.083   .     S
C1010  H1159   1.083   1_455 S
C1011  H1026   1.075   .     S
C1011  C1013   1.406   .     A
C1012  H1025   1.075   .     S
C1012  C1014   1.405   .     A
C1013  C1017   1.427   .     A
C1013  C1015   1.418   .     A
C1014  C1018   1.427   .     A
C1014  C1016   1.418   .     A
C1015  C427    1.390   1_556 S
C1017  C1020   1.417   .     A
C1017  C424    1.425   1_556 S
C1018  C1019   1.417   .     A
C1019  C1021   1.386   .     A
C1019  H1031   1.076   .     S
C1020  C1022   1.386   .     A
C1020  H1032   1.076   .     S
C1021  H1023   1.084   .     S
C1022  H1024   1.084   .     S
C1022  C422    1.390   1_556 S
H1027  C1076   1.083   .     S
H1028  C1141   1.083   1_455 S
H1029  C1139   1.083   1_455 S
C1033  C1040   1.399   .     A
C1033  H1035   1.084   .     S
C1034  C1039   1.399   .     A
C1034  H1036   1.084   .     S
C1034  C642    1.390   1_565 S
C1037  N1051   1.438   .     S
C1037  C637    1.390   1_565 S
C1037  C1105   1.410   .     S
C1038  N1054   1.438   .     S
C1038  C1172   1.410   1_455 S
C1039  C1169   1.410   1_455 S
C1040  C1104   1.410   .     S
C1041  C1045   1.417   .     A
C1041  H1043   1.082   .     S
C1041  N1050   1.368   .     A
C1042  N1049   1.368   .     A
C1042  H1044   1.082   .     S
C1042  C1046   1.417   .     A
C1045  N1049   1.367   .     A
C1045  H1047   1.081   .     S
C1046  H1048   1.081   .     S
C1046  N1050   1.367   .     A
N1051  O1052   1.302   .     A
N1051  O1053   1.302   .     A
N1054  O1055   1.302   .     A
N1054  O1056   1.302   .     A
O1057  Cu1069  1.959   .     S
O1058  Cu1070  1.959   .     S
O1058  C1128   1.291   .     S
O1059  Cu1070  1.959   .     S
O1059  C1061   1.290   .     A
O1060  C1062   1.290   .     A
O1060  Cu1069  1.959   .     S
C1061  C1106   1.447   .     S
C1061  O1123   1.291   .     S
C1062  C1105   1.447   .     S
O1063  Cu1069  1.957   .     S
O1064  Cu1070  1.957   .     S
O1064  C1134   1.297   .     S
O1065  Cu1070  1.944   .     S
O1065  C1067   1.295   .     A
O1066  C1068   1.295   .     A
O1066  Cu1069  1.944   .     S
C1067  C1071   1.467   .     S
C1067  O1129   1.297   .     S
C1068  C1072   1.466   .     S
Cu1069 N1115   2.014   .     S
Cu1070 N1116   2.014   .     S
Cu1070 Cu1135  2.680   .     S
C1071  C1077   1.399   .     A
C1071  C1075   1.399   .     A
C1072  C1076   1.398   .     A
C1072  C1078   1.398   .     A
C1073  C1081   1.404   .     A
C1073  C1075   1.391   .     A
C1073  H1161   1.083   .     S
C1074  C1076   1.392   .     A
C1074  C1082   1.404   .     A
C1074  H1096   1.084   .     S
C1075  H1160   1.083   .     S
C1077  H1092   1.075   .     S
C1077  C1079   1.406   .     A
C1078  H1091   1.075   .     S
C1078  C1080   1.405   .     A
C1079  C1083   1.427   .     A
C1079  C1081   1.418   .     A
C1080  C1084   1.427   .     A
C1080  C1082   1.418   .     A
C1081  C493    1.390   1_556 S
C1083  C1086   1.417   .     A
C1083  C490    1.425   1_556 S
C1084  C1085   1.417   .     A
C1085  C1087   1.386   .     A
C1085  H1097   1.076   .     S
C1086  C1088   1.386   .     A
C1086  H1098   1.076   .     S
C1087  H1089   1.084   .     S
C1088  H1090   1.084   .     S
C1088  C488    1.390   1_556 S
H1093  C1142   1.083   .     S
C1099  C1106   1.399   .     A
C1099  H1101   1.084   .     S
C1100  C1105   1.399   .     A
C1100  H1102   1.084   .     S
C1100  C708    1.390   1_565 S
C1103  N1117   1.438   .     S
C1103  C703    1.390   1_565 S
C1103  C1171   1.410   .     S
C1104  N1120   1.438   .     S
C1106  C1170   1.410   .     S
C1107  C1111   1.417   .     A
C1107  H1109   1.082   .     S
C1107  N1116   1.368   .     A
C1108  N1115   1.368   .     A
C1108  H1110   1.082   .     S
C1108  C1112   1.417   .     A
C1111  N1115   1.367   .     A
C1111  H1113   1.081   .     S
C1112  H1114   1.081   .     S
C1112  N1116   1.367   .     A
N1117  O1118   1.302   .     A
N1117  O1119   1.302   .     A
N1120  O1121   1.302   .     A
N1120  O1122   1.302   .     A
O1123  Cu1135  1.959   .     S
O1124  Cu1136  1.959   .     S
O1124  C996    1.291   1_655 S
O1125  Cu1136  1.959   .     S
O1125  C1127   1.290   .     A
O1126  C1128   1.290   .     A
O1126  Cu1135  1.959   .     S
C1127  C1172   1.447   .     S
C1127  O991    1.291   1_655 S
C1128  C1171   1.447   .     S
O1129  Cu1135  1.957   .     S
O1130  Cu1136  1.957   .     S
O1130  C1002   1.297   1_655 S
O1131  Cu1136  1.944   .     S
O1131  C1133   1.295   .     A
O1132  C1134   1.295   .     A
O1132  Cu1135  1.944   .     S
C1133  C1137   1.467   .     S
C1133  O997    1.297   1_655 S
C1134  C1138   1.466   .     S
Cu1135 N1181   2.014   .     S
Cu1136 N1182   2.014   .     S
Cu1136 Cu1003  2.680   1_655 S
C1137  C1143   1.399   .     A
C1137  C1141   1.399   .     A
C1138  C1142   1.398   .     A
C1138  C1144   1.398   .     A
C1139  C1147   1.404   .     A
C1139  C1141   1.391   .     A
C1139  H1029   1.083   1_655 S
C1140  C1142   1.392   .     A
C1140  C1148   1.404   .     A
C1140  H1162   1.084   .     S
C1141  H1028   1.083   1_655 S
C1143  H1158   1.075   .     S
C1143  C1145   1.406   .     A
C1144  H1157   1.075   .     S
C1144  C1146   1.405   .     A
C1145  C1149   1.427   .     A
C1145  C1147   1.418   .     A
C1146  C1150   1.427   .     A
C1146  C1148   1.418   .     A
C1147  C559    1.390   1_556 S
C1149  C1152   1.417   .     A
C1149  C556    1.425   1_556 S
C1150  C1151   1.417   .     A
C1151  C1153   1.386   .     A
C1151  H1163   1.076   .     S
C1152  C1154   1.386   .     A
C1152  H1164   1.076   .     S
C1153  H1155   1.084   .     S
C1154  H1156   1.084   .     S
C1154  C554    1.390   1_556 S
H1159  C1010   1.083   1_655 S
C1165  C1172   1.399   .     A
C1165  H1167   1.084   .     S
C1166  C1171   1.399   .     A
C1166  H1168   1.084   .     S
C1166  C774    1.390   1_565 S
C1169  N1183   1.438   .     S
C1169  C769    1.390   1_565 S
C1169  C1039   1.410   1_655 S
C1170  N1186   1.438   .     S
C1172  C1038   1.410   1_655 S
C1173  C1177   1.417   .     A
C1173  H1175   1.082   .     S
C1173  N1182   1.368   .     A
C1174  N1181   1.368   .     A
C1174  H1176   1.082   .     S
C1174  C1178   1.417   .     A
C1177  N1181   1.367   .     A
C1177  H1179   1.081   .     S
C1178  H1180   1.081   .     S
C1178  N1182   1.367   .     A
N1183  O1184   1.302   .     A
N1183  O1185   1.302   .     A
N1186  O1187   1.302   .     A
N1186  O1188   1.302   .     A
