data_str_m2_o1_o10_pcu_sym.178
_audit_creation_date              2020-01-03
_audit_creation_method            'Materials Studio'
_symmetry_space_group_name_H-M    'P1'
_symmetry_Int_Tables_number       1
_symmetry_cell_setting            triclinic
loop_
_symmetry_equiv_pos_as_xyz
  x,y,z
_cell_length_a                    26.2590
_cell_length_b                    32.5150
_cell_length_c                    28.5959
_cell_angle_alpha                 89.2573
_cell_angle_beta                  97.0991
_cell_angle_gamma                 90.9266
loop_
_atom_site_label
_atom_site_type_symbol
_atom_site_fract_x
_atom_site_fract_y
_atom_site_fract_z
_atom_site_U_iso_or_equiv
_atom_site_adp_type
_atom_site_occupancy
C1     C     0.16611   0.08739   0.16693   0.00000  Uiso   1.00
C2     C     0.16723   0.24594   0.16641   0.00000  Uiso   1.00
C3     C     0.06818   0.16556   0.15499   0.00000  Uiso   1.00
C4     C     0.26515   0.16778   0.17835   0.00000  Uiso   1.00
C5     C     0.01353   0.15929   0.15000   0.00000  Uiso   1.00
C6     C     0.31980   0.17404   0.18334   0.00000  Uiso   1.00
C7     C     0.18711   0.02273   0.13155   0.00000  Uiso   1.00
C8     C     0.14622   0.31060   0.20178   0.00000  Uiso   1.00
C9     C     0.18706   0.31320   0.12968   0.00000  Uiso   1.00
C10    C     0.14627   0.02014   0.20365   0.00000  Uiso   1.00
C11    C     0.16726   0.29059   0.16583   0.00000  Uiso   1.00
C12    C     0.16608   0.04274   0.16751   0.00000  Uiso   1.00
C13    C     0.13152   0.14375   0.02132   0.00000  Uiso   1.00
C14    C     0.20181   0.18959   0.31201   0.00000  Uiso   1.00
C15    C     0.13049   0.14411   0.30442   0.00000  Uiso   1.00
C16    C     0.20284   0.18922   0.02891   0.00000  Uiso   1.00
Cu17   Cu    0.16667   0.16667   0.21355   0.00000  Uiso   1.00
Cu18   Cu    0.16667   0.16666   0.11978   0.00000  Uiso   1.00
H19    H     0.20457   0.04061   0.10541   0.00000  Uiso   1.00
H20    H     0.12876   0.29272   0.22792   0.00000  Uiso   1.00
H21    H     0.10469   0.12496   0.03827   0.00000  Uiso   1.00
H22    H     0.22864   0.20837   0.29507   0.00000  Uiso   1.00
N23    N     0.16668   0.16668   0.28403   0.00000  Uiso   1.00
N24    N     0.16665   0.16666   0.04931   0.00000  Uiso   1.00
O25    O     0.16666   0.10655   0.20625   0.00000  Uiso   1.00
O26    O     0.16667   0.22678   0.12709   0.00000  Uiso   1.00
O27    O     0.16666   0.10654   0.12706   0.00000  Uiso   1.00
O28    O     0.16667   0.22679   0.20628   0.00000  Uiso   1.00
O29    O     0.09161   0.16667   0.19712   0.00000  Uiso   1.00
O30    O     0.24172   0.16666   0.13621   0.00000  Uiso   1.00
O31    O     0.09161   0.16666   0.11793   0.00000  Uiso   1.00
O32    O     0.24172   0.16667   0.21540   0.00000  Uiso   1.00
N33    N     0.32399   0.13336   0.11286   0.00000  Uiso   1.00
H34    H     0.00730   0.13621   0.08212   0.00000  Uiso   1.00
C35    C     0.31835   0.09069   0.12663   0.00000  Uiso   1.00
H36    H     0.29834   0.07321   0.09648   0.00000  Uiso   1.00
H37    H     0.29511   0.08787   0.15648   0.00000  Uiso   1.00
H38    H     0.02334   0.07700   0.13705   0.00000  Uiso   1.00
N39    N     0.00934   0.19998   0.22048   0.00000  Uiso   1.00
H40    H     0.32604   0.19713   0.25121   0.00000  Uiso   1.00
C41    C     0.01499   0.24265   0.20671   0.00000  Uiso   1.00
H42    H     0.03499   0.26012   0.23685   0.00000  Uiso   1.00
H43    H     0.31000   0.25633   0.19628   0.00000  Uiso   1.00
H44    H     0.03822   0.24546   0.17686   0.00000  Uiso   1.00
O45    O     0.21015   0.29296   0.09553   0.00000  Uiso   1.00
C46    C     0.18998   0.30656   0.04997   0.00000  Uiso   1.00
H47    H     0.20939   0.00219   0.04051   0.00000  Uiso   1.00
H48    H     0.14755   0.31036   0.04636   0.00000  Uiso   1.00
H49    H     0.19786   0.28322   0.02401   0.00000  Uiso   1.00
O50    O     0.12318   0.04037   0.23780   0.00000  Uiso   1.00
C51    C     0.14335   0.02677   0.28336   0.00000  Uiso   1.00
H52    H     0.13547   0.05011   0.30932   0.00000  Uiso   1.00
H53    H     0.18578   0.02297   0.28698   0.00000  Uiso   1.00
H54    H     0.12394   0.33114   0.29283   0.00000  Uiso   1.00
O55    O     0.09593   0.12032   0.27497   0.00000  Uiso   1.00
C56    C     0.04757   0.11589   0.29141   0.00000  Uiso   1.00
H57    H     0.03460   0.14498   0.30598   0.00000  Uiso   1.00
H58    H     0.04822   0.09048   0.31780   0.00000  Uiso   1.00
H59    H     0.01883   0.10731   0.26122   0.00000  Uiso   1.00
O60    O     0.23740   0.21301   0.05836   0.00000  Uiso   1.00
C61    C     0.28576   0.21744   0.04193   0.00000  Uiso   1.00
H62    H     0.28511   0.24285   0.01553   0.00000  Uiso   1.00
H63    H     0.29874   0.18835   0.02735   0.00000  Uiso   1.00
H64    H     0.31450   0.22603   0.07211   0.00000  Uiso   1.00
C65    C     0.49944   0.08739   0.16693   0.00000  Uiso   1.00
C66    C     0.50056   0.24594   0.16641   0.00000  Uiso   1.00
C67    C     0.40151   0.16556   0.15499   0.00000  Uiso   1.00
C68    C     0.59849   0.16778   0.17835   0.00000  Uiso   1.00
C69    C     0.34686   0.15929   0.15000   0.00000  Uiso   1.00
C70    C     0.65314   0.17404   0.18334   0.00000  Uiso   1.00
C71    C     0.52044   0.02273   0.13155   0.00000  Uiso   1.00
C72    C     0.47956   0.31060   0.20178   0.00000  Uiso   1.00
C73    C     0.52040   0.31320   0.12968   0.00000  Uiso   1.00
C74    C     0.47960   0.02014   0.20365   0.00000  Uiso   1.00
C75    C     0.50059   0.29059   0.16583   0.00000  Uiso   1.00
C76    C     0.49941   0.04274   0.16751   0.00000  Uiso   1.00
C77    C     0.46485   0.14375   0.02132   0.00000  Uiso   1.00
C78    C     0.53515   0.18959   0.31201   0.00000  Uiso   1.00
C79    C     0.46383   0.14411   0.30442   0.00000  Uiso   1.00
C80    C     0.53618   0.18922   0.02891   0.00000  Uiso   1.00
Cu81   Cu    0.50000   0.16667   0.21355   0.00000  Uiso   1.00
Cu82   Cu    0.50000   0.16666   0.11978   0.00000  Uiso   1.00
H83    H     0.53790   0.04061   0.10541   0.00000  Uiso   1.00
H84    H     0.46210   0.29272   0.22792   0.00000  Uiso   1.00
H85    H     0.43803   0.12496   0.03827   0.00000  Uiso   1.00
H86    H     0.56197   0.20837   0.29507   0.00000  Uiso   1.00
N87    N     0.50001   0.16668   0.28403   0.00000  Uiso   1.00
N88    N     0.49999   0.16666   0.04931   0.00000  Uiso   1.00
O89    O     0.50000   0.10655   0.20625   0.00000  Uiso   1.00
O90    O     0.50000   0.22678   0.12709   0.00000  Uiso   1.00
O91    O     0.50000   0.10654   0.12706   0.00000  Uiso   1.00
O92    O     0.50000   0.22679   0.20628   0.00000  Uiso   1.00
O93    O     0.42495   0.16667   0.19712   0.00000  Uiso   1.00
O94    O     0.57505   0.16666   0.13621   0.00000  Uiso   1.00
O95    O     0.42494   0.16666   0.11793   0.00000  Uiso   1.00
O96    O     0.57506   0.16667   0.21540   0.00000  Uiso   1.00
N97    N     0.65732   0.13336   0.11286   0.00000  Uiso   1.00
H98    H     0.34063   0.13621   0.08212   0.00000  Uiso   1.00
C99    C     0.65168   0.09069   0.12663   0.00000  Uiso   1.00
H100   H     0.63167   0.07321   0.09648   0.00000  Uiso   1.00
H101   H     0.62845   0.08787   0.15648   0.00000  Uiso   1.00
H102   H     0.35667   0.07700   0.13705   0.00000  Uiso   1.00
N103   N     0.34268   0.19998   0.22048   0.00000  Uiso   1.00
H104   H     0.65937   0.19713   0.25121   0.00000  Uiso   1.00
C105   C     0.34832   0.24265   0.20671   0.00000  Uiso   1.00
H106   H     0.36833   0.26012   0.23685   0.00000  Uiso   1.00
H107   H     0.64333   0.25633   0.19628   0.00000  Uiso   1.00
H108   H     0.37155   0.24546   0.17686   0.00000  Uiso   1.00
O109   O     0.54348   0.29296   0.09553   0.00000  Uiso   1.00
C110   C     0.52331   0.30656   0.04997   0.00000  Uiso   1.00
H111   H     0.54272   0.00219   0.04051   0.00000  Uiso   1.00
H112   H     0.48088   0.31036   0.04636   0.00000  Uiso   1.00
H113   H     0.53120   0.28322   0.02401   0.00000  Uiso   1.00
O114   O     0.45652   0.04037   0.23780   0.00000  Uiso   1.00
C115   C     0.47669   0.02677   0.28336   0.00000  Uiso   1.00
H116   H     0.46880   0.05011   0.30932   0.00000  Uiso   1.00
H117   H     0.51911   0.02297   0.28698   0.00000  Uiso   1.00
H118   H     0.45727   0.33114   0.29283   0.00000  Uiso   1.00
O119   O     0.42927   0.12032   0.27497   0.00000  Uiso   1.00
C120   C     0.38091   0.11589   0.29141   0.00000  Uiso   1.00
H121   H     0.36793   0.14498   0.30598   0.00000  Uiso   1.00
H122   H     0.38155   0.09048   0.31780   0.00000  Uiso   1.00
H123   H     0.35217   0.10731   0.26122   0.00000  Uiso   1.00
O124   O     0.57074   0.21301   0.05836   0.00000  Uiso   1.00
C125   C     0.61909   0.21744   0.04193   0.00000  Uiso   1.00
H126   H     0.61844   0.24285   0.01553   0.00000  Uiso   1.00
H127   H     0.63207   0.18835   0.02735   0.00000  Uiso   1.00
H128   H     0.64783   0.22603   0.07211   0.00000  Uiso   1.00
C129   C     0.83277   0.08739   0.16693   0.00000  Uiso   1.00
C130   C     0.83389   0.24594   0.16641   0.00000  Uiso   1.00
C131   C     0.73485   0.16556   0.15499   0.00000  Uiso   1.00
C132   C     0.93182   0.16778   0.17835   0.00000  Uiso   1.00
C133   C     0.68020   0.15929   0.15000   0.00000  Uiso   1.00
C134   C     0.98647   0.17404   0.18334   0.00000  Uiso   1.00
C135   C     0.85378   0.02273   0.13155   0.00000  Uiso   1.00
C136   C     0.81289   0.31060   0.20178   0.00000  Uiso   1.00
C137   C     0.85373   0.31320   0.12968   0.00000  Uiso   1.00
C138   C     0.81294   0.02014   0.20365   0.00000  Uiso   1.00
C139   C     0.83392   0.29059   0.16583   0.00000  Uiso   1.00
C140   C     0.83274   0.04274   0.16751   0.00000  Uiso   1.00
C141   C     0.79819   0.14375   0.02132   0.00000  Uiso   1.00
C142   C     0.86848   0.18959   0.31201   0.00000  Uiso   1.00
C143   C     0.79716   0.14411   0.30442   0.00000  Uiso   1.00
C144   C     0.86951   0.18922   0.02891   0.00000  Uiso   1.00
Cu145  Cu    0.83333   0.16667   0.21355   0.00000  Uiso   1.00
Cu146  Cu    0.83333   0.16666   0.11978   0.00000  Uiso   1.00
H147   H     0.87124   0.04061   0.10541   0.00000  Uiso   1.00
H148   H     0.79543   0.29272   0.22792   0.00000  Uiso   1.00
H149   H     0.77136   0.12496   0.03827   0.00000  Uiso   1.00
H150   H     0.89531   0.20837   0.29507   0.00000  Uiso   1.00
N151   N     0.83335   0.16668   0.28403   0.00000  Uiso   1.00
N152   N     0.83332   0.16666   0.04931   0.00000  Uiso   1.00
O153   O     0.83333   0.10655   0.20625   0.00000  Uiso   1.00
O154   O     0.83334   0.22678   0.12709   0.00000  Uiso   1.00
O155   O     0.83333   0.10654   0.12706   0.00000  Uiso   1.00
O156   O     0.83334   0.22679   0.20628   0.00000  Uiso   1.00
O157   O     0.75828   0.16667   0.19712   0.00000  Uiso   1.00
O158   O     0.90839   0.16666   0.13621   0.00000  Uiso   1.00
O159   O     0.75828   0.16666   0.11793   0.00000  Uiso   1.00
O160   O     0.90839   0.16667   0.21540   0.00000  Uiso   1.00
N161   N     0.99066   0.13336   0.11286   0.00000  Uiso   1.00
H162   H     0.67396   0.13621   0.08212   0.00000  Uiso   1.00
C163   C     0.98501   0.09069   0.12663   0.00000  Uiso   1.00
H164   H     0.96501   0.07321   0.09648   0.00000  Uiso   1.00
H165   H     0.96178   0.08787   0.15648   0.00000  Uiso   1.00
H166   H     0.69000   0.07700   0.13705   0.00000  Uiso   1.00
N167   N     0.67601   0.19998   0.22048   0.00000  Uiso   1.00
H168   H     0.99270   0.19713   0.25121   0.00000  Uiso   1.00
C169   C     0.68165   0.24265   0.20671   0.00000  Uiso   1.00
H170   H     0.70166   0.26012   0.23685   0.00000  Uiso   1.00
H171   H     0.97666   0.25633   0.19628   0.00000  Uiso   1.00
H172   H     0.70489   0.24546   0.17686   0.00000  Uiso   1.00
O173   O     0.87682   0.29296   0.09553   0.00000  Uiso   1.00
C174   C     0.85664   0.30656   0.04997   0.00000  Uiso   1.00
H175   H     0.87606   0.00219   0.04051   0.00000  Uiso   1.00
H176   H     0.81422   0.31036   0.04636   0.00000  Uiso   1.00
H177   H     0.86453   0.28322   0.02401   0.00000  Uiso   1.00
O178   O     0.78985   0.04037   0.23780   0.00000  Uiso   1.00
C179   C     0.81002   0.02677   0.28336   0.00000  Uiso   1.00
H180   H     0.80214   0.05011   0.30932   0.00000  Uiso   1.00
H181   H     0.85245   0.02297   0.28698   0.00000  Uiso   1.00
H182   H     0.79061   0.33114   0.29283   0.00000  Uiso   1.00
O183   O     0.76260   0.12032   0.27497   0.00000  Uiso   1.00
C184   C     0.71424   0.11589   0.29141   0.00000  Uiso   1.00
H185   H     0.70126   0.14498   0.30598   0.00000  Uiso   1.00
H186   H     0.71489   0.09048   0.31780   0.00000  Uiso   1.00
H187   H     0.68550   0.10731   0.26122   0.00000  Uiso   1.00
O188   O     0.90407   0.21301   0.05836   0.00000  Uiso   1.00
C189   C     0.95243   0.21744   0.04193   0.00000  Uiso   1.00
H190   H     0.95178   0.24285   0.01553   0.00000  Uiso   1.00
H191   H     0.96540   0.18835   0.02735   0.00000  Uiso   1.00
H192   H     0.98117   0.22603   0.07211   0.00000  Uiso   1.00
C193   C     0.16611   0.42072   0.16693   0.00000  Uiso   1.00
C194   C     0.16723   0.57928   0.16641   0.00000  Uiso   1.00
C195   C     0.06818   0.49889   0.15499   0.00000  Uiso   1.00
C196   C     0.26515   0.50111   0.17835   0.00000  Uiso   1.00
C197   C     0.01353   0.49263   0.15000   0.00000  Uiso   1.00
C198   C     0.31980   0.50737   0.18334   0.00000  Uiso   1.00
C199   C     0.18711   0.35607   0.13155   0.00000  Uiso   1.00
C200   C     0.14622   0.64393   0.20178   0.00000  Uiso   1.00
C201   C     0.18706   0.64653   0.12968   0.00000  Uiso   1.00
C202   C     0.14627   0.35347   0.20365   0.00000  Uiso   1.00
C203   C     0.16726   0.62392   0.16583   0.00000  Uiso   1.00
C204   C     0.16608   0.37608   0.16751   0.00000  Uiso   1.00
C205   C     0.13152   0.47708   0.02132   0.00000  Uiso   1.00
C206   C     0.20181   0.52292   0.31201   0.00000  Uiso   1.00
C207   C     0.13049   0.47745   0.30442   0.00000  Uiso   1.00
C208   C     0.20284   0.52255   0.02891   0.00000  Uiso   1.00
Cu209  Cu    0.16667   0.50001   0.21355   0.00000  Uiso   1.00
Cu210  Cu    0.16667   0.49999   0.11978   0.00000  Uiso   1.00
H211   H     0.20457   0.37395   0.10541   0.00000  Uiso   1.00
H212   H     0.12876   0.62605   0.22792   0.00000  Uiso   1.00
H213   H     0.10469   0.45830   0.03827   0.00000  Uiso   1.00
H214   H     0.22864   0.54170   0.29507   0.00000  Uiso   1.00
N215   N     0.16668   0.50001   0.28403   0.00000  Uiso   1.00
N216   N     0.16665   0.49999   0.04931   0.00000  Uiso   1.00
O217   O     0.16666   0.43989   0.20625   0.00000  Uiso   1.00
O218   O     0.16667   0.56011   0.12709   0.00000  Uiso   1.00
O219   O     0.16666   0.43988   0.12706   0.00000  Uiso   1.00
O220   O     0.16667   0.56012   0.20628   0.00000  Uiso   1.00
O221   O     0.09161   0.50000   0.19712   0.00000  Uiso   1.00
O222   O     0.24172   0.50000   0.13621   0.00000  Uiso   1.00
O223   O     0.09161   0.49999   0.11793   0.00000  Uiso   1.00
O224   O     0.24172   0.50001   0.21540   0.00000  Uiso   1.00
N225   N     0.32399   0.46669   0.11286   0.00000  Uiso   1.00
H226   H     0.00730   0.46954   0.08212   0.00000  Uiso   1.00
C227   C     0.31835   0.42402   0.12663   0.00000  Uiso   1.00
H228   H     0.29834   0.40655   0.09648   0.00000  Uiso   1.00
H229   H     0.29511   0.42120   0.15648   0.00000  Uiso   1.00
H230   H     0.02334   0.41034   0.13705   0.00000  Uiso   1.00
N231   N     0.00934   0.53331   0.22048   0.00000  Uiso   1.00
H232   H     0.32604   0.53046   0.25121   0.00000  Uiso   1.00
C233   C     0.01499   0.57598   0.20671   0.00000  Uiso   1.00
H234   H     0.03499   0.59345   0.23685   0.00000  Uiso   1.00
H235   H     0.31000   0.58966   0.19628   0.00000  Uiso   1.00
H236   H     0.03822   0.57880   0.17686   0.00000  Uiso   1.00
O237   O     0.21015   0.62629   0.09553   0.00000  Uiso   1.00
C238   C     0.18998   0.63990   0.04997   0.00000  Uiso   1.00
H239   H     0.20939   0.33553   0.04051   0.00000  Uiso   1.00
H240   H     0.14755   0.64369   0.04636   0.00000  Uiso   1.00
H241   H     0.19786   0.61656   0.02401   0.00000  Uiso   1.00
O242   O     0.12318   0.37371   0.23780   0.00000  Uiso   1.00
C243   C     0.14335   0.36010   0.28336   0.00000  Uiso   1.00
H244   H     0.13547   0.38344   0.30932   0.00000  Uiso   1.00
H245   H     0.18578   0.35630   0.28698   0.00000  Uiso   1.00
H246   H     0.12394   0.66447   0.29283   0.00000  Uiso   1.00
O247   O     0.09593   0.45366   0.27497   0.00000  Uiso   1.00
C248   C     0.04757   0.44923   0.29141   0.00000  Uiso   1.00
H249   H     0.03460   0.47832   0.30598   0.00000  Uiso   1.00
H250   H     0.04822   0.42382   0.31780   0.00000  Uiso   1.00
H251   H     0.01883   0.44064   0.26122   0.00000  Uiso   1.00
O252   O     0.23740   0.54634   0.05836   0.00000  Uiso   1.00
C253   C     0.28576   0.55078   0.04193   0.00000  Uiso   1.00
H254   H     0.28511   0.57619   0.01553   0.00000  Uiso   1.00
H255   H     0.29874   0.52169   0.02735   0.00000  Uiso   1.00
H256   H     0.31450   0.55936   0.07211   0.00000  Uiso   1.00
C257   C     0.49944   0.42072   0.16693   0.00000  Uiso   1.00
C258   C     0.50056   0.57928   0.16641   0.00000  Uiso   1.00
C259   C     0.40151   0.49889   0.15499   0.00000  Uiso   1.00
C260   C     0.59849   0.50111   0.17835   0.00000  Uiso   1.00
C261   C     0.34686   0.49263   0.15000   0.00000  Uiso   1.00
C262   C     0.65314   0.50737   0.18334   0.00000  Uiso   1.00
C263   C     0.52044   0.35607   0.13155   0.00000  Uiso   1.00
C264   C     0.47956   0.64393   0.20178   0.00000  Uiso   1.00
C265   C     0.52040   0.64653   0.12968   0.00000  Uiso   1.00
C266   C     0.47960   0.35347   0.20365   0.00000  Uiso   1.00
C267   C     0.50059   0.62392   0.16583   0.00000  Uiso   1.00
C268   C     0.49941   0.37608   0.16751   0.00000  Uiso   1.00
C269   C     0.46485   0.47708   0.02132   0.00000  Uiso   1.00
C270   C     0.53515   0.52292   0.31201   0.00000  Uiso   1.00
C271   C     0.46383   0.47745   0.30442   0.00000  Uiso   1.00
C272   C     0.53618   0.52255   0.02891   0.00000  Uiso   1.00
Cu273  Cu    0.50000   0.50001   0.21355   0.00000  Uiso   1.00
Cu274  Cu    0.50000   0.49999   0.11978   0.00000  Uiso   1.00
H275   H     0.53790   0.37395   0.10541   0.00000  Uiso   1.00
H276   H     0.46210   0.62605   0.22792   0.00000  Uiso   1.00
H277   H     0.43803   0.45830   0.03827   0.00000  Uiso   1.00
H278   H     0.56197   0.54170   0.29507   0.00000  Uiso   1.00
N279   N     0.50001   0.50001   0.28403   0.00000  Uiso   1.00
N280   N     0.49999   0.49999   0.04931   0.00000  Uiso   1.00
O281   O     0.50000   0.43989   0.20625   0.00000  Uiso   1.00
O282   O     0.50000   0.56011   0.12709   0.00000  Uiso   1.00
O283   O     0.50000   0.43988   0.12706   0.00000  Uiso   1.00
O284   O     0.50000   0.56012   0.20628   0.00000  Uiso   1.00
O285   O     0.42495   0.50000   0.19712   0.00000  Uiso   1.00
O286   O     0.57505   0.50000   0.13621   0.00000  Uiso   1.00
O287   O     0.42494   0.49999   0.11793   0.00000  Uiso   1.00
O288   O     0.57506   0.50001   0.21540   0.00000  Uiso   1.00
N289   N     0.65732   0.46669   0.11286   0.00000  Uiso   1.00
H290   H     0.34063   0.46954   0.08212   0.00000  Uiso   1.00
C291   C     0.65168   0.42402   0.12663   0.00000  Uiso   1.00
H292   H     0.63167   0.40655   0.09648   0.00000  Uiso   1.00
H293   H     0.62845   0.42120   0.15648   0.00000  Uiso   1.00
H294   H     0.35667   0.41034   0.13705   0.00000  Uiso   1.00
N295   N     0.34268   0.53331   0.22048   0.00000  Uiso   1.00
H296   H     0.65937   0.53046   0.25121   0.00000  Uiso   1.00
C297   C     0.34832   0.57598   0.20671   0.00000  Uiso   1.00
H298   H     0.36833   0.59345   0.23685   0.00000  Uiso   1.00
H299   H     0.64333   0.58966   0.19628   0.00000  Uiso   1.00
H300   H     0.37155   0.57880   0.17686   0.00000  Uiso   1.00
O301   O     0.54348   0.62629   0.09553   0.00000  Uiso   1.00
C302   C     0.52331   0.63990   0.04997   0.00000  Uiso   1.00
H303   H     0.54272   0.33553   0.04051   0.00000  Uiso   1.00
H304   H     0.48088   0.64369   0.04636   0.00000  Uiso   1.00
H305   H     0.53120   0.61656   0.02401   0.00000  Uiso   1.00
O306   O     0.45652   0.37371   0.23780   0.00000  Uiso   1.00
C307   C     0.47669   0.36010   0.28336   0.00000  Uiso   1.00
H308   H     0.46880   0.38344   0.30932   0.00000  Uiso   1.00
H309   H     0.51911   0.35630   0.28698   0.00000  Uiso   1.00
H310   H     0.45727   0.66447   0.29283   0.00000  Uiso   1.00
O311   O     0.42927   0.45366   0.27497   0.00000  Uiso   1.00
C312   C     0.38091   0.44923   0.29141   0.00000  Uiso   1.00
H313   H     0.36793   0.47832   0.30598   0.00000  Uiso   1.00
H314   H     0.38155   0.42382   0.31780   0.00000  Uiso   1.00
H315   H     0.35217   0.44064   0.26122   0.00000  Uiso   1.00
O316   O     0.57074   0.54634   0.05836   0.00000  Uiso   1.00
C317   C     0.61909   0.55078   0.04193   0.00000  Uiso   1.00
H318   H     0.61844   0.57619   0.01553   0.00000  Uiso   1.00
H319   H     0.63207   0.52169   0.02735   0.00000  Uiso   1.00
H320   H     0.64783   0.55936   0.07211   0.00000  Uiso   1.00
C321   C     0.83277   0.42072   0.16693   0.00000  Uiso   1.00
C322   C     0.83389   0.57928   0.16641   0.00000  Uiso   1.00
C323   C     0.73485   0.49889   0.15499   0.00000  Uiso   1.00
C324   C     0.93182   0.50111   0.17835   0.00000  Uiso   1.00
C325   C     0.68020   0.49263   0.15000   0.00000  Uiso   1.00
C326   C     0.98647   0.50737   0.18334   0.00000  Uiso   1.00
C327   C     0.85378   0.35607   0.13155   0.00000  Uiso   1.00
C328   C     0.81289   0.64393   0.20178   0.00000  Uiso   1.00
C329   C     0.85373   0.64653   0.12968   0.00000  Uiso   1.00
C330   C     0.81294   0.35347   0.20365   0.00000  Uiso   1.00
C331   C     0.83392   0.62392   0.16583   0.00000  Uiso   1.00
C332   C     0.83274   0.37608   0.16751   0.00000  Uiso   1.00
C333   C     0.79819   0.47708   0.02132   0.00000  Uiso   1.00
C334   C     0.86848   0.52292   0.31201   0.00000  Uiso   1.00
C335   C     0.79716   0.47745   0.30442   0.00000  Uiso   1.00
C336   C     0.86951   0.52255   0.02891   0.00000  Uiso   1.00
Cu337  Cu    0.83333   0.50001   0.21355   0.00000  Uiso   1.00
Cu338  Cu    0.83333   0.49999   0.11978   0.00000  Uiso   1.00
H339   H     0.87124   0.37395   0.10541   0.00000  Uiso   1.00
H340   H     0.79543   0.62605   0.22792   0.00000  Uiso   1.00
H341   H     0.77136   0.45830   0.03827   0.00000  Uiso   1.00
H342   H     0.89531   0.54170   0.29507   0.00000  Uiso   1.00
N343   N     0.83335   0.50001   0.28403   0.00000  Uiso   1.00
N344   N     0.83332   0.49999   0.04931   0.00000  Uiso   1.00
O345   O     0.83333   0.43989   0.20625   0.00000  Uiso   1.00
O346   O     0.83334   0.56011   0.12709   0.00000  Uiso   1.00
O347   O     0.83333   0.43988   0.12706   0.00000  Uiso   1.00
O348   O     0.83334   0.56012   0.20628   0.00000  Uiso   1.00
O349   O     0.75828   0.50000   0.19712   0.00000  Uiso   1.00
O350   O     0.90839   0.50000   0.13621   0.00000  Uiso   1.00
O351   O     0.75828   0.49999   0.11793   0.00000  Uiso   1.00
O352   O     0.90839   0.50001   0.21540   0.00000  Uiso   1.00
N353   N     0.99066   0.46669   0.11286   0.00000  Uiso   1.00
H354   H     0.67396   0.46954   0.08212   0.00000  Uiso   1.00
C355   C     0.98501   0.42402   0.12663   0.00000  Uiso   1.00
H356   H     0.96501   0.40655   0.09648   0.00000  Uiso   1.00
H357   H     0.96178   0.42120   0.15648   0.00000  Uiso   1.00
H358   H     0.69000   0.41034   0.13705   0.00000  Uiso   1.00
N359   N     0.67601   0.53331   0.22048   0.00000  Uiso   1.00
H360   H     0.99270   0.53046   0.25121   0.00000  Uiso   1.00
C361   C     0.68165   0.57598   0.20671   0.00000  Uiso   1.00
H362   H     0.70166   0.59345   0.23685   0.00000  Uiso   1.00
H363   H     0.97666   0.58966   0.19628   0.00000  Uiso   1.00
H364   H     0.70489   0.57880   0.17686   0.00000  Uiso   1.00
O365   O     0.87682   0.62629   0.09553   0.00000  Uiso   1.00
C366   C     0.85664   0.63990   0.04997   0.00000  Uiso   1.00
H367   H     0.87606   0.33553   0.04051   0.00000  Uiso   1.00
H368   H     0.81422   0.64369   0.04636   0.00000  Uiso   1.00
H369   H     0.86453   0.61656   0.02401   0.00000  Uiso   1.00
O370   O     0.78985   0.37371   0.23780   0.00000  Uiso   1.00
C371   C     0.81002   0.36010   0.28336   0.00000  Uiso   1.00
H372   H     0.80214   0.38344   0.30932   0.00000  Uiso   1.00
H373   H     0.85245   0.35630   0.28698   0.00000  Uiso   1.00
H374   H     0.79061   0.66447   0.29283   0.00000  Uiso   1.00
O375   O     0.76260   0.45366   0.27497   0.00000  Uiso   1.00
C376   C     0.71424   0.44923   0.29141   0.00000  Uiso   1.00
H377   H     0.70126   0.47832   0.30598   0.00000  Uiso   1.00
H378   H     0.71489   0.42382   0.31780   0.00000  Uiso   1.00
H379   H     0.68550   0.44064   0.26122   0.00000  Uiso   1.00
O380   O     0.90407   0.54634   0.05836   0.00000  Uiso   1.00
C381   C     0.95243   0.55078   0.04193   0.00000  Uiso   1.00
H382   H     0.95178   0.57619   0.01553   0.00000  Uiso   1.00
H383   H     0.96540   0.52169   0.02735   0.00000  Uiso   1.00
H384   H     0.98117   0.55936   0.07211   0.00000  Uiso   1.00
C385   C     0.16611   0.75406   0.16693   0.00000  Uiso   1.00
C386   C     0.16723   0.91261   0.16641   0.00000  Uiso   1.00
C387   C     0.06818   0.83222   0.15499   0.00000  Uiso   1.00
C388   C     0.26515   0.83444   0.17835   0.00000  Uiso   1.00
C389   C     0.01353   0.82596   0.15000   0.00000  Uiso   1.00
C390   C     0.31980   0.84071   0.18334   0.00000  Uiso   1.00
C391   C     0.18711   0.68940   0.13155   0.00000  Uiso   1.00
C392   C     0.14622   0.97727   0.20178   0.00000  Uiso   1.00
C393   C     0.18706   0.97986   0.12968   0.00000  Uiso   1.00
C394   C     0.14627   0.68680   0.20365   0.00000  Uiso   1.00
C395   C     0.16726   0.95726   0.16583   0.00000  Uiso   1.00
C396   C     0.16608   0.70941   0.16751   0.00000  Uiso   1.00
C397   C     0.13152   0.81041   0.02132   0.00000  Uiso   1.00
C398   C     0.20181   0.85625   0.31201   0.00000  Uiso   1.00
C399   C     0.13049   0.81078   0.30442   0.00000  Uiso   1.00
C400   C     0.20284   0.85589   0.02891   0.00000  Uiso   1.00
Cu401  Cu    0.16667   0.83334   0.21355   0.00000  Uiso   1.00
Cu402  Cu    0.16667   0.83333   0.11978   0.00000  Uiso   1.00
H403   H     0.20457   0.70728   0.10541   0.00000  Uiso   1.00
H404   H     0.12876   0.95939   0.22792   0.00000  Uiso   1.00
H405   H     0.10469   0.79163   0.03827   0.00000  Uiso   1.00
H406   H     0.22864   0.87503   0.29507   0.00000  Uiso   1.00
N407   N     0.16668   0.83334   0.28403   0.00000  Uiso   1.00
N408   N     0.16665   0.83332   0.04931   0.00000  Uiso   1.00
O409   O     0.16666   0.77322   0.20625   0.00000  Uiso   1.00
O410   O     0.16667   0.89345   0.12709   0.00000  Uiso   1.00
O411   O     0.16666   0.77321   0.12706   0.00000  Uiso   1.00
O412   O     0.16667   0.89346   0.20628   0.00000  Uiso   1.00
O413   O     0.09161   0.83334   0.19712   0.00000  Uiso   1.00
O414   O     0.24172   0.83333   0.13621   0.00000  Uiso   1.00
O415   O     0.09161   0.83333   0.11793   0.00000  Uiso   1.00
O416   O     0.24172   0.83334   0.21540   0.00000  Uiso   1.00
N417   N     0.32399   0.80002   0.11286   0.00000  Uiso   1.00
H418   H     0.00730   0.80287   0.08212   0.00000  Uiso   1.00
C419   C     0.31835   0.75735   0.12663   0.00000  Uiso   1.00
H420   H     0.29834   0.73988   0.09648   0.00000  Uiso   1.00
H421   H     0.29511   0.75454   0.15648   0.00000  Uiso   1.00
H422   H     0.02334   0.74367   0.13705   0.00000  Uiso   1.00
N423   N     0.00934   0.86664   0.22048   0.00000  Uiso   1.00
H424   H     0.32604   0.86379   0.25121   0.00000  Uiso   1.00
C425   C     0.01499   0.90931   0.20671   0.00000  Uiso   1.00
H426   H     0.03499   0.92679   0.23685   0.00000  Uiso   1.00
H427   H     0.31000   0.92300   0.19628   0.00000  Uiso   1.00
H428   H     0.03822   0.91213   0.17686   0.00000  Uiso   1.00
O429   O     0.21015   0.95963   0.09553   0.00000  Uiso   1.00
C430   C     0.18998   0.97323   0.04997   0.00000  Uiso   1.00
H431   H     0.20939   0.66886   0.04051   0.00000  Uiso   1.00
H432   H     0.14755   0.97703   0.04636   0.00000  Uiso   1.00
H433   H     0.19786   0.94989   0.02401   0.00000  Uiso   1.00
O434   O     0.12318   0.70704   0.23780   0.00000  Uiso   1.00
C435   C     0.14335   0.69344   0.28336   0.00000  Uiso   1.00
H436   H     0.13547   0.71678   0.30932   0.00000  Uiso   1.00
H437   H     0.18578   0.68964   0.28698   0.00000  Uiso   1.00
H438   H     0.12394   0.99781   0.29283   0.00000  Uiso   1.00
O439   O     0.09593   0.78699   0.27497   0.00000  Uiso   1.00
C440   C     0.04757   0.78256   0.29141   0.00000  Uiso   1.00
H441   H     0.03460   0.81165   0.30598   0.00000  Uiso   1.00
H442   H     0.04822   0.75715   0.31780   0.00000  Uiso   1.00
H443   H     0.01883   0.77397   0.26122   0.00000  Uiso   1.00
O444   O     0.23740   0.87967   0.05836   0.00000  Uiso   1.00
C445   C     0.28576   0.88411   0.04193   0.00000  Uiso   1.00
H446   H     0.28511   0.90952   0.01553   0.00000  Uiso   1.00
H447   H     0.29874   0.85502   0.02735   0.00000  Uiso   1.00
H448   H     0.31450   0.89269   0.07211   0.00000  Uiso   1.00
C449   C     0.49944   0.75406   0.16693   0.00000  Uiso   1.00
C450   C     0.50056   0.91261   0.16641   0.00000  Uiso   1.00
C451   C     0.40151   0.83222   0.15499   0.00000  Uiso   1.00
C452   C     0.59849   0.83444   0.17835   0.00000  Uiso   1.00
C453   C     0.34686   0.82596   0.15000   0.00000  Uiso   1.00
C454   C     0.65314   0.84071   0.18334   0.00000  Uiso   1.00
C455   C     0.52044   0.68940   0.13155   0.00000  Uiso   1.00
C456   C     0.47956   0.97727   0.20178   0.00000  Uiso   1.00
C457   C     0.52040   0.97986   0.12968   0.00000  Uiso   1.00
C458   C     0.47960   0.68680   0.20365   0.00000  Uiso   1.00
C459   C     0.50059   0.95726   0.16583   0.00000  Uiso   1.00
C460   C     0.49941   0.70941   0.16751   0.00000  Uiso   1.00
C461   C     0.46485   0.81041   0.02132   0.00000  Uiso   1.00
C462   C     0.53515   0.85625   0.31201   0.00000  Uiso   1.00
C463   C     0.46383   0.81078   0.30442   0.00000  Uiso   1.00
C464   C     0.53618   0.85589   0.02891   0.00000  Uiso   1.00
Cu465  Cu    0.50000   0.83334   0.21355   0.00000  Uiso   1.00
Cu466  Cu    0.50000   0.83333   0.11978   0.00000  Uiso   1.00
H467   H     0.53790   0.70728   0.10541   0.00000  Uiso   1.00
H468   H     0.46210   0.95939   0.22792   0.00000  Uiso   1.00
H469   H     0.43803   0.79163   0.03827   0.00000  Uiso   1.00
H470   H     0.56197   0.87503   0.29507   0.00000  Uiso   1.00
N471   N     0.50001   0.83334   0.28403   0.00000  Uiso   1.00
N472   N     0.49999   0.83332   0.04931   0.00000  Uiso   1.00
O473   O     0.50000   0.77322   0.20625   0.00000  Uiso   1.00
O474   O     0.50000   0.89345   0.12709   0.00000  Uiso   1.00
O475   O     0.50000   0.77321   0.12706   0.00000  Uiso   1.00
O476   O     0.50000   0.89346   0.20628   0.00000  Uiso   1.00
O477   O     0.42495   0.83334   0.19712   0.00000  Uiso   1.00
O478   O     0.57505   0.83333   0.13621   0.00000  Uiso   1.00
O479   O     0.42494   0.83333   0.11793   0.00000  Uiso   1.00
O480   O     0.57506   0.83334   0.21540   0.00000  Uiso   1.00
N481   N     0.65732   0.80002   0.11286   0.00000  Uiso   1.00
H482   H     0.34063   0.80287   0.08212   0.00000  Uiso   1.00
C483   C     0.65168   0.75735   0.12663   0.00000  Uiso   1.00
H484   H     0.63167   0.73988   0.09648   0.00000  Uiso   1.00
H485   H     0.62845   0.75454   0.15648   0.00000  Uiso   1.00
H486   H     0.35667   0.74367   0.13705   0.00000  Uiso   1.00
N487   N     0.34268   0.86664   0.22048   0.00000  Uiso   1.00
H488   H     0.65937   0.86379   0.25121   0.00000  Uiso   1.00
C489   C     0.34832   0.90931   0.20671   0.00000  Uiso   1.00
H490   H     0.36833   0.92679   0.23685   0.00000  Uiso   1.00
H491   H     0.64333   0.92300   0.19628   0.00000  Uiso   1.00
H492   H     0.37155   0.91213   0.17686   0.00000  Uiso   1.00
O493   O     0.54348   0.95963   0.09553   0.00000  Uiso   1.00
C494   C     0.52331   0.97323   0.04997   0.00000  Uiso   1.00
H495   H     0.54272   0.66886   0.04051   0.00000  Uiso   1.00
H496   H     0.48088   0.97703   0.04636   0.00000  Uiso   1.00
H497   H     0.53120   0.94989   0.02401   0.00000  Uiso   1.00
O498   O     0.45652   0.70704   0.23780   0.00000  Uiso   1.00
C499   C     0.47669   0.69344   0.28336   0.00000  Uiso   1.00
H500   H     0.46880   0.71678   0.30932   0.00000  Uiso   1.00
H501   H     0.51911   0.68964   0.28698   0.00000  Uiso   1.00
H502   H     0.45727   0.99781   0.29283   0.00000  Uiso   1.00
O503   O     0.42927   0.78699   0.27497   0.00000  Uiso   1.00
C504   C     0.38091   0.78256   0.29141   0.00000  Uiso   1.00
H505   H     0.36793   0.81165   0.30598   0.00000  Uiso   1.00
H506   H     0.38155   0.75715   0.31780   0.00000  Uiso   1.00
H507   H     0.35217   0.77397   0.26122   0.00000  Uiso   1.00
O508   O     0.57074   0.87967   0.05836   0.00000  Uiso   1.00
C509   C     0.61909   0.88411   0.04193   0.00000  Uiso   1.00
H510   H     0.61844   0.90952   0.01553   0.00000  Uiso   1.00
H511   H     0.63207   0.85502   0.02735   0.00000  Uiso   1.00
H512   H     0.64783   0.89269   0.07211   0.00000  Uiso   1.00
C513   C     0.83277   0.75406   0.16693   0.00000  Uiso   1.00
C514   C     0.83389   0.91261   0.16641   0.00000  Uiso   1.00
C515   C     0.73485   0.83222   0.15499   0.00000  Uiso   1.00
C516   C     0.93182   0.83444   0.17835   0.00000  Uiso   1.00
C517   C     0.68020   0.82596   0.15000   0.00000  Uiso   1.00
C518   C     0.98647   0.84071   0.18334   0.00000  Uiso   1.00
C519   C     0.85378   0.68940   0.13155   0.00000  Uiso   1.00
C520   C     0.81289   0.97727   0.20178   0.00000  Uiso   1.00
C521   C     0.85373   0.97986   0.12968   0.00000  Uiso   1.00
C522   C     0.81294   0.68680   0.20365   0.00000  Uiso   1.00
C523   C     0.83392   0.95726   0.16583   0.00000  Uiso   1.00
C524   C     0.83274   0.70941   0.16751   0.00000  Uiso   1.00
C525   C     0.79819   0.81041   0.02132   0.00000  Uiso   1.00
C526   C     0.86848   0.85625   0.31201   0.00000  Uiso   1.00
C527   C     0.79716   0.81078   0.30442   0.00000  Uiso   1.00
C528   C     0.86951   0.85589   0.02891   0.00000  Uiso   1.00
Cu529  Cu    0.83333   0.83334   0.21355   0.00000  Uiso   1.00
Cu530  Cu    0.83333   0.83333   0.11978   0.00000  Uiso   1.00
H531   H     0.87124   0.70728   0.10541   0.00000  Uiso   1.00
H532   H     0.79543   0.95939   0.22792   0.00000  Uiso   1.00
H533   H     0.77136   0.79163   0.03827   0.00000  Uiso   1.00
H534   H     0.89531   0.87503   0.29507   0.00000  Uiso   1.00
N535   N     0.83335   0.83334   0.28403   0.00000  Uiso   1.00
N536   N     0.83332   0.83332   0.04931   0.00000  Uiso   1.00
O537   O     0.83333   0.77322   0.20625   0.00000  Uiso   1.00
O538   O     0.83334   0.89345   0.12709   0.00000  Uiso   1.00
O539   O     0.83333   0.77321   0.12706   0.00000  Uiso   1.00
O540   O     0.83334   0.89346   0.20628   0.00000  Uiso   1.00
O541   O     0.75828   0.83334   0.19712   0.00000  Uiso   1.00
O542   O     0.90839   0.83333   0.13621   0.00000  Uiso   1.00
O543   O     0.75828   0.83333   0.11793   0.00000  Uiso   1.00
O544   O     0.90839   0.83334   0.21540   0.00000  Uiso   1.00
N545   N     0.99066   0.80002   0.11286   0.00000  Uiso   1.00
H546   H     0.67396   0.80287   0.08212   0.00000  Uiso   1.00
C547   C     0.98501   0.75735   0.12663   0.00000  Uiso   1.00
H548   H     0.96501   0.73988   0.09648   0.00000  Uiso   1.00
H549   H     0.96178   0.75454   0.15648   0.00000  Uiso   1.00
H550   H     0.69000   0.74367   0.13705   0.00000  Uiso   1.00
N551   N     0.67601   0.86664   0.22048   0.00000  Uiso   1.00
H552   H     0.99270   0.86379   0.25121   0.00000  Uiso   1.00
C553   C     0.68165   0.90931   0.20671   0.00000  Uiso   1.00
H554   H     0.70166   0.92679   0.23685   0.00000  Uiso   1.00
H555   H     0.97666   0.92300   0.19628   0.00000  Uiso   1.00
H556   H     0.70489   0.91213   0.17686   0.00000  Uiso   1.00
O557   O     0.87682   0.95963   0.09553   0.00000  Uiso   1.00
C558   C     0.85664   0.97323   0.04997   0.00000  Uiso   1.00
H559   H     0.87606   0.66886   0.04051   0.00000  Uiso   1.00
H560   H     0.81422   0.97703   0.04636   0.00000  Uiso   1.00
H561   H     0.86453   0.94989   0.02401   0.00000  Uiso   1.00
O562   O     0.78985   0.70704   0.23780   0.00000  Uiso   1.00
C563   C     0.81002   0.69344   0.28336   0.00000  Uiso   1.00
H564   H     0.80214   0.71678   0.30932   0.00000  Uiso   1.00
H565   H     0.85245   0.68964   0.28698   0.00000  Uiso   1.00
H566   H     0.79061   0.99781   0.29283   0.00000  Uiso   1.00
O567   O     0.76260   0.78699   0.27497   0.00000  Uiso   1.00
C568   C     0.71424   0.78256   0.29141   0.00000  Uiso   1.00
H569   H     0.70126   0.81165   0.30598   0.00000  Uiso   1.00
H570   H     0.71489   0.75715   0.31780   0.00000  Uiso   1.00
H571   H     0.68550   0.77397   0.26122   0.00000  Uiso   1.00
O572   O     0.90407   0.87967   0.05836   0.00000  Uiso   1.00
C573   C     0.95243   0.88411   0.04193   0.00000  Uiso   1.00
H574   H     0.95178   0.90952   0.01553   0.00000  Uiso   1.00
H575   H     0.96540   0.85502   0.02735   0.00000  Uiso   1.00
H576   H     0.98117   0.89269   0.07211   0.00000  Uiso   1.00
C577   C     0.16611   0.08739   0.50026   0.00000  Uiso   1.00
C578   C     0.16723   0.24594   0.49974   0.00000  Uiso   1.00
C579   C     0.06818   0.16556   0.48832   0.00000  Uiso   1.00
C580   C     0.26515   0.16778   0.51168   0.00000  Uiso   1.00
C581   C     0.01353   0.15929   0.48333   0.00000  Uiso   1.00
C582   C     0.31980   0.17404   0.51667   0.00000  Uiso   1.00
C583   C     0.18711   0.02273   0.46488   0.00000  Uiso   1.00
C584   C     0.14622   0.31060   0.53512   0.00000  Uiso   1.00
C585   C     0.18706   0.31320   0.46302   0.00000  Uiso   1.00
C586   C     0.14627   0.02014   0.53698   0.00000  Uiso   1.00
C587   C     0.16726   0.29059   0.49916   0.00000  Uiso   1.00
C588   C     0.16608   0.04274   0.50084   0.00000  Uiso   1.00
C589   C     0.13152   0.14375   0.35466   0.00000  Uiso   1.00
C590   C     0.20181   0.18959   0.64534   0.00000  Uiso   1.00
C591   C     0.13049   0.14411   0.63776   0.00000  Uiso   1.00
C592   C     0.20284   0.18922   0.36225   0.00000  Uiso   1.00
Cu593  Cu    0.16667   0.16667   0.54689   0.00000  Uiso   1.00
Cu594  Cu    0.16667   0.16666   0.45311   0.00000  Uiso   1.00
H595   H     0.20457   0.04061   0.43875   0.00000  Uiso   1.00
H596   H     0.12876   0.29272   0.56125   0.00000  Uiso   1.00
H597   H     0.10469   0.12496   0.37160   0.00000  Uiso   1.00
H598   H     0.22864   0.20837   0.62840   0.00000  Uiso   1.00
N599   N     0.16668   0.16668   0.61736   0.00000  Uiso   1.00
N600   N     0.16665   0.16666   0.38264   0.00000  Uiso   1.00
O601   O     0.16666   0.10655   0.53958   0.00000  Uiso   1.00
O602   O     0.16667   0.22678   0.46042   0.00000  Uiso   1.00
O603   O     0.16666   0.10654   0.46039   0.00000  Uiso   1.00
O604   O     0.16667   0.22679   0.53961   0.00000  Uiso   1.00
O605   O     0.09161   0.16667   0.53046   0.00000  Uiso   1.00
O606   O     0.24172   0.16666   0.46954   0.00000  Uiso   1.00
O607   O     0.09161   0.16666   0.45127   0.00000  Uiso   1.00
O608   O     0.24172   0.16667   0.54873   0.00000  Uiso   1.00
N609   N     0.32399   0.13336   0.44619   0.00000  Uiso   1.00
H610   H     0.00730   0.13621   0.41546   0.00000  Uiso   1.00
C611   C     0.31835   0.09069   0.45996   0.00000  Uiso   1.00
H612   H     0.29834   0.07321   0.42981   0.00000  Uiso   1.00
H613   H     0.29511   0.08787   0.48981   0.00000  Uiso   1.00
H614   H     0.02334   0.07700   0.47039   0.00000  Uiso   1.00
N615   N     0.00934   0.19998   0.55381   0.00000  Uiso   1.00
H616   H     0.32604   0.19713   0.58454   0.00000  Uiso   1.00
C617   C     0.01499   0.24265   0.54004   0.00000  Uiso   1.00
H618   H     0.03499   0.26012   0.57019   0.00000  Uiso   1.00
H619   H     0.31000   0.25633   0.52961   0.00000  Uiso   1.00
H620   H     0.03822   0.24546   0.51019   0.00000  Uiso   1.00
O621   O     0.21015   0.29296   0.42887   0.00000  Uiso   1.00
C622   C     0.18998   0.30656   0.38331   0.00000  Uiso   1.00
H623   H     0.20939   0.00219   0.37384   0.00000  Uiso   1.00
H624   H     0.14755   0.31036   0.37969   0.00000  Uiso   1.00
H625   H     0.19786   0.28322   0.35735   0.00000  Uiso   1.00
O626   O     0.12318   0.04037   0.57113   0.00000  Uiso   1.00
C627   C     0.14335   0.02677   0.61669   0.00000  Uiso   1.00
H628   H     0.13547   0.05011   0.64266   0.00000  Uiso   1.00
H629   H     0.18578   0.02297   0.62031   0.00000  Uiso   1.00
H630   H     0.12394   0.33114   0.62616   0.00000  Uiso   1.00
O631   O     0.09593   0.12032   0.60830   0.00000  Uiso   1.00
C632   C     0.04757   0.11589   0.62474   0.00000  Uiso   1.00
H633   H     0.03460   0.14498   0.63932   0.00000  Uiso   1.00
H634   H     0.04822   0.09048   0.65113   0.00000  Uiso   1.00
H635   H     0.01883   0.10731   0.59456   0.00000  Uiso   1.00
O636   O     0.23740   0.21301   0.39170   0.00000  Uiso   1.00
C637   C     0.28576   0.21744   0.37526   0.00000  Uiso   1.00
H638   H     0.28511   0.24285   0.34887   0.00000  Uiso   1.00
H639   H     0.29874   0.18835   0.36068   0.00000  Uiso   1.00
H640   H     0.31450   0.22603   0.40544   0.00000  Uiso   1.00
C641   C     0.49944   0.08739   0.50026   0.00000  Uiso   1.00
C642   C     0.50056   0.24594   0.49974   0.00000  Uiso   1.00
C643   C     0.40151   0.16556   0.48832   0.00000  Uiso   1.00
C644   C     0.59849   0.16778   0.51168   0.00000  Uiso   1.00
C645   C     0.34686   0.15929   0.48333   0.00000  Uiso   1.00
C646   C     0.65314   0.17404   0.51667   0.00000  Uiso   1.00
C647   C     0.52044   0.02273   0.46488   0.00000  Uiso   1.00
C648   C     0.47956   0.31060   0.53512   0.00000  Uiso   1.00
C649   C     0.52040   0.31320   0.46302   0.00000  Uiso   1.00
C650   C     0.47960   0.02014   0.53698   0.00000  Uiso   1.00
C651   C     0.50059   0.29059   0.49916   0.00000  Uiso   1.00
C652   C     0.49941   0.04274   0.50084   0.00000  Uiso   1.00
C653   C     0.46485   0.14375   0.35466   0.00000  Uiso   1.00
C654   C     0.53515   0.18959   0.64534   0.00000  Uiso   1.00
C655   C     0.46383   0.14411   0.63776   0.00000  Uiso   1.00
C656   C     0.53618   0.18922   0.36225   0.00000  Uiso   1.00
Cu657  Cu    0.50000   0.16667   0.54689   0.00000  Uiso   1.00
Cu658  Cu    0.50000   0.16666   0.45311   0.00000  Uiso   1.00
H659   H     0.53790   0.04061   0.43875   0.00000  Uiso   1.00
H660   H     0.46210   0.29272   0.56125   0.00000  Uiso   1.00
H661   H     0.43803   0.12496   0.37160   0.00000  Uiso   1.00
H662   H     0.56197   0.20837   0.62840   0.00000  Uiso   1.00
N663   N     0.50001   0.16668   0.61736   0.00000  Uiso   1.00
N664   N     0.49999   0.16666   0.38264   0.00000  Uiso   1.00
O665   O     0.50000   0.10655   0.53958   0.00000  Uiso   1.00
O666   O     0.50000   0.22678   0.46042   0.00000  Uiso   1.00
O667   O     0.50000   0.10654   0.46039   0.00000  Uiso   1.00
O668   O     0.50000   0.22679   0.53961   0.00000  Uiso   1.00
O669   O     0.42495   0.16667   0.53046   0.00000  Uiso   1.00
O670   O     0.57505   0.16666   0.46954   0.00000  Uiso   1.00
O671   O     0.42494   0.16666   0.45127   0.00000  Uiso   1.00
O672   O     0.57506   0.16667   0.54873   0.00000  Uiso   1.00
N673   N     0.65732   0.13336   0.44619   0.00000  Uiso   1.00
H674   H     0.34063   0.13621   0.41546   0.00000  Uiso   1.00
C675   C     0.65168   0.09069   0.45996   0.00000  Uiso   1.00
H676   H     0.63167   0.07321   0.42981   0.00000  Uiso   1.00
H677   H     0.62845   0.08787   0.48981   0.00000  Uiso   1.00
H678   H     0.35667   0.07700   0.47039   0.00000  Uiso   1.00
N679   N     0.34268   0.19998   0.55381   0.00000  Uiso   1.00
H680   H     0.65937   0.19713   0.58454   0.00000  Uiso   1.00
C681   C     0.34832   0.24265   0.54004   0.00000  Uiso   1.00
H682   H     0.36833   0.26012   0.57019   0.00000  Uiso   1.00
H683   H     0.64333   0.25633   0.52961   0.00000  Uiso   1.00
H684   H     0.37155   0.24546   0.51019   0.00000  Uiso   1.00
O685   O     0.54348   0.29296   0.42887   0.00000  Uiso   1.00
C686   C     0.52331   0.30656   0.38331   0.00000  Uiso   1.00
H687   H     0.54272   0.00219   0.37384   0.00000  Uiso   1.00
H688   H     0.48088   0.31036   0.37969   0.00000  Uiso   1.00
H689   H     0.53120   0.28322   0.35735   0.00000  Uiso   1.00
O690   O     0.45652   0.04037   0.57113   0.00000  Uiso   1.00
C691   C     0.47669   0.02677   0.61669   0.00000  Uiso   1.00
H692   H     0.46880   0.05011   0.64266   0.00000  Uiso   1.00
H693   H     0.51911   0.02297   0.62031   0.00000  Uiso   1.00
H694   H     0.45727   0.33114   0.62616   0.00000  Uiso   1.00
O695   O     0.42927   0.12032   0.60830   0.00000  Uiso   1.00
C696   C     0.38091   0.11589   0.62474   0.00000  Uiso   1.00
H697   H     0.36793   0.14498   0.63932   0.00000  Uiso   1.00
H698   H     0.38155   0.09048   0.65113   0.00000  Uiso   1.00
H699   H     0.35217   0.10731   0.59456   0.00000  Uiso   1.00
O700   O     0.57074   0.21301   0.39170   0.00000  Uiso   1.00
C701   C     0.61909   0.21744   0.37526   0.00000  Uiso   1.00
H702   H     0.61844   0.24285   0.34887   0.00000  Uiso   1.00
H703   H     0.63207   0.18835   0.36068   0.00000  Uiso   1.00
H704   H     0.64783   0.22603   0.40544   0.00000  Uiso   1.00
C705   C     0.83277   0.08739   0.50026   0.00000  Uiso   1.00
C706   C     0.83389   0.24594   0.49974   0.00000  Uiso   1.00
C707   C     0.73485   0.16556   0.48832   0.00000  Uiso   1.00
C708   C     0.93182   0.16778   0.51168   0.00000  Uiso   1.00
C709   C     0.68020   0.15929   0.48333   0.00000  Uiso   1.00
C710   C     0.98647   0.17404   0.51667   0.00000  Uiso   1.00
C711   C     0.85378   0.02273   0.46488   0.00000  Uiso   1.00
C712   C     0.81289   0.31060   0.53512   0.00000  Uiso   1.00
C713   C     0.85373   0.31320   0.46302   0.00000  Uiso   1.00
C714   C     0.81294   0.02014   0.53698   0.00000  Uiso   1.00
C715   C     0.83392   0.29059   0.49916   0.00000  Uiso   1.00
C716   C     0.83274   0.04274   0.50084   0.00000  Uiso   1.00
C717   C     0.79819   0.14375   0.35466   0.00000  Uiso   1.00
C718   C     0.86848   0.18959   0.64534   0.00000  Uiso   1.00
C719   C     0.79716   0.14411   0.63776   0.00000  Uiso   1.00
C720   C     0.86951   0.18922   0.36225   0.00000  Uiso   1.00
Cu721  Cu    0.83333   0.16667   0.54689   0.00000  Uiso   1.00
Cu722  Cu    0.83333   0.16666   0.45311   0.00000  Uiso   1.00
H723   H     0.87124   0.04061   0.43875   0.00000  Uiso   1.00
H724   H     0.79543   0.29272   0.56125   0.00000  Uiso   1.00
H725   H     0.77136   0.12496   0.37160   0.00000  Uiso   1.00
H726   H     0.89531   0.20837   0.62840   0.00000  Uiso   1.00
N727   N     0.83335   0.16668   0.61736   0.00000  Uiso   1.00
N728   N     0.83332   0.16666   0.38264   0.00000  Uiso   1.00
O729   O     0.83333   0.10655   0.53958   0.00000  Uiso   1.00
O730   O     0.83334   0.22678   0.46042   0.00000  Uiso   1.00
O731   O     0.83333   0.10654   0.46039   0.00000  Uiso   1.00
O732   O     0.83334   0.22679   0.53961   0.00000  Uiso   1.00
O733   O     0.75828   0.16667   0.53046   0.00000  Uiso   1.00
O734   O     0.90839   0.16666   0.46954   0.00000  Uiso   1.00
O735   O     0.75828   0.16666   0.45127   0.00000  Uiso   1.00
O736   O     0.90839   0.16667   0.54873   0.00000  Uiso   1.00
N737   N     0.99066   0.13336   0.44619   0.00000  Uiso   1.00
H738   H     0.67396   0.13621   0.41546   0.00000  Uiso   1.00
C739   C     0.98501   0.09069   0.45996   0.00000  Uiso   1.00
H740   H     0.96501   0.07321   0.42981   0.00000  Uiso   1.00
H741   H     0.96178   0.08787   0.48981   0.00000  Uiso   1.00
H742   H     0.69000   0.07700   0.47039   0.00000  Uiso   1.00
N743   N     0.67601   0.19998   0.55381   0.00000  Uiso   1.00
H744   H     0.99270   0.19713   0.58454   0.00000  Uiso   1.00
C745   C     0.68165   0.24265   0.54004   0.00000  Uiso   1.00
H746   H     0.70166   0.26012   0.57019   0.00000  Uiso   1.00
H747   H     0.97666   0.25633   0.52961   0.00000  Uiso   1.00
H748   H     0.70489   0.24546   0.51019   0.00000  Uiso   1.00
O749   O     0.87682   0.29296   0.42887   0.00000  Uiso   1.00
C750   C     0.85664   0.30656   0.38331   0.00000  Uiso   1.00
H751   H     0.87606   0.00219   0.37384   0.00000  Uiso   1.00
H752   H     0.81422   0.31036   0.37969   0.00000  Uiso   1.00
H753   H     0.86453   0.28322   0.35735   0.00000  Uiso   1.00
O754   O     0.78985   0.04037   0.57113   0.00000  Uiso   1.00
C755   C     0.81002   0.02677   0.61669   0.00000  Uiso   1.00
H756   H     0.80214   0.05011   0.64266   0.00000  Uiso   1.00
H757   H     0.85245   0.02297   0.62031   0.00000  Uiso   1.00
H758   H     0.79061   0.33114   0.62616   0.00000  Uiso   1.00
O759   O     0.76260   0.12032   0.60830   0.00000  Uiso   1.00
C760   C     0.71424   0.11589   0.62474   0.00000  Uiso   1.00
H761   H     0.70126   0.14498   0.63932   0.00000  Uiso   1.00
H762   H     0.71489   0.09048   0.65113   0.00000  Uiso   1.00
H763   H     0.68550   0.10731   0.59456   0.00000  Uiso   1.00
O764   O     0.90407   0.21301   0.39170   0.00000  Uiso   1.00
C765   C     0.95243   0.21744   0.37526   0.00000  Uiso   1.00
H766   H     0.95178   0.24285   0.34887   0.00000  Uiso   1.00
H767   H     0.96540   0.18835   0.36068   0.00000  Uiso   1.00
H768   H     0.98117   0.22603   0.40544   0.00000  Uiso   1.00
C769   C     0.16611   0.42072   0.50026   0.00000  Uiso   1.00
C770   C     0.16723   0.57928   0.49974   0.00000  Uiso   1.00
C771   C     0.06818   0.49889   0.48832   0.00000  Uiso   1.00
C772   C     0.26515   0.50111   0.51168   0.00000  Uiso   1.00
C773   C     0.01353   0.49263   0.48333   0.00000  Uiso   1.00
C774   C     0.31980   0.50737   0.51667   0.00000  Uiso   1.00
C775   C     0.18711   0.35607   0.46488   0.00000  Uiso   1.00
C776   C     0.14622   0.64393   0.53512   0.00000  Uiso   1.00
C777   C     0.18706   0.64653   0.46302   0.00000  Uiso   1.00
C778   C     0.14627   0.35347   0.53698   0.00000  Uiso   1.00
C779   C     0.16726   0.62392   0.49916   0.00000  Uiso   1.00
C780   C     0.16608   0.37608   0.50084   0.00000  Uiso   1.00
C781   C     0.13152   0.47708   0.35466   0.00000  Uiso   1.00
C782   C     0.20181   0.52292   0.64534   0.00000  Uiso   1.00
C783   C     0.13049   0.47745   0.63776   0.00000  Uiso   1.00
C784   C     0.20284   0.52255   0.36225   0.00000  Uiso   1.00
Cu785  Cu    0.16667   0.50001   0.54689   0.00000  Uiso   1.00
Cu786  Cu    0.16667   0.49999   0.45311   0.00000  Uiso   1.00
H787   H     0.20457   0.37395   0.43875   0.00000  Uiso   1.00
H788   H     0.12876   0.62605   0.56125   0.00000  Uiso   1.00
H789   H     0.10469   0.45830   0.37160   0.00000  Uiso   1.00
H790   H     0.22864   0.54170   0.62840   0.00000  Uiso   1.00
N791   N     0.16668   0.50001   0.61736   0.00000  Uiso   1.00
N792   N     0.16665   0.49999   0.38264   0.00000  Uiso   1.00
O793   O     0.16666   0.43989   0.53958   0.00000  Uiso   1.00
O794   O     0.16667   0.56011   0.46042   0.00000  Uiso   1.00
O795   O     0.16666   0.43988   0.46039   0.00000  Uiso   1.00
O796   O     0.16667   0.56012   0.53961   0.00000  Uiso   1.00
O797   O     0.09161   0.50000   0.53046   0.00000  Uiso   1.00
O798   O     0.24172   0.50000   0.46954   0.00000  Uiso   1.00
O799   O     0.09161   0.49999   0.45127   0.00000  Uiso   1.00
O800   O     0.24172   0.50001   0.54873   0.00000  Uiso   1.00
N801   N     0.32399   0.46669   0.44619   0.00000  Uiso   1.00
H802   H     0.00730   0.46954   0.41546   0.00000  Uiso   1.00
C803   C     0.31835   0.42402   0.45996   0.00000  Uiso   1.00
H804   H     0.29834   0.40655   0.42981   0.00000  Uiso   1.00
H805   H     0.29511   0.42120   0.48981   0.00000  Uiso   1.00
H806   H     0.02334   0.41034   0.47039   0.00000  Uiso   1.00
N807   N     0.00934   0.53331   0.55381   0.00000  Uiso   1.00
H808   H     0.32604   0.53046   0.58454   0.00000  Uiso   1.00
C809   C     0.01499   0.57598   0.54004   0.00000  Uiso   1.00
H810   H     0.03499   0.59345   0.57019   0.00000  Uiso   1.00
H811   H     0.31000   0.58966   0.52961   0.00000  Uiso   1.00
H812   H     0.03822   0.57880   0.51019   0.00000  Uiso   1.00
O813   O     0.21015   0.62629   0.42887   0.00000  Uiso   1.00
C814   C     0.18998   0.63990   0.38331   0.00000  Uiso   1.00
H815   H     0.20939   0.33553   0.37384   0.00000  Uiso   1.00
H816   H     0.14755   0.64369   0.37969   0.00000  Uiso   1.00
H817   H     0.19786   0.61656   0.35735   0.00000  Uiso   1.00
O818   O     0.12318   0.37371   0.57113   0.00000  Uiso   1.00
C819   C     0.14335   0.36010   0.61669   0.00000  Uiso   1.00
H820   H     0.13547   0.38344   0.64266   0.00000  Uiso   1.00
H821   H     0.18578   0.35630   0.62031   0.00000  Uiso   1.00
H822   H     0.12394   0.66447   0.62616   0.00000  Uiso   1.00
O823   O     0.09593   0.45366   0.60830   0.00000  Uiso   1.00
C824   C     0.04757   0.44923   0.62474   0.00000  Uiso   1.00
H825   H     0.03460   0.47832   0.63932   0.00000  Uiso   1.00
H826   H     0.04822   0.42382   0.65113   0.00000  Uiso   1.00
H827   H     0.01883   0.44064   0.59456   0.00000  Uiso   1.00
O828   O     0.23740   0.54634   0.39170   0.00000  Uiso   1.00
C829   C     0.28576   0.55078   0.37526   0.00000  Uiso   1.00
H830   H     0.28511   0.57619   0.34887   0.00000  Uiso   1.00
H831   H     0.29874   0.52169   0.36068   0.00000  Uiso   1.00
H832   H     0.31450   0.55936   0.40544   0.00000  Uiso   1.00
C833   C     0.49944   0.42072   0.50026   0.00000  Uiso   1.00
C834   C     0.50056   0.57928   0.49974   0.00000  Uiso   1.00
C835   C     0.40151   0.49889   0.48832   0.00000  Uiso   1.00
C836   C     0.59849   0.50111   0.51168   0.00000  Uiso   1.00
C837   C     0.34686   0.49263   0.48333   0.00000  Uiso   1.00
C838   C     0.65314   0.50737   0.51667   0.00000  Uiso   1.00
C839   C     0.52044   0.35607   0.46488   0.00000  Uiso   1.00
C840   C     0.47956   0.64393   0.53512   0.00000  Uiso   1.00
C841   C     0.52040   0.64653   0.46302   0.00000  Uiso   1.00
C842   C     0.47960   0.35347   0.53698   0.00000  Uiso   1.00
C843   C     0.50059   0.62392   0.49916   0.00000  Uiso   1.00
C844   C     0.49941   0.37608   0.50084   0.00000  Uiso   1.00
C845   C     0.46485   0.47708   0.35466   0.00000  Uiso   1.00
C846   C     0.53515   0.52292   0.64534   0.00000  Uiso   1.00
C847   C     0.46383   0.47745   0.63776   0.00000  Uiso   1.00
C848   C     0.53618   0.52255   0.36225   0.00000  Uiso   1.00
Cu849  Cu    0.50000   0.50001   0.54689   0.00000  Uiso   1.00
Cu850  Cu    0.50000   0.49999   0.45311   0.00000  Uiso   1.00
H851   H     0.53790   0.37395   0.43875   0.00000  Uiso   1.00
H852   H     0.46210   0.62605   0.56125   0.00000  Uiso   1.00
H853   H     0.43803   0.45830   0.37160   0.00000  Uiso   1.00
H854   H     0.56197   0.54170   0.62840   0.00000  Uiso   1.00
N855   N     0.50001   0.50001   0.61736   0.00000  Uiso   1.00
N856   N     0.49999   0.49999   0.38264   0.00000  Uiso   1.00
O857   O     0.50000   0.43989   0.53958   0.00000  Uiso   1.00
O858   O     0.50000   0.56011   0.46042   0.00000  Uiso   1.00
O859   O     0.50000   0.43988   0.46039   0.00000  Uiso   1.00
O860   O     0.50000   0.56012   0.53961   0.00000  Uiso   1.00
O861   O     0.42495   0.50000   0.53046   0.00000  Uiso   1.00
O862   O     0.57505   0.50000   0.46954   0.00000  Uiso   1.00
O863   O     0.42494   0.49999   0.45127   0.00000  Uiso   1.00
O864   O     0.57506   0.50001   0.54873   0.00000  Uiso   1.00
N865   N     0.65732   0.46669   0.44619   0.00000  Uiso   1.00
H866   H     0.34063   0.46954   0.41546   0.00000  Uiso   1.00
C867   C     0.65168   0.42402   0.45996   0.00000  Uiso   1.00
H868   H     0.63167   0.40655   0.42981   0.00000  Uiso   1.00
H869   H     0.62845   0.42120   0.48981   0.00000  Uiso   1.00
H870   H     0.35667   0.41034   0.47039   0.00000  Uiso   1.00
N871   N     0.34268   0.53331   0.55381   0.00000  Uiso   1.00
H872   H     0.65937   0.53046   0.58454   0.00000  Uiso   1.00
C873   C     0.34832   0.57598   0.54004   0.00000  Uiso   1.00
H874   H     0.36833   0.59345   0.57019   0.00000  Uiso   1.00
H875   H     0.64333   0.58966   0.52961   0.00000  Uiso   1.00
H876   H     0.37155   0.57880   0.51019   0.00000  Uiso   1.00
O877   O     0.54348   0.62629   0.42887   0.00000  Uiso   1.00
C878   C     0.52331   0.63990   0.38331   0.00000  Uiso   1.00
H879   H     0.54272   0.33553   0.37384   0.00000  Uiso   1.00
H880   H     0.48088   0.64369   0.37969   0.00000  Uiso   1.00
H881   H     0.53120   0.61656   0.35735   0.00000  Uiso   1.00
O882   O     0.45652   0.37371   0.57113   0.00000  Uiso   1.00
C883   C     0.47669   0.36010   0.61669   0.00000  Uiso   1.00
H884   H     0.46880   0.38344   0.64266   0.00000  Uiso   1.00
H885   H     0.51911   0.35630   0.62031   0.00000  Uiso   1.00
H886   H     0.45727   0.66447   0.62616   0.00000  Uiso   1.00
O887   O     0.42927   0.45366   0.60830   0.00000  Uiso   1.00
C888   C     0.38091   0.44923   0.62474   0.00000  Uiso   1.00
H889   H     0.36793   0.47832   0.63932   0.00000  Uiso   1.00
H890   H     0.38155   0.42382   0.65113   0.00000  Uiso   1.00
H891   H     0.35217   0.44064   0.59456   0.00000  Uiso   1.00
O892   O     0.57074   0.54634   0.39170   0.00000  Uiso   1.00
C893   C     0.61909   0.55078   0.37526   0.00000  Uiso   1.00
H894   H     0.61844   0.57619   0.34887   0.00000  Uiso   1.00
H895   H     0.63207   0.52169   0.36068   0.00000  Uiso   1.00
H896   H     0.64783   0.55936   0.40544   0.00000  Uiso   1.00
C897   C     0.83277   0.42072   0.50026   0.00000  Uiso   1.00
C898   C     0.83389   0.57928   0.49974   0.00000  Uiso   1.00
C899   C     0.73485   0.49889   0.48832   0.00000  Uiso   1.00
C900   C     0.93182   0.50111   0.51168   0.00000  Uiso   1.00
C901   C     0.68020   0.49263   0.48333   0.00000  Uiso   1.00
C902   C     0.98647   0.50737   0.51667   0.00000  Uiso   1.00
C903   C     0.85378   0.35607   0.46488   0.00000  Uiso   1.00
C904   C     0.81289   0.64393   0.53512   0.00000  Uiso   1.00
C905   C     0.85373   0.64653   0.46302   0.00000  Uiso   1.00
C906   C     0.81294   0.35347   0.53698   0.00000  Uiso   1.00
C907   C     0.83392   0.62392   0.49916   0.00000  Uiso   1.00
C908   C     0.83274   0.37608   0.50084   0.00000  Uiso   1.00
C909   C     0.79819   0.47708   0.35466   0.00000  Uiso   1.00
C910   C     0.86848   0.52292   0.64534   0.00000  Uiso   1.00
C911   C     0.79716   0.47745   0.63776   0.00000  Uiso   1.00
C912   C     0.86951   0.52255   0.36225   0.00000  Uiso   1.00
Cu913  Cu    0.83333   0.50001   0.54689   0.00000  Uiso   1.00
Cu914  Cu    0.83333   0.49999   0.45311   0.00000  Uiso   1.00
H915   H     0.87124   0.37395   0.43875   0.00000  Uiso   1.00
H916   H     0.79543   0.62605   0.56125   0.00000  Uiso   1.00
H917   H     0.77136   0.45830   0.37160   0.00000  Uiso   1.00
H918   H     0.89531   0.54170   0.62840   0.00000  Uiso   1.00
N919   N     0.83335   0.50001   0.61736   0.00000  Uiso   1.00
N920   N     0.83332   0.49999   0.38264   0.00000  Uiso   1.00
O921   O     0.83333   0.43989   0.53958   0.00000  Uiso   1.00
O922   O     0.83334   0.56011   0.46042   0.00000  Uiso   1.00
O923   O     0.83333   0.43988   0.46039   0.00000  Uiso   1.00
O924   O     0.83334   0.56012   0.53961   0.00000  Uiso   1.00
O925   O     0.75828   0.50000   0.53046   0.00000  Uiso   1.00
O926   O     0.90839   0.50000   0.46954   0.00000  Uiso   1.00
O927   O     0.75828   0.49999   0.45127   0.00000  Uiso   1.00
O928   O     0.90839   0.50001   0.54873   0.00000  Uiso   1.00
N929   N     0.99066   0.46669   0.44619   0.00000  Uiso   1.00
H930   H     0.67396   0.46954   0.41546   0.00000  Uiso   1.00
C931   C     0.98501   0.42402   0.45996   0.00000  Uiso   1.00
H932   H     0.96501   0.40655   0.42981   0.00000  Uiso   1.00
H933   H     0.96178   0.42120   0.48981   0.00000  Uiso   1.00
H934   H     0.69000   0.41034   0.47039   0.00000  Uiso   1.00
N935   N     0.67601   0.53331   0.55381   0.00000  Uiso   1.00
H936   H     0.99270   0.53046   0.58454   0.00000  Uiso   1.00
C937   C     0.68165   0.57598   0.54004   0.00000  Uiso   1.00
H938   H     0.70166   0.59345   0.57019   0.00000  Uiso   1.00
H939   H     0.97666   0.58966   0.52961   0.00000  Uiso   1.00
H940   H     0.70489   0.57880   0.51019   0.00000  Uiso   1.00
O941   O     0.87682   0.62629   0.42887   0.00000  Uiso   1.00
C942   C     0.85664   0.63990   0.38331   0.00000  Uiso   1.00
H943   H     0.87606   0.33553   0.37384   0.00000  Uiso   1.00
H944   H     0.81422   0.64369   0.37969   0.00000  Uiso   1.00
H945   H     0.86453   0.61656   0.35735   0.00000  Uiso   1.00
O946   O     0.78985   0.37371   0.57113   0.00000  Uiso   1.00
C947   C     0.81002   0.36010   0.61669   0.00000  Uiso   1.00
H948   H     0.80214   0.38344   0.64266   0.00000  Uiso   1.00
H949   H     0.85245   0.35630   0.62031   0.00000  Uiso   1.00
H950   H     0.79061   0.66447   0.62616   0.00000  Uiso   1.00
O951   O     0.76260   0.45366   0.60830   0.00000  Uiso   1.00
C952   C     0.71424   0.44923   0.62474   0.00000  Uiso   1.00
H953   H     0.70126   0.47832   0.63932   0.00000  Uiso   1.00
H954   H     0.71489   0.42382   0.65113   0.00000  Uiso   1.00
H955   H     0.68550   0.44064   0.59456   0.00000  Uiso   1.00
O956   O     0.90407   0.54634   0.39170   0.00000  Uiso   1.00
C957   C     0.95243   0.55078   0.37526   0.00000  Uiso   1.00
H958   H     0.95178   0.57619   0.34887   0.00000  Uiso   1.00
H959   H     0.96540   0.52169   0.36068   0.00000  Uiso   1.00
H960   H     0.98117   0.55936   0.40544   0.00000  Uiso   1.00
C961   C     0.16611   0.75406   0.50026   0.00000  Uiso   1.00
C962   C     0.16723   0.91261   0.49974   0.00000  Uiso   1.00
C963   C     0.06818   0.83222   0.48832   0.00000  Uiso   1.00
C964   C     0.26515   0.83444   0.51168   0.00000  Uiso   1.00
C965   C     0.01353   0.82596   0.48333   0.00000  Uiso   1.00
C966   C     0.31980   0.84071   0.51667   0.00000  Uiso   1.00
C967   C     0.18711   0.68940   0.46488   0.00000  Uiso   1.00
C968   C     0.14622   0.97727   0.53512   0.00000  Uiso   1.00
C969   C     0.18706   0.97986   0.46302   0.00000  Uiso   1.00
C970   C     0.14627   0.68680   0.53698   0.00000  Uiso   1.00
C971   C     0.16726   0.95726   0.49916   0.00000  Uiso   1.00
C972   C     0.16608   0.70941   0.50084   0.00000  Uiso   1.00
C973   C     0.13152   0.81041   0.35466   0.00000  Uiso   1.00
C974   C     0.20181   0.85625   0.64534   0.00000  Uiso   1.00
C975   C     0.13049   0.81078   0.63776   0.00000  Uiso   1.00
C976   C     0.20284   0.85589   0.36225   0.00000  Uiso   1.00
Cu977  Cu    0.16667   0.83334   0.54689   0.00000  Uiso   1.00
Cu978  Cu    0.16667   0.83333   0.45311   0.00000  Uiso   1.00
H979   H     0.20457   0.70728   0.43875   0.00000  Uiso   1.00
H980   H     0.12876   0.95939   0.56125   0.00000  Uiso   1.00
H981   H     0.10469   0.79163   0.37160   0.00000  Uiso   1.00
H982   H     0.22864   0.87503   0.62840   0.00000  Uiso   1.00
N983   N     0.16668   0.83334   0.61736   0.00000  Uiso   1.00
N984   N     0.16665   0.83332   0.38264   0.00000  Uiso   1.00
O985   O     0.16666   0.77322   0.53958   0.00000  Uiso   1.00
O986   O     0.16667   0.89345   0.46042   0.00000  Uiso   1.00
O987   O     0.16666   0.77321   0.46039   0.00000  Uiso   1.00
O988   O     0.16667   0.89346   0.53961   0.00000  Uiso   1.00
O989   O     0.09161   0.83334   0.53046   0.00000  Uiso   1.00
O990   O     0.24172   0.83333   0.46954   0.00000  Uiso   1.00
O991   O     0.09161   0.83333   0.45127   0.00000  Uiso   1.00
O992   O     0.24172   0.83334   0.54873   0.00000  Uiso   1.00
N993   N     0.32399   0.80002   0.44619   0.00000  Uiso   1.00
H994   H     0.00730   0.80287   0.41546   0.00000  Uiso   1.00
C995   C     0.31835   0.75735   0.45996   0.00000  Uiso   1.00
H996   H     0.29834   0.73988   0.42981   0.00000  Uiso   1.00
H997   H     0.29511   0.75454   0.48981   0.00000  Uiso   1.00
H998   H     0.02334   0.74367   0.47039   0.00000  Uiso   1.00
N999   N     0.00934   0.86664   0.55381   0.00000  Uiso   1.00
H1000  H     0.32604   0.86379   0.58454   0.00000  Uiso   1.00
C1001  C     0.01499   0.90931   0.54004   0.00000  Uiso   1.00
H1002  H     0.03499   0.92679   0.57019   0.00000  Uiso   1.00
H1003  H     0.31000   0.92300   0.52961   0.00000  Uiso   1.00
H1004  H     0.03822   0.91213   0.51019   0.00000  Uiso   1.00
O1005  O     0.21015   0.95963   0.42887   0.00000  Uiso   1.00
C1006  C     0.18998   0.97323   0.38331   0.00000  Uiso   1.00
H1007  H     0.20939   0.66886   0.37384   0.00000  Uiso   1.00
H1008  H     0.14755   0.97703   0.37969   0.00000  Uiso   1.00
H1009  H     0.19786   0.94989   0.35735   0.00000  Uiso   1.00
O1010  O     0.12318   0.70704   0.57113   0.00000  Uiso   1.00
C1011  C     0.14335   0.69344   0.61669   0.00000  Uiso   1.00
H1012  H     0.13547   0.71678   0.64266   0.00000  Uiso   1.00
H1013  H     0.18578   0.68964   0.62031   0.00000  Uiso   1.00
H1014  H     0.12394   0.99781   0.62616   0.00000  Uiso   1.00
O1015  O     0.09593   0.78699   0.60830   0.00000  Uiso   1.00
C1016  C     0.04757   0.78256   0.62474   0.00000  Uiso   1.00
H1017  H     0.03460   0.81165   0.63932   0.00000  Uiso   1.00
H1018  H     0.04822   0.75715   0.65113   0.00000  Uiso   1.00
H1019  H     0.01883   0.77397   0.59456   0.00000  Uiso   1.00
O1020  O     0.23740   0.87967   0.39170   0.00000  Uiso   1.00
C1021  C     0.28576   0.88411   0.37526   0.00000  Uiso   1.00
H1022  H     0.28511   0.90952   0.34887   0.00000  Uiso   1.00
H1023  H     0.29874   0.85502   0.36068   0.00000  Uiso   1.00
H1024  H     0.31450   0.89269   0.40544   0.00000  Uiso   1.00
C1025  C     0.49944   0.75406   0.50026   0.00000  Uiso   1.00
C1026  C     0.50056   0.91261   0.49974   0.00000  Uiso   1.00
C1027  C     0.40151   0.83222   0.48832   0.00000  Uiso   1.00
C1028  C     0.59849   0.83444   0.51168   0.00000  Uiso   1.00
C1029  C     0.34686   0.82596   0.48333   0.00000  Uiso   1.00
C1030  C     0.65314   0.84071   0.51667   0.00000  Uiso   1.00
C1031  C     0.52044   0.68940   0.46488   0.00000  Uiso   1.00
C1032  C     0.47956   0.97727   0.53512   0.00000  Uiso   1.00
C1033  C     0.52040   0.97986   0.46302   0.00000  Uiso   1.00
C1034  C     0.47960   0.68680   0.53698   0.00000  Uiso   1.00
C1035  C     0.50059   0.95726   0.49916   0.00000  Uiso   1.00
C1036  C     0.49941   0.70941   0.50084   0.00000  Uiso   1.00
C1037  C     0.46485   0.81041   0.35466   0.00000  Uiso   1.00
C1038  C     0.53515   0.85625   0.64534   0.00000  Uiso   1.00
C1039  C     0.46383   0.81078   0.63776   0.00000  Uiso   1.00
C1040  C     0.53618   0.85589   0.36225   0.00000  Uiso   1.00
Cu1041 Cu    0.50000   0.83334   0.54689   0.00000  Uiso   1.00
Cu1042 Cu    0.50000   0.83333   0.45311   0.00000  Uiso   1.00
H1043  H     0.53790   0.70728   0.43875   0.00000  Uiso   1.00
H1044  H     0.46210   0.95939   0.56125   0.00000  Uiso   1.00
H1045  H     0.43803   0.79163   0.37160   0.00000  Uiso   1.00
H1046  H     0.56197   0.87503   0.62840   0.00000  Uiso   1.00
N1047  N     0.50001   0.83334   0.61736   0.00000  Uiso   1.00
N1048  N     0.49999   0.83332   0.38264   0.00000  Uiso   1.00
O1049  O     0.50000   0.77322   0.53958   0.00000  Uiso   1.00
O1050  O     0.50000   0.89345   0.46042   0.00000  Uiso   1.00
O1051  O     0.50000   0.77321   0.46039   0.00000  Uiso   1.00
O1052  O     0.50000   0.89346   0.53961   0.00000  Uiso   1.00
O1053  O     0.42495   0.83334   0.53046   0.00000  Uiso   1.00
O1054  O     0.57505   0.83333   0.46954   0.00000  Uiso   1.00
O1055  O     0.42494   0.83333   0.45127   0.00000  Uiso   1.00
O1056  O     0.57506   0.83334   0.54873   0.00000  Uiso   1.00
N1057  N     0.65732   0.80002   0.44619   0.00000  Uiso   1.00
H1058  H     0.34063   0.80287   0.41546   0.00000  Uiso   1.00
C1059  C     0.65168   0.75735   0.45996   0.00000  Uiso   1.00
H1060  H     0.63167   0.73988   0.42981   0.00000  Uiso   1.00
H1061  H     0.62845   0.75454   0.48981   0.00000  Uiso   1.00
H1062  H     0.35667   0.74367   0.47039   0.00000  Uiso   1.00
N1063  N     0.34268   0.86664   0.55381   0.00000  Uiso   1.00
H1064  H     0.65937   0.86379   0.58454   0.00000  Uiso   1.00
C1065  C     0.34832   0.90931   0.54004   0.00000  Uiso   1.00
H1066  H     0.36833   0.92679   0.57019   0.00000  Uiso   1.00
H1067  H     0.64333   0.92300   0.52961   0.00000  Uiso   1.00
H1068  H     0.37155   0.91213   0.51019   0.00000  Uiso   1.00
O1069  O     0.54348   0.95963   0.42887   0.00000  Uiso   1.00
C1070  C     0.52331   0.97323   0.38331   0.00000  Uiso   1.00
H1071  H     0.54272   0.66886   0.37384   0.00000  Uiso   1.00
H1072  H     0.48088   0.97703   0.37969   0.00000  Uiso   1.00
H1073  H     0.53120   0.94989   0.35735   0.00000  Uiso   1.00
O1074  O     0.45652   0.70704   0.57113   0.00000  Uiso   1.00
C1075  C     0.47669   0.69344   0.61669   0.00000  Uiso   1.00
H1076  H     0.46880   0.71678   0.64266   0.00000  Uiso   1.00
H1077  H     0.51911   0.68964   0.62031   0.00000  Uiso   1.00
H1078  H     0.45727   0.99781   0.62616   0.00000  Uiso   1.00
O1079  O     0.42927   0.78699   0.60830   0.00000  Uiso   1.00
C1080  C     0.38091   0.78256   0.62474   0.00000  Uiso   1.00
H1081  H     0.36793   0.81165   0.63932   0.00000  Uiso   1.00
H1082  H     0.38155   0.75715   0.65113   0.00000  Uiso   1.00
H1083  H     0.35217   0.77397   0.59456   0.00000  Uiso   1.00
O1084  O     0.57074   0.87967   0.39170   0.00000  Uiso   1.00
C1085  C     0.61909   0.88411   0.37526   0.00000  Uiso   1.00
H1086  H     0.61844   0.90952   0.34887   0.00000  Uiso   1.00
H1087  H     0.63207   0.85502   0.36068   0.00000  Uiso   1.00
H1088  H     0.64783   0.89269   0.40544   0.00000  Uiso   1.00
C1089  C     0.83277   0.75406   0.50026   0.00000  Uiso   1.00
C1090  C     0.83389   0.91261   0.49974   0.00000  Uiso   1.00
C1091  C     0.73485   0.83222   0.48832   0.00000  Uiso   1.00
C1092  C     0.93182   0.83444   0.51168   0.00000  Uiso   1.00
C1093  C     0.68020   0.82596   0.48333   0.00000  Uiso   1.00
C1094  C     0.98647   0.84071   0.51667   0.00000  Uiso   1.00
C1095  C     0.85378   0.68940   0.46488   0.00000  Uiso   1.00
C1096  C     0.81289   0.97727   0.53512   0.00000  Uiso   1.00
C1097  C     0.85373   0.97986   0.46302   0.00000  Uiso   1.00
C1098  C     0.81294   0.68680   0.53698   0.00000  Uiso   1.00
C1099  C     0.83392   0.95726   0.49916   0.00000  Uiso   1.00
C1100  C     0.83274   0.70941   0.50084   0.00000  Uiso   1.00
C1101  C     0.79819   0.81041   0.35466   0.00000  Uiso   1.00
C1102  C     0.86848   0.85625   0.64534   0.00000  Uiso   1.00
C1103  C     0.79716   0.81078   0.63776   0.00000  Uiso   1.00
C1104  C     0.86951   0.85589   0.36225   0.00000  Uiso   1.00
Cu1105 Cu    0.83333   0.83334   0.54689   0.00000  Uiso   1.00
Cu1106 Cu    0.83333   0.83333   0.45311   0.00000  Uiso   1.00
H1107  H     0.87124   0.70728   0.43875   0.00000  Uiso   1.00
H1108  H     0.79543   0.95939   0.56125   0.00000  Uiso   1.00
H1109  H     0.77136   0.79163   0.37160   0.00000  Uiso   1.00
H1110  H     0.89531   0.87503   0.62840   0.00000  Uiso   1.00
N1111  N     0.83335   0.83334   0.61736   0.00000  Uiso   1.00
N1112  N     0.83332   0.83332   0.38264   0.00000  Uiso   1.00
O1113  O     0.83333   0.77322   0.53958   0.00000  Uiso   1.00
O1114  O     0.83334   0.89345   0.46042   0.00000  Uiso   1.00
O1115  O     0.83333   0.77321   0.46039   0.00000  Uiso   1.00
O1116  O     0.83334   0.89346   0.53961   0.00000  Uiso   1.00
O1117  O     0.75828   0.83334   0.53046   0.00000  Uiso   1.00
O1118  O     0.90839   0.83333   0.46954   0.00000  Uiso   1.00
O1119  O     0.75828   0.83333   0.45127   0.00000  Uiso   1.00
O1120  O     0.90839   0.83334   0.54873   0.00000  Uiso   1.00
N1121  N     0.99066   0.80002   0.44619   0.00000  Uiso   1.00
H1122  H     0.67396   0.80287   0.41546   0.00000  Uiso   1.00
C1123  C     0.98501   0.75735   0.45996   0.00000  Uiso   1.00
H1124  H     0.96501   0.73988   0.42981   0.00000  Uiso   1.00
H1125  H     0.96178   0.75454   0.48981   0.00000  Uiso   1.00
H1126  H     0.69000   0.74367   0.47039   0.00000  Uiso   1.00
N1127  N     0.67601   0.86664   0.55381   0.00000  Uiso   1.00
H1128  H     0.99270   0.86379   0.58454   0.00000  Uiso   1.00
C1129  C     0.68165   0.90931   0.54004   0.00000  Uiso   1.00
H1130  H     0.70166   0.92679   0.57019   0.00000  Uiso   1.00
H1131  H     0.97666   0.92300   0.52961   0.00000  Uiso   1.00
H1132  H     0.70489   0.91213   0.51019   0.00000  Uiso   1.00
O1133  O     0.87682   0.95963   0.42887   0.00000  Uiso   1.00
C1134  C     0.85664   0.97323   0.38331   0.00000  Uiso   1.00
H1135  H     0.87606   0.66886   0.37384   0.00000  Uiso   1.00
H1136  H     0.81422   0.97703   0.37969   0.00000  Uiso   1.00
H1137  H     0.86453   0.94989   0.35735   0.00000  Uiso   1.00
O1138  O     0.78985   0.70704   0.57113   0.00000  Uiso   1.00
C1139  C     0.81002   0.69344   0.61669   0.00000  Uiso   1.00
H1140  H     0.80214   0.71678   0.64266   0.00000  Uiso   1.00
H1141  H     0.85245   0.68964   0.62031   0.00000  Uiso   1.00
H1142  H     0.79061   0.99781   0.62616   0.00000  Uiso   1.00
O1143  O     0.76260   0.78699   0.60830   0.00000  Uiso   1.00
C1144  C     0.71424   0.78256   0.62474   0.00000  Uiso   1.00
H1145  H     0.70126   0.81165   0.63932   0.00000  Uiso   1.00
H1146  H     0.71489   0.75715   0.65113   0.00000  Uiso   1.00
H1147  H     0.68550   0.77397   0.59456   0.00000  Uiso   1.00
O1148  O     0.90407   0.87967   0.39170   0.00000  Uiso   1.00
C1149  C     0.95243   0.88411   0.37526   0.00000  Uiso   1.00
H1150  H     0.95178   0.90952   0.34887   0.00000  Uiso   1.00
H1151  H     0.96540   0.85502   0.36068   0.00000  Uiso   1.00
H1152  H     0.98117   0.89269   0.40544   0.00000  Uiso   1.00
C1153  C     0.16611   0.08739   0.83359   0.00000  Uiso   1.00
C1154  C     0.16723   0.24594   0.83307   0.00000  Uiso   1.00
C1155  C     0.06818   0.16556   0.82165   0.00000  Uiso   1.00
C1156  C     0.26515   0.16778   0.84501   0.00000  Uiso   1.00
C1157  C     0.01353   0.15929   0.81666   0.00000  Uiso   1.00
C1158  C     0.31980   0.17404   0.85000   0.00000  Uiso   1.00
C1159  C     0.18711   0.02273   0.79822   0.00000  Uiso   1.00
C1160  C     0.14622   0.31060   0.86845   0.00000  Uiso   1.00
C1161  C     0.18706   0.31320   0.79635   0.00000  Uiso   1.00
C1162  C     0.14627   0.02014   0.87032   0.00000  Uiso   1.00
C1163  C     0.16726   0.29059   0.83249   0.00000  Uiso   1.00
C1164  C     0.16608   0.04274   0.83417   0.00000  Uiso   1.00
C1165  C     0.13152   0.14375   0.68799   0.00000  Uiso   1.00
C1166  C     0.20181   0.18959   0.97868   0.00000  Uiso   1.00
C1167  C     0.13049   0.14411   0.97109   0.00000  Uiso   1.00
C1168  C     0.20284   0.18922   0.69558   0.00000  Uiso   1.00
Cu1169 Cu    0.16667   0.16667   0.88022   0.00000  Uiso   1.00
Cu1170 Cu    0.16667   0.16666   0.78645   0.00000  Uiso   1.00
H1171  H     0.20457   0.04061   0.77208   0.00000  Uiso   1.00
H1172  H     0.12876   0.29272   0.89459   0.00000  Uiso   1.00
H1173  H     0.10469   0.12496   0.70493   0.00000  Uiso   1.00
H1174  H     0.22864   0.20837   0.96173   0.00000  Uiso   1.00
N1175  N     0.16668   0.16668   0.95069   0.00000  Uiso   1.00
N1176  N     0.16665   0.16666   0.71597   0.00000  Uiso   1.00
O1177  O     0.16666   0.10655   0.87291   0.00000  Uiso   1.00
O1178  O     0.16667   0.22678   0.79375   0.00000  Uiso   1.00
O1179  O     0.16666   0.10654   0.79372   0.00000  Uiso   1.00
O1180  O     0.16667   0.22679   0.87294   0.00000  Uiso   1.00
O1181  O     0.09161   0.16667   0.86379   0.00000  Uiso   1.00
O1182  O     0.24172   0.16666   0.80288   0.00000  Uiso   1.00
O1183  O     0.09161   0.16666   0.78460   0.00000  Uiso   1.00
O1184  O     0.24172   0.16667   0.88207   0.00000  Uiso   1.00
N1185  N     0.32399   0.13336   0.77952   0.00000  Uiso   1.00
H1186  H     0.00730   0.13621   0.74879   0.00000  Uiso   1.00
C1187  C     0.31835   0.09069   0.79329   0.00000  Uiso   1.00
H1188  H     0.29834   0.07321   0.76315   0.00000  Uiso   1.00
H1189  H     0.29511   0.08787   0.82314   0.00000  Uiso   1.00
H1190  H     0.02334   0.07700   0.80372   0.00000  Uiso   1.00
N1191  N     0.00934   0.19998   0.88714   0.00000  Uiso   1.00
H1192  H     0.32604   0.19713   0.91788   0.00000  Uiso   1.00
C1193  C     0.01499   0.24265   0.87337   0.00000  Uiso   1.00
H1194  H     0.03499   0.26012   0.90352   0.00000  Uiso   1.00
H1195  H     0.31000   0.25633   0.86295   0.00000  Uiso   1.00
H1196  H     0.03822   0.24546   0.84352   0.00000  Uiso   1.00
O1197  O     0.21015   0.29296   0.76220   0.00000  Uiso   1.00
C1198  C     0.18998   0.30656   0.71664   0.00000  Uiso   1.00
H1199  H     0.20939   0.00219   0.70717   0.00000  Uiso   1.00
H1200  H     0.14755   0.31036   0.71302   0.00000  Uiso   1.00
H1201  H     0.19786   0.28322   0.69068   0.00000  Uiso   1.00
O1202  O     0.12318   0.04037   0.90447   0.00000  Uiso   1.00
C1203  C     0.14335   0.02677   0.95003   0.00000  Uiso   1.00
H1204  H     0.13547   0.05011   0.97599   0.00000  Uiso   1.00
H1205  H     0.18578   0.02297   0.95365   0.00000  Uiso   1.00
H1206  H     0.12394   0.33114   0.95949   0.00000  Uiso   1.00
O1207  O     0.09593   0.12032   0.94164   0.00000  Uiso   1.00
C1208  C     0.04757   0.11589   0.95807   0.00000  Uiso   1.00
H1209  H     0.03460   0.14498   0.97265   0.00000  Uiso   1.00
H1210  H     0.04822   0.09048   0.98447   0.00000  Uiso   1.00
H1211  H     0.01883   0.10731   0.92789   0.00000  Uiso   1.00
O1212  O     0.23740   0.21301   0.72503   0.00000  Uiso   1.00
C1213  C     0.28576   0.21744   0.70859   0.00000  Uiso   1.00
H1214  H     0.28511   0.24285   0.68220   0.00000  Uiso   1.00
H1215  H     0.29874   0.18835   0.69402   0.00000  Uiso   1.00
H1216  H     0.31450   0.22603   0.73878   0.00000  Uiso   1.00
C1217  C     0.49944   0.08739   0.83359   0.00000  Uiso   1.00
C1218  C     0.50056   0.24594   0.83307   0.00000  Uiso   1.00
C1219  C     0.40151   0.16556   0.82165   0.00000  Uiso   1.00
C1220  C     0.59849   0.16778   0.84501   0.00000  Uiso   1.00
C1221  C     0.34686   0.15929   0.81666   0.00000  Uiso   1.00
C1222  C     0.65314   0.17404   0.85000   0.00000  Uiso   1.00
C1223  C     0.52044   0.02273   0.79822   0.00000  Uiso   1.00
C1224  C     0.47956   0.31060   0.86845   0.00000  Uiso   1.00
C1225  C     0.52040   0.31320   0.79635   0.00000  Uiso   1.00
C1226  C     0.47960   0.02014   0.87032   0.00000  Uiso   1.00
C1227  C     0.50059   0.29059   0.83249   0.00000  Uiso   1.00
C1228  C     0.49941   0.04274   0.83417   0.00000  Uiso   1.00
C1229  C     0.46485   0.14375   0.68799   0.00000  Uiso   1.00
C1230  C     0.53515   0.18959   0.97868   0.00000  Uiso   1.00
C1231  C     0.46383   0.14411   0.97109   0.00000  Uiso   1.00
C1232  C     0.53618   0.18922   0.69558   0.00000  Uiso   1.00
Cu1233 Cu    0.50000   0.16667   0.88022   0.00000  Uiso   1.00
Cu1234 Cu    0.50000   0.16666   0.78645   0.00000  Uiso   1.00
H1235  H     0.53790   0.04061   0.77208   0.00000  Uiso   1.00
H1236  H     0.46210   0.29272   0.89459   0.00000  Uiso   1.00
H1237  H     0.43803   0.12496   0.70493   0.00000  Uiso   1.00
H1238  H     0.56197   0.20837   0.96173   0.00000  Uiso   1.00
N1239  N     0.50001   0.16668   0.95069   0.00000  Uiso   1.00
N1240  N     0.49999   0.16666   0.71597   0.00000  Uiso   1.00
O1241  O     0.50000   0.10655   0.87291   0.00000  Uiso   1.00
O1242  O     0.50000   0.22678   0.79375   0.00000  Uiso   1.00
O1243  O     0.50000   0.10654   0.79372   0.00000  Uiso   1.00
O1244  O     0.50000   0.22679   0.87294   0.00000  Uiso   1.00
O1245  O     0.42495   0.16667   0.86379   0.00000  Uiso   1.00
O1246  O     0.57505   0.16666   0.80288   0.00000  Uiso   1.00
O1247  O     0.42494   0.16666   0.78460   0.00000  Uiso   1.00
O1248  O     0.57506   0.16667   0.88207   0.00000  Uiso   1.00
N1249  N     0.65732   0.13336   0.77952   0.00000  Uiso   1.00
H1250  H     0.34063   0.13621   0.74879   0.00000  Uiso   1.00
C1251  C     0.65168   0.09069   0.79329   0.00000  Uiso   1.00
H1252  H     0.63167   0.07321   0.76315   0.00000  Uiso   1.00
H1253  H     0.62845   0.08787   0.82314   0.00000  Uiso   1.00
H1254  H     0.35667   0.07700   0.80372   0.00000  Uiso   1.00
N1255  N     0.34268   0.19998   0.88714   0.00000  Uiso   1.00
H1256  H     0.65937   0.19713   0.91788   0.00000  Uiso   1.00
C1257  C     0.34832   0.24265   0.87337   0.00000  Uiso   1.00
H1258  H     0.36833   0.26012   0.90352   0.00000  Uiso   1.00
H1259  H     0.64333   0.25633   0.86295   0.00000  Uiso   1.00
H1260  H     0.37155   0.24546   0.84352   0.00000  Uiso   1.00
O1261  O     0.54348   0.29296   0.76220   0.00000  Uiso   1.00
C1262  C     0.52331   0.30656   0.71664   0.00000  Uiso   1.00
H1263  H     0.54272   0.00219   0.70717   0.00000  Uiso   1.00
H1264  H     0.48088   0.31036   0.71302   0.00000  Uiso   1.00
H1265  H     0.53120   0.28322   0.69068   0.00000  Uiso   1.00
O1266  O     0.45652   0.04037   0.90447   0.00000  Uiso   1.00
C1267  C     0.47669   0.02677   0.95003   0.00000  Uiso   1.00
H1268  H     0.46880   0.05011   0.97599   0.00000  Uiso   1.00
H1269  H     0.51911   0.02297   0.95365   0.00000  Uiso   1.00
H1270  H     0.45727   0.33114   0.95949   0.00000  Uiso   1.00
O1271  O     0.42927   0.12032   0.94164   0.00000  Uiso   1.00
C1272  C     0.38091   0.11589   0.95807   0.00000  Uiso   1.00
H1273  H     0.36793   0.14498   0.97265   0.00000  Uiso   1.00
H1274  H     0.38155   0.09048   0.98447   0.00000  Uiso   1.00
H1275  H     0.35217   0.10731   0.92789   0.00000  Uiso   1.00
O1276  O     0.57074   0.21301   0.72503   0.00000  Uiso   1.00
C1277  C     0.61909   0.21744   0.70859   0.00000  Uiso   1.00
H1278  H     0.61844   0.24285   0.68220   0.00000  Uiso   1.00
H1279  H     0.63207   0.18835   0.69402   0.00000  Uiso   1.00
H1280  H     0.64783   0.22603   0.73878   0.00000  Uiso   1.00
C1281  C     0.83277   0.08739   0.83359   0.00000  Uiso   1.00
C1282  C     0.83389   0.24594   0.83307   0.00000  Uiso   1.00
C1283  C     0.73485   0.16556   0.82165   0.00000  Uiso   1.00
C1284  C     0.93182   0.16778   0.84501   0.00000  Uiso   1.00
C1285  C     0.68020   0.15929   0.81666   0.00000  Uiso   1.00
C1286  C     0.98647   0.17404   0.85000   0.00000  Uiso   1.00
C1287  C     0.85378   0.02273   0.79822   0.00000  Uiso   1.00
C1288  C     0.81289   0.31060   0.86845   0.00000  Uiso   1.00
C1289  C     0.85373   0.31320   0.79635   0.00000  Uiso   1.00
C1290  C     0.81294   0.02014   0.87032   0.00000  Uiso   1.00
C1291  C     0.83392   0.29059   0.83249   0.00000  Uiso   1.00
C1292  C     0.83274   0.04274   0.83417   0.00000  Uiso   1.00
C1293  C     0.79819   0.14375   0.68799   0.00000  Uiso   1.00
C1294  C     0.86848   0.18959   0.97868   0.00000  Uiso   1.00
C1295  C     0.79716   0.14411   0.97109   0.00000  Uiso   1.00
C1296  C     0.86951   0.18922   0.69558   0.00000  Uiso   1.00
Cu1297 Cu    0.83333   0.16667   0.88022   0.00000  Uiso   1.00
Cu1298 Cu    0.83333   0.16666   0.78645   0.00000  Uiso   1.00
H1299  H     0.87124   0.04061   0.77208   0.00000  Uiso   1.00
H1300  H     0.79543   0.29272   0.89459   0.00000  Uiso   1.00
H1301  H     0.77136   0.12496   0.70493   0.00000  Uiso   1.00
H1302  H     0.89531   0.20837   0.96173   0.00000  Uiso   1.00
N1303  N     0.83335   0.16668   0.95069   0.00000  Uiso   1.00
N1304  N     0.83332   0.16666   0.71597   0.00000  Uiso   1.00
O1305  O     0.83333   0.10655   0.87291   0.00000  Uiso   1.00
O1306  O     0.83334   0.22678   0.79375   0.00000  Uiso   1.00
O1307  O     0.83333   0.10654   0.79372   0.00000  Uiso   1.00
O1308  O     0.83334   0.22679   0.87294   0.00000  Uiso   1.00
O1309  O     0.75828   0.16667   0.86379   0.00000  Uiso   1.00
O1310  O     0.90839   0.16666   0.80288   0.00000  Uiso   1.00
O1311  O     0.75828   0.16666   0.78460   0.00000  Uiso   1.00
O1312  O     0.90839   0.16667   0.88207   0.00000  Uiso   1.00
N1313  N     0.99066   0.13336   0.77952   0.00000  Uiso   1.00
H1314  H     0.67396   0.13621   0.74879   0.00000  Uiso   1.00
C1315  C     0.98501   0.09069   0.79329   0.00000  Uiso   1.00
H1316  H     0.96501   0.07321   0.76315   0.00000  Uiso   1.00
H1317  H     0.96178   0.08787   0.82314   0.00000  Uiso   1.00
H1318  H     0.69000   0.07700   0.80372   0.00000  Uiso   1.00
N1319  N     0.67601   0.19998   0.88714   0.00000  Uiso   1.00
H1320  H     0.99270   0.19713   0.91788   0.00000  Uiso   1.00
C1321  C     0.68165   0.24265   0.87337   0.00000  Uiso   1.00
H1322  H     0.70166   0.26012   0.90352   0.00000  Uiso   1.00
H1323  H     0.97666   0.25633   0.86295   0.00000  Uiso   1.00
H1324  H     0.70489   0.24546   0.84352   0.00000  Uiso   1.00
O1325  O     0.87682   0.29296   0.76220   0.00000  Uiso   1.00
C1326  C     0.85664   0.30656   0.71664   0.00000  Uiso   1.00
H1327  H     0.87606   0.00219   0.70717   0.00000  Uiso   1.00
H1328  H     0.81422   0.31036   0.71302   0.00000  Uiso   1.00
H1329  H     0.86453   0.28322   0.69068   0.00000  Uiso   1.00
O1330  O     0.78985   0.04037   0.90447   0.00000  Uiso   1.00
C1331  C     0.81002   0.02677   0.95003   0.00000  Uiso   1.00
H1332  H     0.80214   0.05011   0.97599   0.00000  Uiso   1.00
H1333  H     0.85245   0.02297   0.95365   0.00000  Uiso   1.00
H1334  H     0.79061   0.33114   0.95949   0.00000  Uiso   1.00
O1335  O     0.76260   0.12032   0.94164   0.00000  Uiso   1.00
C1336  C     0.71424   0.11589   0.95807   0.00000  Uiso   1.00
H1337  H     0.70126   0.14498   0.97265   0.00000  Uiso   1.00
H1338  H     0.71489   0.09048   0.98447   0.00000  Uiso   1.00
H1339  H     0.68550   0.10731   0.92789   0.00000  Uiso   1.00
O1340  O     0.90407   0.21301   0.72503   0.00000  Uiso   1.00
C1341  C     0.95243   0.21744   0.70859   0.00000  Uiso   1.00
H1342  H     0.95178   0.24285   0.68220   0.00000  Uiso   1.00
H1343  H     0.96540   0.18835   0.69402   0.00000  Uiso   1.00
H1344  H     0.98117   0.22603   0.73878   0.00000  Uiso   1.00
C1345  C     0.16611   0.42072   0.83359   0.00000  Uiso   1.00
C1346  C     0.16723   0.57928   0.83307   0.00000  Uiso   1.00
C1347  C     0.06818   0.49889   0.82165   0.00000  Uiso   1.00
C1348  C     0.26515   0.50111   0.84501   0.00000  Uiso   1.00
C1349  C     0.01353   0.49263   0.81666   0.00000  Uiso   1.00
C1350  C     0.31980   0.50737   0.85000   0.00000  Uiso   1.00
C1351  C     0.18711   0.35607   0.79822   0.00000  Uiso   1.00
C1352  C     0.14622   0.64393   0.86845   0.00000  Uiso   1.00
C1353  C     0.18706   0.64653   0.79635   0.00000  Uiso   1.00
C1354  C     0.14627   0.35347   0.87032   0.00000  Uiso   1.00
C1355  C     0.16726   0.62392   0.83249   0.00000  Uiso   1.00
C1356  C     0.16608   0.37608   0.83417   0.00000  Uiso   1.00
C1357  C     0.13152   0.47708   0.68799   0.00000  Uiso   1.00
C1358  C     0.20181   0.52292   0.97868   0.00000  Uiso   1.00
C1359  C     0.13049   0.47745   0.97109   0.00000  Uiso   1.00
C1360  C     0.20284   0.52255   0.69558   0.00000  Uiso   1.00
Cu1361 Cu    0.16667   0.50001   0.88022   0.00000  Uiso   1.00
Cu1362 Cu    0.16667   0.49999   0.78645   0.00000  Uiso   1.00
H1363  H     0.20457   0.37395   0.77208   0.00000  Uiso   1.00
H1364  H     0.12876   0.62605   0.89459   0.00000  Uiso   1.00
H1365  H     0.10469   0.45830   0.70493   0.00000  Uiso   1.00
H1366  H     0.22864   0.54170   0.96173   0.00000  Uiso   1.00
N1367  N     0.16668   0.50001   0.95069   0.00000  Uiso   1.00
N1368  N     0.16665   0.49999   0.71597   0.00000  Uiso   1.00
O1369  O     0.16666   0.43989   0.87291   0.00000  Uiso   1.00
O1370  O     0.16667   0.56011   0.79375   0.00000  Uiso   1.00
O1371  O     0.16666   0.43988   0.79372   0.00000  Uiso   1.00
O1372  O     0.16667   0.56012   0.87294   0.00000  Uiso   1.00
O1373  O     0.09161   0.50000   0.86379   0.00000  Uiso   1.00
O1374  O     0.24172   0.50000   0.80288   0.00000  Uiso   1.00
O1375  O     0.09161   0.49999   0.78460   0.00000  Uiso   1.00
O1376  O     0.24172   0.50001   0.88207   0.00000  Uiso   1.00
N1377  N     0.32399   0.46669   0.77952   0.00000  Uiso   1.00
H1378  H     0.00730   0.46954   0.74879   0.00000  Uiso   1.00
C1379  C     0.31835   0.42402   0.79329   0.00000  Uiso   1.00
H1380  H     0.29834   0.40655   0.76315   0.00000  Uiso   1.00
H1381  H     0.29511   0.42120   0.82314   0.00000  Uiso   1.00
H1382  H     0.02334   0.41034   0.80372   0.00000  Uiso   1.00
N1383  N     0.00934   0.53331   0.88714   0.00000  Uiso   1.00
H1384  H     0.32604   0.53046   0.91788   0.00000  Uiso   1.00
C1385  C     0.01499   0.57598   0.87337   0.00000  Uiso   1.00
H1386  H     0.03499   0.59345   0.90352   0.00000  Uiso   1.00
H1387  H     0.31000   0.58966   0.86295   0.00000  Uiso   1.00
H1388  H     0.03822   0.57880   0.84352   0.00000  Uiso   1.00
O1389  O     0.21015   0.62629   0.76220   0.00000  Uiso   1.00
C1390  C     0.18998   0.63990   0.71664   0.00000  Uiso   1.00
H1391  H     0.20939   0.33553   0.70717   0.00000  Uiso   1.00
H1392  H     0.14755   0.64369   0.71302   0.00000  Uiso   1.00
H1393  H     0.19786   0.61656   0.69068   0.00000  Uiso   1.00
O1394  O     0.12318   0.37371   0.90447   0.00000  Uiso   1.00
C1395  C     0.14335   0.36010   0.95003   0.00000  Uiso   1.00
H1396  H     0.13547   0.38344   0.97599   0.00000  Uiso   1.00
H1397  H     0.18578   0.35630   0.95365   0.00000  Uiso   1.00
H1398  H     0.12394   0.66447   0.95949   0.00000  Uiso   1.00
O1399  O     0.09593   0.45366   0.94164   0.00000  Uiso   1.00
C1400  C     0.04757   0.44923   0.95807   0.00000  Uiso   1.00
H1401  H     0.03460   0.47832   0.97265   0.00000  Uiso   1.00
H1402  H     0.04822   0.42382   0.98447   0.00000  Uiso   1.00
H1403  H     0.01883   0.44064   0.92789   0.00000  Uiso   1.00
O1404  O     0.23740   0.54634   0.72503   0.00000  Uiso   1.00
C1405  C     0.28576   0.55078   0.70859   0.00000  Uiso   1.00
H1406  H     0.28511   0.57619   0.68220   0.00000  Uiso   1.00
H1407  H     0.29874   0.52169   0.69402   0.00000  Uiso   1.00
H1408  H     0.31450   0.55936   0.73878   0.00000  Uiso   1.00
C1409  C     0.49944   0.42072   0.83359   0.00000  Uiso   1.00
C1410  C     0.50056   0.57928   0.83307   0.00000  Uiso   1.00
C1411  C     0.40151   0.49889   0.82165   0.00000  Uiso   1.00
C1412  C     0.59849   0.50111   0.84501   0.00000  Uiso   1.00
C1413  C     0.34686   0.49263   0.81666   0.00000  Uiso   1.00
C1414  C     0.65314   0.50737   0.85000   0.00000  Uiso   1.00
C1415  C     0.52044   0.35607   0.79822   0.00000  Uiso   1.00
C1416  C     0.47956   0.64393   0.86845   0.00000  Uiso   1.00
C1417  C     0.52040   0.64653   0.79635   0.00000  Uiso   1.00
C1418  C     0.47960   0.35347   0.87032   0.00000  Uiso   1.00
C1419  C     0.50059   0.62392   0.83249   0.00000  Uiso   1.00
C1420  C     0.49941   0.37608   0.83417   0.00000  Uiso   1.00
C1421  C     0.46485   0.47708   0.68799   0.00000  Uiso   1.00
C1422  C     0.53515   0.52292   0.97868   0.00000  Uiso   1.00
C1423  C     0.46383   0.47745   0.97109   0.00000  Uiso   1.00
C1424  C     0.53618   0.52255   0.69558   0.00000  Uiso   1.00
Cu1425 Cu    0.50000   0.50001   0.88022   0.00000  Uiso   1.00
Cu1426 Cu    0.50000   0.49999   0.78645   0.00000  Uiso   1.00
H1427  H     0.53790   0.37395   0.77208   0.00000  Uiso   1.00
H1428  H     0.46210   0.62605   0.89459   0.00000  Uiso   1.00
H1429  H     0.43803   0.45830   0.70493   0.00000  Uiso   1.00
H1430  H     0.56197   0.54170   0.96173   0.00000  Uiso   1.00
N1431  N     0.50001   0.50001   0.95069   0.00000  Uiso   1.00
N1432  N     0.49999   0.49999   0.71597   0.00000  Uiso   1.00
O1433  O     0.50000   0.43989   0.87291   0.00000  Uiso   1.00
O1434  O     0.50000   0.56011   0.79375   0.00000  Uiso   1.00
O1435  O     0.50000   0.43988   0.79372   0.00000  Uiso   1.00
O1436  O     0.50000   0.56012   0.87294   0.00000  Uiso   1.00
O1437  O     0.42495   0.50000   0.86379   0.00000  Uiso   1.00
O1438  O     0.57505   0.50000   0.80288   0.00000  Uiso   1.00
O1439  O     0.42494   0.49999   0.78460   0.00000  Uiso   1.00
O1440  O     0.57506   0.50001   0.88207   0.00000  Uiso   1.00
N1441  N     0.65732   0.46669   0.77952   0.00000  Uiso   1.00
H1442  H     0.34063   0.46954   0.74879   0.00000  Uiso   1.00
C1443  C     0.65168   0.42402   0.79329   0.00000  Uiso   1.00
H1444  H     0.63167   0.40655   0.76315   0.00000  Uiso   1.00
H1445  H     0.62845   0.42120   0.82314   0.00000  Uiso   1.00
H1446  H     0.35667   0.41034   0.80372   0.00000  Uiso   1.00
N1447  N     0.34268   0.53331   0.88714   0.00000  Uiso   1.00
H1448  H     0.65937   0.53046   0.91788   0.00000  Uiso   1.00
C1449  C     0.34832   0.57598   0.87337   0.00000  Uiso   1.00
H1450  H     0.36833   0.59345   0.90352   0.00000  Uiso   1.00
H1451  H     0.64333   0.58966   0.86295   0.00000  Uiso   1.00
H1452  H     0.37155   0.57880   0.84352   0.00000  Uiso   1.00
O1453  O     0.54348   0.62629   0.76220   0.00000  Uiso   1.00
C1454  C     0.52331   0.63990   0.71664   0.00000  Uiso   1.00
H1455  H     0.54272   0.33553   0.70717   0.00000  Uiso   1.00
H1456  H     0.48088   0.64369   0.71302   0.00000  Uiso   1.00
H1457  H     0.53120   0.61656   0.69068   0.00000  Uiso   1.00
O1458  O     0.45652   0.37371   0.90447   0.00000  Uiso   1.00
C1459  C     0.47669   0.36010   0.95003   0.00000  Uiso   1.00
H1460  H     0.46880   0.38344   0.97599   0.00000  Uiso   1.00
H1461  H     0.51911   0.35630   0.95365   0.00000  Uiso   1.00
H1462  H     0.45727   0.66447   0.95949   0.00000  Uiso   1.00
O1463  O     0.42927   0.45366   0.94164   0.00000  Uiso   1.00
C1464  C     0.38091   0.44923   0.95807   0.00000  Uiso   1.00
H1465  H     0.36793   0.47832   0.97265   0.00000  Uiso   1.00
H1466  H     0.38155   0.42382   0.98447   0.00000  Uiso   1.00
H1467  H     0.35217   0.44064   0.92789   0.00000  Uiso   1.00
O1468  O     0.57074   0.54634   0.72503   0.00000  Uiso   1.00
C1469  C     0.61909   0.55078   0.70859   0.00000  Uiso   1.00
H1470  H     0.61844   0.57619   0.68220   0.00000  Uiso   1.00
H1471  H     0.63207   0.52169   0.69402   0.00000  Uiso   1.00
H1472  H     0.64783   0.55936   0.73878   0.00000  Uiso   1.00
C1473  C     0.83277   0.42072   0.83359   0.00000  Uiso   1.00
C1474  C     0.83389   0.57928   0.83307   0.00000  Uiso   1.00
C1475  C     0.73485   0.49889   0.82165   0.00000  Uiso   1.00
C1476  C     0.93182   0.50111   0.84501   0.00000  Uiso   1.00
C1477  C     0.68020   0.49263   0.81666   0.00000  Uiso   1.00
C1478  C     0.98647   0.50737   0.85000   0.00000  Uiso   1.00
C1479  C     0.85378   0.35607   0.79822   0.00000  Uiso   1.00
C1480  C     0.81289   0.64393   0.86845   0.00000  Uiso   1.00
C1481  C     0.85373   0.64653   0.79635   0.00000  Uiso   1.00
C1482  C     0.81294   0.35347   0.87032   0.00000  Uiso   1.00
C1483  C     0.83392   0.62392   0.83249   0.00000  Uiso   1.00
C1484  C     0.83274   0.37608   0.83417   0.00000  Uiso   1.00
C1485  C     0.79819   0.47708   0.68799   0.00000  Uiso   1.00
C1486  C     0.86848   0.52292   0.97868   0.00000  Uiso   1.00
C1487  C     0.79716   0.47745   0.97109   0.00000  Uiso   1.00
C1488  C     0.86951   0.52255   0.69558   0.00000  Uiso   1.00
Cu1489 Cu    0.83333   0.50001   0.88022   0.00000  Uiso   1.00
Cu1490 Cu    0.83333   0.49999   0.78645   0.00000  Uiso   1.00
H1491  H     0.87124   0.37395   0.77208   0.00000  Uiso   1.00
H1492  H     0.79543   0.62605   0.89459   0.00000  Uiso   1.00
H1493  H     0.77136   0.45830   0.70493   0.00000  Uiso   1.00
H1494  H     0.89531   0.54170   0.96173   0.00000  Uiso   1.00
N1495  N     0.83335   0.50001   0.95069   0.00000  Uiso   1.00
N1496  N     0.83332   0.49999   0.71597   0.00000  Uiso   1.00
O1497  O     0.83333   0.43989   0.87291   0.00000  Uiso   1.00
O1498  O     0.83334   0.56011   0.79375   0.00000  Uiso   1.00
O1499  O     0.83333   0.43988   0.79372   0.00000  Uiso   1.00
O1500  O     0.83334   0.56012   0.87294   0.00000  Uiso   1.00
O1501  O     0.75828   0.50000   0.86379   0.00000  Uiso   1.00
O1502  O     0.90839   0.50000   0.80288   0.00000  Uiso   1.00
O1503  O     0.75828   0.49999   0.78460   0.00000  Uiso   1.00
O1504  O     0.90839   0.50001   0.88207   0.00000  Uiso   1.00
N1505  N     0.99066   0.46669   0.77952   0.00000  Uiso   1.00
H1506  H     0.67396   0.46954   0.74879   0.00000  Uiso   1.00
C1507  C     0.98501   0.42402   0.79329   0.00000  Uiso   1.00
H1508  H     0.96501   0.40655   0.76315   0.00000  Uiso   1.00
H1509  H     0.96178   0.42120   0.82314   0.00000  Uiso   1.00
H1510  H     0.69000   0.41034   0.80372   0.00000  Uiso   1.00
N1511  N     0.67601   0.53331   0.88714   0.00000  Uiso   1.00
H1512  H     0.99270   0.53046   0.91788   0.00000  Uiso   1.00
C1513  C     0.68165   0.57598   0.87337   0.00000  Uiso   1.00
H1514  H     0.70166   0.59345   0.90352   0.00000  Uiso   1.00
H1515  H     0.97666   0.58966   0.86295   0.00000  Uiso   1.00
H1516  H     0.70489   0.57880   0.84352   0.00000  Uiso   1.00
O1517  O     0.87682   0.62629   0.76220   0.00000  Uiso   1.00
C1518  C     0.85664   0.63990   0.71664   0.00000  Uiso   1.00
H1519  H     0.87606   0.33553   0.70717   0.00000  Uiso   1.00
H1520  H     0.81422   0.64369   0.71302   0.00000  Uiso   1.00
H1521  H     0.86453   0.61656   0.69068   0.00000  Uiso   1.00
O1522  O     0.78985   0.37371   0.90447   0.00000  Uiso   1.00
C1523  C     0.81002   0.36010   0.95003   0.00000  Uiso   1.00
H1524  H     0.80214   0.38344   0.97599   0.00000  Uiso   1.00
H1525  H     0.85245   0.35630   0.95365   0.00000  Uiso   1.00
H1526  H     0.79061   0.66447   0.95949   0.00000  Uiso   1.00
O1527  O     0.76260   0.45366   0.94164   0.00000  Uiso   1.00
C1528  C     0.71424   0.44923   0.95807   0.00000  Uiso   1.00
H1529  H     0.70126   0.47832   0.97265   0.00000  Uiso   1.00
H1530  H     0.71489   0.42382   0.98447   0.00000  Uiso   1.00
H1531  H     0.68550   0.44064   0.92789   0.00000  Uiso   1.00
O1532  O     0.90407   0.54634   0.72503   0.00000  Uiso   1.00
C1533  C     0.95243   0.55078   0.70859   0.00000  Uiso   1.00
H1534  H     0.95178   0.57619   0.68220   0.00000  Uiso   1.00
H1535  H     0.96540   0.52169   0.69402   0.00000  Uiso   1.00
H1536  H     0.98117   0.55936   0.73878   0.00000  Uiso   1.00
C1537  C     0.16611   0.75406   0.83359   0.00000  Uiso   1.00
C1538  C     0.16723   0.91261   0.83307   0.00000  Uiso   1.00
C1539  C     0.06818   0.83222   0.82165   0.00000  Uiso   1.00
C1540  C     0.26515   0.83444   0.84501   0.00000  Uiso   1.00
C1541  C     0.01353   0.82596   0.81666   0.00000  Uiso   1.00
C1542  C     0.31980   0.84071   0.85000   0.00000  Uiso   1.00
C1543  C     0.18711   0.68940   0.79822   0.00000  Uiso   1.00
C1544  C     0.14622   0.97727   0.86845   0.00000  Uiso   1.00
C1545  C     0.18706   0.97986   0.79635   0.00000  Uiso   1.00
C1546  C     0.14627   0.68680   0.87032   0.00000  Uiso   1.00
C1547  C     0.16726   0.95726   0.83249   0.00000  Uiso   1.00
C1548  C     0.16608   0.70941   0.83417   0.00000  Uiso   1.00
C1549  C     0.13152   0.81041   0.68799   0.00000  Uiso   1.00
C1550  C     0.20181   0.85625   0.97868   0.00000  Uiso   1.00
C1551  C     0.13049   0.81078   0.97109   0.00000  Uiso   1.00
C1552  C     0.20284   0.85589   0.69558   0.00000  Uiso   1.00
Cu1553 Cu    0.16667   0.83334   0.88022   0.00000  Uiso   1.00
Cu1554 Cu    0.16667   0.83333   0.78645   0.00000  Uiso   1.00
H1555  H     0.20457   0.70728   0.77208   0.00000  Uiso   1.00
H1556  H     0.12876   0.95939   0.89459   0.00000  Uiso   1.00
H1557  H     0.10469   0.79163   0.70493   0.00000  Uiso   1.00
H1558  H     0.22864   0.87503   0.96173   0.00000  Uiso   1.00
N1559  N     0.16668   0.83334   0.95069   0.00000  Uiso   1.00
N1560  N     0.16665   0.83332   0.71597   0.00000  Uiso   1.00
O1561  O     0.16666   0.77322   0.87291   0.00000  Uiso   1.00
O1562  O     0.16667   0.89345   0.79375   0.00000  Uiso   1.00
O1563  O     0.16666   0.77321   0.79372   0.00000  Uiso   1.00
O1564  O     0.16667   0.89346   0.87294   0.00000  Uiso   1.00
O1565  O     0.09161   0.83334   0.86379   0.00000  Uiso   1.00
O1566  O     0.24172   0.83333   0.80288   0.00000  Uiso   1.00
O1567  O     0.09161   0.83333   0.78460   0.00000  Uiso   1.00
O1568  O     0.24172   0.83334   0.88207   0.00000  Uiso   1.00
N1569  N     0.32399   0.80002   0.77952   0.00000  Uiso   1.00
H1570  H     0.00730   0.80287   0.74879   0.00000  Uiso   1.00
C1571  C     0.31835   0.75735   0.79329   0.00000  Uiso   1.00
H1572  H     0.29834   0.73988   0.76315   0.00000  Uiso   1.00
H1573  H     0.29511   0.75454   0.82314   0.00000  Uiso   1.00
H1574  H     0.02334   0.74367   0.80372   0.00000  Uiso   1.00
N1575  N     0.00934   0.86664   0.88714   0.00000  Uiso   1.00
H1576  H     0.32604   0.86379   0.91788   0.00000  Uiso   1.00
C1577  C     0.01499   0.90931   0.87337   0.00000  Uiso   1.00
H1578  H     0.03499   0.92679   0.90352   0.00000  Uiso   1.00
H1579  H     0.31000   0.92300   0.86295   0.00000  Uiso   1.00
H1580  H     0.03822   0.91213   0.84352   0.00000  Uiso   1.00
O1581  O     0.21015   0.95963   0.76220   0.00000  Uiso   1.00
C1582  C     0.18998   0.97323   0.71664   0.00000  Uiso   1.00
H1583  H     0.20939   0.66886   0.70717   0.00000  Uiso   1.00
H1584  H     0.14755   0.97703   0.71302   0.00000  Uiso   1.00
H1585  H     0.19786   0.94989   0.69068   0.00000  Uiso   1.00
O1586  O     0.12318   0.70704   0.90447   0.00000  Uiso   1.00
C1587  C     0.14335   0.69344   0.95003   0.00000  Uiso   1.00
H1588  H     0.13547   0.71678   0.97599   0.00000  Uiso   1.00
H1589  H     0.18578   0.68964   0.95365   0.00000  Uiso   1.00
H1590  H     0.12394   0.99781   0.95949   0.00000  Uiso   1.00
O1591  O     0.09593   0.78699   0.94164   0.00000  Uiso   1.00
C1592  C     0.04757   0.78256   0.95807   0.00000  Uiso   1.00
H1593  H     0.03460   0.81165   0.97265   0.00000  Uiso   1.00
H1594  H     0.04822   0.75715   0.98447   0.00000  Uiso   1.00
H1595  H     0.01883   0.77397   0.92789   0.00000  Uiso   1.00
O1596  O     0.23740   0.87967   0.72503   0.00000  Uiso   1.00
C1597  C     0.28576   0.88411   0.70859   0.00000  Uiso   1.00
H1598  H     0.28511   0.90952   0.68220   0.00000  Uiso   1.00
H1599  H     0.29874   0.85502   0.69402   0.00000  Uiso   1.00
H1600  H     0.31450   0.89269   0.73878   0.00000  Uiso   1.00
C1601  C     0.49944   0.75406   0.83359   0.00000  Uiso   1.00
C1602  C     0.50056   0.91261   0.83307   0.00000  Uiso   1.00
C1603  C     0.40151   0.83222   0.82165   0.00000  Uiso   1.00
C1604  C     0.59849   0.83444   0.84501   0.00000  Uiso   1.00
C1605  C     0.34686   0.82596   0.81666   0.00000  Uiso   1.00
C1606  C     0.65314   0.84071   0.85000   0.00000  Uiso   1.00
C1607  C     0.52044   0.68940   0.79822   0.00000  Uiso   1.00
C1608  C     0.47956   0.97727   0.86845   0.00000  Uiso   1.00
C1609  C     0.52040   0.97986   0.79635   0.00000  Uiso   1.00
C1610  C     0.47960   0.68680   0.87032   0.00000  Uiso   1.00
C1611  C     0.50059   0.95726   0.83249   0.00000  Uiso   1.00
C1612  C     0.49941   0.70941   0.83417   0.00000  Uiso   1.00
C1613  C     0.46485   0.81041   0.68799   0.00000  Uiso   1.00
C1614  C     0.53515   0.85625   0.97868   0.00000  Uiso   1.00
C1615  C     0.46383   0.81078   0.97109   0.00000  Uiso   1.00
C1616  C     0.53618   0.85589   0.69558   0.00000  Uiso   1.00
Cu1617 Cu    0.50000   0.83334   0.88022   0.00000  Uiso   1.00
Cu1618 Cu    0.50000   0.83333   0.78645   0.00000  Uiso   1.00
H1619  H     0.53790   0.70728   0.77208   0.00000  Uiso   1.00
H1620  H     0.46210   0.95939   0.89459   0.00000  Uiso   1.00
H1621  H     0.43803   0.79163   0.70493   0.00000  Uiso   1.00
H1622  H     0.56197   0.87503   0.96173   0.00000  Uiso   1.00
N1623  N     0.50001   0.83334   0.95069   0.00000  Uiso   1.00
N1624  N     0.49999   0.83332   0.71597   0.00000  Uiso   1.00
O1625  O     0.50000   0.77322   0.87291   0.00000  Uiso   1.00
O1626  O     0.50000   0.89345   0.79375   0.00000  Uiso   1.00
O1627  O     0.50000   0.77321   0.79372   0.00000  Uiso   1.00
O1628  O     0.50000   0.89346   0.87294   0.00000  Uiso   1.00
O1629  O     0.42495   0.83334   0.86379   0.00000  Uiso   1.00
O1630  O     0.57505   0.83333   0.80288   0.00000  Uiso   1.00
O1631  O     0.42494   0.83333   0.78460   0.00000  Uiso   1.00
O1632  O     0.57506   0.83334   0.88207   0.00000  Uiso   1.00
N1633  N     0.65732   0.80002   0.77952   0.00000  Uiso   1.00
H1634  H     0.34063   0.80287   0.74879   0.00000  Uiso   1.00
C1635  C     0.65168   0.75735   0.79329   0.00000  Uiso   1.00
H1636  H     0.63167   0.73988   0.76315   0.00000  Uiso   1.00
H1637  H     0.62845   0.75454   0.82314   0.00000  Uiso   1.00
H1638  H     0.35667   0.74367   0.80372   0.00000  Uiso   1.00
N1639  N     0.34268   0.86664   0.88714   0.00000  Uiso   1.00
H1640  H     0.65937   0.86379   0.91788   0.00000  Uiso   1.00
C1641  C     0.34832   0.90931   0.87337   0.00000  Uiso   1.00
H1642  H     0.36833   0.92679   0.90352   0.00000  Uiso   1.00
H1643  H     0.64333   0.92300   0.86295   0.00000  Uiso   1.00
H1644  H     0.37155   0.91213   0.84352   0.00000  Uiso   1.00
O1645  O     0.54348   0.95963   0.76220   0.00000  Uiso   1.00
C1646  C     0.52331   0.97323   0.71664   0.00000  Uiso   1.00
H1647  H     0.54272   0.66886   0.70717   0.00000  Uiso   1.00
H1648  H     0.48088   0.97703   0.71302   0.00000  Uiso   1.00
H1649  H     0.53120   0.94989   0.69068   0.00000  Uiso   1.00
O1650  O     0.45652   0.70704   0.90447   0.00000  Uiso   1.00
C1651  C     0.47669   0.69344   0.95003   0.00000  Uiso   1.00
H1652  H     0.46880   0.71678   0.97599   0.00000  Uiso   1.00
H1653  H     0.51911   0.68964   0.95365   0.00000  Uiso   1.00
H1654  H     0.45727   0.99781   0.95949   0.00000  Uiso   1.00
O1655  O     0.42927   0.78699   0.94164   0.00000  Uiso   1.00
C1656  C     0.38091   0.78256   0.95807   0.00000  Uiso   1.00
H1657  H     0.36793   0.81165   0.97265   0.00000  Uiso   1.00
H1658  H     0.38155   0.75715   0.98447   0.00000  Uiso   1.00
H1659  H     0.35217   0.77397   0.92789   0.00000  Uiso   1.00
O1660  O     0.57074   0.87967   0.72503   0.00000  Uiso   1.00
C1661  C     0.61909   0.88411   0.70859   0.00000  Uiso   1.00
H1662  H     0.61844   0.90952   0.68220   0.00000  Uiso   1.00
H1663  H     0.63207   0.85502   0.69402   0.00000  Uiso   1.00
H1664  H     0.64783   0.89269   0.73878   0.00000  Uiso   1.00
C1665  C     0.83277   0.75406   0.83359   0.00000  Uiso   1.00
C1666  C     0.83389   0.91261   0.83307   0.00000  Uiso   1.00
C1667  C     0.73485   0.83222   0.82165   0.00000  Uiso   1.00
C1668  C     0.93182   0.83444   0.84501   0.00000  Uiso   1.00
C1669  C     0.68020   0.82596   0.81666   0.00000  Uiso   1.00
C1670  C     0.98647   0.84071   0.85000   0.00000  Uiso   1.00
C1671  C     0.85378   0.68940   0.79822   0.00000  Uiso   1.00
C1672  C     0.81289   0.97727   0.86845   0.00000  Uiso   1.00
C1673  C     0.85373   0.97986   0.79635   0.00000  Uiso   1.00
C1674  C     0.81294   0.68680   0.87032   0.00000  Uiso   1.00
C1675  C     0.83392   0.95726   0.83249   0.00000  Uiso   1.00
C1676  C     0.83274   0.70941   0.83417   0.00000  Uiso   1.00
C1677  C     0.79819   0.81041   0.68799   0.00000  Uiso   1.00
C1678  C     0.86848   0.85625   0.97868   0.00000  Uiso   1.00
C1679  C     0.79716   0.81078   0.97109   0.00000  Uiso   1.00
C1680  C     0.86951   0.85589   0.69558   0.00000  Uiso   1.00
Cu1681 Cu    0.83333   0.83334   0.88022   0.00000  Uiso   1.00
Cu1682 Cu    0.83333   0.83333   0.78645   0.00000  Uiso   1.00
H1683  H     0.87124   0.70728   0.77208   0.00000  Uiso   1.00
H1684  H     0.79543   0.95939   0.89459   0.00000  Uiso   1.00
H1685  H     0.77136   0.79163   0.70493   0.00000  Uiso   1.00
H1686  H     0.89531   0.87503   0.96173   0.00000  Uiso   1.00
N1687  N     0.83335   0.83334   0.95069   0.00000  Uiso   1.00
N1688  N     0.83332   0.83332   0.71597   0.00000  Uiso   1.00
O1689  O     0.83333   0.77322   0.87291   0.00000  Uiso   1.00
O1690  O     0.83334   0.89345   0.79375   0.00000  Uiso   1.00
O1691  O     0.83333   0.77321   0.79372   0.00000  Uiso   1.00
O1692  O     0.83334   0.89346   0.87294   0.00000  Uiso   1.00
O1693  O     0.75828   0.83334   0.86379   0.00000  Uiso   1.00
O1694  O     0.90839   0.83333   0.80288   0.00000  Uiso   1.00
O1695  O     0.75828   0.83333   0.78460   0.00000  Uiso   1.00
O1696  O     0.90839   0.83334   0.88207   0.00000  Uiso   1.00
N1697  N     0.99066   0.80002   0.77952   0.00000  Uiso   1.00
H1698  H     0.67396   0.80287   0.74879   0.00000  Uiso   1.00
C1699  C     0.98501   0.75735   0.79329   0.00000  Uiso   1.00
H1700  H     0.96501   0.73988   0.76315   0.00000  Uiso   1.00
H1701  H     0.96178   0.75454   0.82314   0.00000  Uiso   1.00
H1702  H     0.69000   0.74367   0.80372   0.00000  Uiso   1.00
N1703  N     0.67601   0.86664   0.88714   0.00000  Uiso   1.00
H1704  H     0.99270   0.86379   0.91788   0.00000  Uiso   1.00
C1705  C     0.68165   0.90931   0.87337   0.00000  Uiso   1.00
H1706  H     0.70166   0.92679   0.90352   0.00000  Uiso   1.00
H1707  H     0.97666   0.92300   0.86295   0.00000  Uiso   1.00
H1708  H     0.70489   0.91213   0.84352   0.00000  Uiso   1.00
O1709  O     0.87682   0.95963   0.76220   0.00000  Uiso   1.00
C1710  C     0.85664   0.97323   0.71664   0.00000  Uiso   1.00
H1711  H     0.87606   0.66886   0.70717   0.00000  Uiso   1.00
H1712  H     0.81422   0.97703   0.71302   0.00000  Uiso   1.00
H1713  H     0.86453   0.94989   0.69068   0.00000  Uiso   1.00
O1714  O     0.78985   0.70704   0.90447   0.00000  Uiso   1.00
C1715  C     0.81002   0.69344   0.95003   0.00000  Uiso   1.00
H1716  H     0.80214   0.71678   0.97599   0.00000  Uiso   1.00
H1717  H     0.85245   0.68964   0.95365   0.00000  Uiso   1.00
H1718  H     0.79061   0.99781   0.95949   0.00000  Uiso   1.00
O1719  O     0.76260   0.78699   0.94164   0.00000  Uiso   1.00
C1720  C     0.71424   0.78256   0.95807   0.00000  Uiso   1.00
H1721  H     0.70126   0.81165   0.97265   0.00000  Uiso   1.00
H1722  H     0.71489   0.75715   0.98447   0.00000  Uiso   1.00
H1723  H     0.68550   0.77397   0.92789   0.00000  Uiso   1.00
O1724  O     0.90407   0.87967   0.72503   0.00000  Uiso   1.00
C1725  C     0.95243   0.88411   0.70859   0.00000  Uiso   1.00
H1726  H     0.95178   0.90952   0.68220   0.00000  Uiso   1.00
H1727  H     0.96540   0.85502   0.69402   0.00000  Uiso   1.00
H1728  H     0.98117   0.89269   0.73878   0.00000  Uiso   1.00
loop_
_geom_bond_atom_site_label_1
_geom_bond_atom_site_label_2
_geom_bond_distance
_geom_bond_site_symmetry_2
_ccdc_geom_bond_type
C1     O25     1.291   .     A
C1     C12     1.452   .     S
C1     O27     1.294   .     A
C2     C11     1.452   .     S
C2     O28     1.294   .     A
C2     O26     1.291   .     A
C3     O31     1.289   .     A
C3     C5      1.436   .     S
C3     O29     1.284   .     A
C4     O32     1.289   .     A
C4     C6      1.436   .     S
C4     O30     1.284   .     A
C5     C134    1.354   1_455 S
C5     N161    1.431   1_455 S
C6     C69     1.354   .     S
C6     N103    1.431   .     S
C7     H19     1.082   .     S
C7     C12     1.398   .     A
C7     C393    1.396   1_545 S
C8     H20     1.082   .     S
C8     C11     1.398   .     A
C8     C202    1.396   .     S
C9     O45     1.389   .     S
C9     C11     1.407   .     A
C9     C199    1.396   .     S
C10    C12     1.407   .     A
C10    O50     1.389   .     S
C10    C392    1.396   1_545 S
C13    H21     1.080   .     S
C13    N24     1.363   .     A
C13    C1167   1.433   1_554 S
C14    N23     1.363   .     A
C14    H22     1.080   .     S
C14    C592    1.433   .     S
C15    N23     1.373   .     A
C15    O55     1.392   .     S
C15    C589    1.433   .     S
C16    N24     1.373   .     A
C16    O60     1.392   .     S
C16    C1166   1.433   1_554 S
Cu17   O29     1.969   .     S
Cu17   O25     1.969   .     S
Cu17   Cu18    2.682   .     S
Cu17   N23     2.015   .     S
Cu17   O32     1.965   .     S
Cu17   O28     1.963   .     S
Cu18   O30     1.969   .     S
Cu18   O26     1.969   .     S
Cu18   N24     2.015   .     S
Cu18   O31     1.965   .     S
Cu18   O27     1.963   .     S
N33    C35     1.448   .     S
N33    C69     1.431   .     S
N33    H98     1.031   .     S
H34    N161    1.031   1_455 S
C35    H36     1.110   .     S
C35    H37     1.111   .     S
C35    H102    1.112   .     S
H38    C163    1.112   1_455 S
N39    C41     1.448   .     S
N39    C134    1.431   1_455 S
N39    H168    1.031   1_455 S
H40    N103    1.031   .     S
C41    H42     1.110   .     S
C41    H44     1.111   .     S
C41    H171    1.112   1_455 S
H43    C105    1.112   .     S
O45    C46     1.413   .     S
C46    H49     1.108   .     S
C46    H48     1.115   .     S
C46    H239    1.110   .     S
H47    C430    1.110   1_545 S
O50    C51     1.413   .     S
C51    H52     1.108   .     S
C51    H53     1.115   .     S
C51    H438    1.110   1_545 S
H54    C243    1.110   .     S
O55    C56     1.412   .     S
C56    H59     1.109   .     S
C56    H58     1.111   .     S
C56    H57     1.114   .     S
O60    C61     1.412   .     S
C61    H64     1.109   .     S
C61    H62     1.111   .     S
C61    H63     1.114   .     S
C65    O89     1.291   .     A
C65    C76     1.452   .     S
C65    O91     1.294   .     A
C66    C75     1.452   .     S
C66    O92     1.294   .     A
C66    O90     1.291   .     A
C67    O95     1.289   .     A
C67    C69     1.436   .     S
C67    O93     1.284   .     A
C68    O96     1.289   .     A
C68    C70     1.436   .     S
C68    O94     1.284   .     A
C70    C133    1.354   .     S
C70    N167    1.431   .     S
C71    H83     1.082   .     S
C71    C76     1.398   .     A
C71    C457    1.396   1_545 S
C72    H84     1.082   .     S
C72    C75     1.398   .     A
C72    C266    1.396   .     S
C73    O109    1.389   .     S
C73    C75     1.407   .     A
C73    C263    1.396   .     S
C74    C76     1.407   .     A
C74    O114    1.389   .     S
C74    C456    1.396   1_545 S
C77    H85     1.080   .     S
C77    N88     1.363   .     A
C77    C1231   1.433   1_554 S
C78    N87     1.363   .     A
C78    H86     1.080   .     S
C78    C656    1.433   .     S
C79    N87     1.373   .     A
C79    O119    1.392   .     S
C79    C653    1.433   .     S
C80    N88     1.373   .     A
C80    O124    1.392   .     S
C80    C1230   1.433   1_554 S
Cu81   O93     1.969   .     S
Cu81   O89     1.969   .     S
Cu81   Cu82    2.682   .     S
Cu81   N87     2.015   .     S
Cu81   O96     1.965   .     S
Cu81   O92     1.963   .     S
Cu82   O94     1.969   .     S
Cu82   O90     1.969   .     S
Cu82   N88     2.015   .     S
Cu82   O95     1.965   .     S
Cu82   O91     1.963   .     S
N97    C99     1.448   .     S
N97    C133    1.431   .     S
N97    H162    1.031   .     S
C99    H100    1.110   .     S
C99    H101    1.111   .     S
C99    H166    1.112   .     S
N103   C105    1.448   .     S
H104   N167    1.031   .     S
C105   H106    1.110   .     S
C105   H108    1.111   .     S
H107   C169    1.112   .     S
O109   C110    1.413   .     S
C110   H113    1.108   .     S
C110   H112    1.115   .     S
C110   H303    1.110   .     S
H111   C494    1.110   1_545 S
O114   C115    1.413   .     S
C115   H116    1.108   .     S
C115   H117    1.115   .     S
C115   H502    1.110   1_545 S
H118   C307    1.110   .     S
O119   C120    1.412   .     S
C120   H123    1.109   .     S
C120   H122    1.111   .     S
C120   H121    1.114   .     S
O124   C125    1.412   .     S
C125   H128    1.109   .     S
C125   H126    1.111   .     S
C125   H127    1.114   .     S
C129   O153    1.291   .     A
C129   C140    1.452   .     S
C129   O155    1.294   .     A
C130   C139    1.452   .     S
C130   O156    1.294   .     A
C130   O154    1.291   .     A
C131   O159    1.289   .     A
C131   C133    1.436   .     S
C131   O157    1.284   .     A
C132   O160    1.289   .     A
C132   C134    1.436   .     S
C132   O158    1.284   .     A
C134   C5      1.354   1_655 S
C134   N39     1.431   1_655 S
C135   H147    1.082   .     S
C135   C140    1.398   .     A
C135   C521    1.396   1_545 S
C136   H148    1.082   .     S
C136   C139    1.398   .     A
C136   C330    1.396   .     S
C137   O173    1.389   .     S
C137   C139    1.407   .     A
C137   C327    1.396   .     S
C138   C140    1.407   .     A
C138   O178    1.389   .     S
C138   C520    1.396   1_545 S
C141   H149    1.080   .     S
C141   N152    1.363   .     A
C141   C1295   1.433   1_554 S
C142   N151    1.363   .     A
C142   H150    1.080   .     S
C142   C720    1.433   .     S
C143   N151    1.373   .     A
C143   O183    1.392   .     S
C143   C717    1.433   .     S
C144   N152    1.373   .     A
C144   O188    1.392   .     S
C144   C1294   1.433   1_554 S
Cu145  O157    1.969   .     S
Cu145  O153    1.969   .     S
Cu145  Cu146   2.682   .     S
Cu145  N151    2.015   .     S
Cu145  O160    1.965   .     S
Cu145  O156    1.963   .     S
Cu146  O158    1.969   .     S
Cu146  O154    1.969   .     S
Cu146  N152    2.015   .     S
Cu146  O159    1.965   .     S
Cu146  O155    1.963   .     S
N161   C163    1.448   .     S
N161   C5      1.431   1_655 S
N161   H34     1.031   1_655 S
C163   H164    1.110   .     S
C163   H165    1.111   .     S
C163   H38     1.112   1_655 S
N167   C169    1.448   .     S
H168   N39     1.031   1_655 S
C169   H170    1.110   .     S
C169   H172    1.111   .     S
H171   C41     1.112   1_655 S
O173   C174    1.413   .     S
C174   H177    1.108   .     S
C174   H176    1.115   .     S
C174   H367    1.110   .     S
H175   C558    1.110   1_545 S
O178   C179    1.413   .     S
C179   H180    1.108   .     S
C179   H181    1.115   .     S
C179   H566    1.110   1_545 S
H182   C371    1.110   .     S
O183   C184    1.412   .     S
C184   H187    1.109   .     S
C184   H186    1.111   .     S
C184   H185    1.114   .     S
O188   C189    1.412   .     S
C189   H192    1.109   .     S
C189   H190    1.111   .     S
C189   H191    1.114   .     S
C193   O217    1.291   .     A
C193   C204    1.452   .     S
C193   O219    1.294   .     A
C194   C203    1.452   .     S
C194   O220    1.294   .     A
C194   O218    1.291   .     A
C195   O223    1.289   .     A
C195   C197    1.436   .     S
C195   O221    1.284   .     A
C196   O224    1.289   .     A
C196   C198    1.436   .     S
C196   O222    1.284   .     A
C197   C326    1.354   1_455 S
C197   N353    1.431   1_455 S
C198   C261    1.354   .     S
C198   N295    1.431   .     S
C199   H211    1.082   .     S
C199   C204    1.398   .     A
C200   H212    1.082   .     S
C200   C203    1.398   .     A
C200   C394    1.396   .     S
C201   O237    1.389   .     S
C201   C203    1.407   .     A
C201   C391    1.396   .     S
C202   C204    1.407   .     A
C202   O242    1.389   .     S
C205   H213    1.080   .     S
C205   N216    1.363   .     A
C205   C1359   1.433   1_554 S
C206   N215    1.363   .     A
C206   H214    1.080   .     S
C206   C784    1.433   .     S
C207   N215    1.373   .     A
C207   O247    1.392   .     S
C207   C781    1.433   .     S
C208   N216    1.373   .     A
C208   O252    1.392   .     S
C208   C1358   1.433   1_554 S
Cu209  O221    1.969   .     S
Cu209  O217    1.969   .     S
Cu209  Cu210   2.682   .     S
Cu209  N215    2.015   .     S
Cu209  O224    1.965   .     S
Cu209  O220    1.963   .     S
Cu210  O222    1.969   .     S
Cu210  O218    1.969   .     S
Cu210  N216    2.015   .     S
Cu210  O223    1.965   .     S
Cu210  O219    1.963   .     S
N225   C227    1.448   .     S
N225   C261    1.431   .     S
N225   H290    1.031   .     S
H226   N353    1.031   1_455 S
C227   H228    1.110   .     S
C227   H229    1.111   .     S
C227   H294    1.112   .     S
H230   C355    1.112   1_455 S
N231   C233    1.448   .     S
N231   C326    1.431   1_455 S
N231   H360    1.031   1_455 S
H232   N295    1.031   .     S
C233   H234    1.110   .     S
C233   H236    1.111   .     S
C233   H363    1.112   1_455 S
H235   C297    1.112   .     S
O237   C238    1.413   .     S
C238   H241    1.108   .     S
C238   H240    1.115   .     S
C238   H431    1.110   .     S
O242   C243    1.413   .     S
C243   H244    1.108   .     S
C243   H245    1.115   .     S
H246   C435    1.110   .     S
O247   C248    1.412   .     S
C248   H251    1.109   .     S
C248   H250    1.111   .     S
C248   H249    1.114   .     S
O252   C253    1.412   .     S
C253   H256    1.109   .     S
C253   H254    1.111   .     S
C253   H255    1.114   .     S
C257   O281    1.291   .     A
C257   C268    1.452   .     S
C257   O283    1.294   .     A
C258   C267    1.452   .     S
C258   O284    1.294   .     A
C258   O282    1.291   .     A
C259   O287    1.289   .     A
C259   C261    1.436   .     S
C259   O285    1.284   .     A
C260   O288    1.289   .     A
C260   C262    1.436   .     S
C260   O286    1.284   .     A
C262   C325    1.354   .     S
C262   N359    1.431   .     S
C263   H275    1.082   .     S
C263   C268    1.398   .     A
C264   H276    1.082   .     S
C264   C267    1.398   .     A
C264   C458    1.396   .     S
C265   O301    1.389   .     S
C265   C267    1.407   .     A
C265   C455    1.396   .     S
C266   C268    1.407   .     A
C266   O306    1.389   .     S
C269   H277    1.080   .     S
C269   N280    1.363   .     A
C269   C1423   1.433   1_554 S
C270   N279    1.363   .     A
C270   H278    1.080   .     S
C270   C848    1.433   .     S
C271   N279    1.373   .     A
C271   O311    1.392   .     S
C271   C845    1.433   .     S
C272   N280    1.373   .     A
C272   O316    1.392   .     S
C272   C1422   1.433   1_554 S
Cu273  O285    1.969   .     S
Cu273  O281    1.969   .     S
Cu273  Cu274   2.682   .     S
Cu273  N279    2.015   .     S
Cu273  O288    1.965   .     S
Cu273  O284    1.963   .     S
Cu274  O286    1.969   .     S
Cu274  O282    1.969   .     S
Cu274  N280    2.015   .     S
Cu274  O287    1.965   .     S
Cu274  O283    1.963   .     S
N289   C291    1.448   .     S
N289   C325    1.431   .     S
N289   H354    1.031   .     S
C291   H292    1.110   .     S
C291   H293    1.111   .     S
C291   H358    1.112   .     S
N295   C297    1.448   .     S
H296   N359    1.031   .     S
C297   H298    1.110   .     S
C297   H300    1.111   .     S
H299   C361    1.112   .     S
O301   C302    1.413   .     S
C302   H305    1.108   .     S
C302   H304    1.115   .     S
C302   H495    1.110   .     S
O306   C307    1.413   .     S
C307   H308    1.108   .     S
C307   H309    1.115   .     S
H310   C499    1.110   .     S
O311   C312    1.412   .     S
C312   H315    1.109   .     S
C312   H314    1.111   .     S
C312   H313    1.114   .     S
O316   C317    1.412   .     S
C317   H320    1.109   .     S
C317   H318    1.111   .     S
C317   H319    1.114   .     S
C321   O345    1.291   .     A
C321   C332    1.452   .     S
C321   O347    1.294   .     A
C322   C331    1.452   .     S
C322   O348    1.294   .     A
C322   O346    1.291   .     A
C323   O351    1.289   .     A
C323   C325    1.436   .     S
C323   O349    1.284   .     A
C324   O352    1.289   .     A
C324   C326    1.436   .     S
C324   O350    1.284   .     A
C326   C197    1.354   1_655 S
C326   N231    1.431   1_655 S
C327   H339    1.082   .     S
C327   C332    1.398   .     A
C328   H340    1.082   .     S
C328   C331    1.398   .     A
C328   C522    1.396   .     S
C329   O365    1.389   .     S
C329   C331    1.407   .     A
C329   C519    1.396   .     S
C330   C332    1.407   .     A
C330   O370    1.389   .     S
C333   H341    1.080   .     S
C333   N344    1.363   .     A
C333   C1487   1.433   1_554 S
C334   N343    1.363   .     A
C334   H342    1.080   .     S
C334   C912    1.433   .     S
C335   N343    1.373   .     A
C335   O375    1.392   .     S
C335   C909    1.433   .     S
C336   N344    1.373   .     A
C336   O380    1.392   .     S
C336   C1486   1.433   1_554 S
Cu337  O349    1.969   .     S
Cu337  O345    1.969   .     S
Cu337  Cu338   2.682   .     S
Cu337  N343    2.015   .     S
Cu337  O352    1.965   .     S
Cu337  O348    1.963   .     S
Cu338  O350    1.969   .     S
Cu338  O346    1.969   .     S
Cu338  N344    2.015   .     S
Cu338  O351    1.965   .     S
Cu338  O347    1.963   .     S
N353   C355    1.448   .     S
N353   C197    1.431   1_655 S
N353   H226    1.031   1_655 S
C355   H356    1.110   .     S
C355   H357    1.111   .     S
C355   H230    1.112   1_655 S
N359   C361    1.448   .     S
H360   N231    1.031   1_655 S
C361   H362    1.110   .     S
C361   H364    1.111   .     S
H363   C233    1.112   1_655 S
O365   C366    1.413   .     S
C366   H369    1.108   .     S
C366   H368    1.115   .     S
C366   H559    1.110   .     S
O370   C371    1.413   .     S
C371   H372    1.108   .     S
C371   H373    1.115   .     S
H374   C563    1.110   .     S
O375   C376    1.412   .     S
C376   H379    1.109   .     S
C376   H378    1.111   .     S
C376   H377    1.114   .     S
O380   C381    1.412   .     S
C381   H384    1.109   .     S
C381   H382    1.111   .     S
C381   H383    1.114   .     S
C385   O409    1.291   .     A
C385   C396    1.452   .     S
C385   O411    1.294   .     A
C386   C395    1.452   .     S
C386   O412    1.294   .     A
C386   O410    1.291   .     A
C387   O415    1.289   .     A
C387   C389    1.436   .     S
C387   O413    1.284   .     A
C388   O416    1.289   .     A
C388   C390    1.436   .     S
C388   O414    1.284   .     A
C389   C518    1.354   1_455 S
C389   N545    1.431   1_455 S
C390   C453    1.354   .     S
C390   N487    1.431   .     S
C391   H403    1.082   .     S
C391   C396    1.398   .     A
C392   H404    1.082   .     S
C392   C395    1.398   .     A
C392   C10     1.396   1_565 S
C393   O429    1.389   .     S
C393   C395    1.407   .     A
C393   C7      1.396   1_565 S
C394   C396    1.407   .     A
C394   O434    1.389   .     S
C397   H405    1.080   .     S
C397   N408    1.363   .     A
C397   C1551   1.433   1_554 S
C398   N407    1.363   .     A
C398   H406    1.080   .     S
C398   C976    1.433   .     S
C399   N407    1.373   .     A
C399   O439    1.392   .     S
C399   C973    1.433   .     S
C400   N408    1.373   .     A
C400   O444    1.392   .     S
C400   C1550   1.433   1_554 S
Cu401  O413    1.969   .     S
Cu401  O409    1.969   .     S
Cu401  Cu402   2.682   .     S
Cu401  N407    2.015   .     S
Cu401  O416    1.965   .     S
Cu401  O412    1.963   .     S
Cu402  O414    1.969   .     S
Cu402  O410    1.969   .     S
Cu402  N408    2.015   .     S
Cu402  O415    1.965   .     S
Cu402  O411    1.963   .     S
N417   C419    1.448   .     S
N417   C453    1.431   .     S
N417   H482    1.031   .     S
H418   N545    1.031   1_455 S
C419   H420    1.110   .     S
C419   H421    1.111   .     S
C419   H486    1.112   .     S
H422   C547    1.112   1_455 S
N423   C425    1.448   .     S
N423   C518    1.431   1_455 S
N423   H552    1.031   1_455 S
H424   N487    1.031   .     S
C425   H426    1.110   .     S
C425   H428    1.111   .     S
C425   H555    1.112   1_455 S
H427   C489    1.112   .     S
O429   C430    1.413   .     S
C430   H433    1.108   .     S
C430   H432    1.115   .     S
C430   H47     1.110   1_565 S
O434   C435    1.413   .     S
C435   H436    1.108   .     S
C435   H437    1.115   .     S
H438   C51     1.110   1_565 S
O439   C440    1.412   .     S
C440   H443    1.109   .     S
C440   H442    1.111   .     S
C440   H441    1.114   .     S
O444   C445    1.412   .     S
C445   H448    1.109   .     S
C445   H446    1.111   .     S
C445   H447    1.114   .     S
C449   O473    1.291   .     A
C449   C460    1.452   .     S
C449   O475    1.294   .     A
C450   C459    1.452   .     S
C450   O476    1.294   .     A
C450   O474    1.291   .     A
C451   O479    1.289   .     A
C451   C453    1.436   .     S
C451   O477    1.284   .     A
C452   O480    1.289   .     A
C452   C454    1.436   .     S
C452   O478    1.284   .     A
C454   C517    1.354   .     S
C454   N551    1.431   .     S
C455   H467    1.082   .     S
C455   C460    1.398   .     A
C456   H468    1.082   .     S
C456   C459    1.398   .     A
C456   C74     1.396   1_565 S
C457   O493    1.389   .     S
C457   C459    1.407   .     A
C457   C71     1.396   1_565 S
C458   C460    1.407   .     A
C458   O498    1.389   .     S
C461   H469    1.080   .     S
C461   N472    1.363   .     A
C461   C1615   1.433   1_554 S
C462   N471    1.363   .     A
C462   H470    1.080   .     S
C462   C1040   1.433   .     S
C463   N471    1.373   .     A
C463   O503    1.392   .     S
C463   C1037   1.433   .     S
C464   N472    1.373   .     A
C464   O508    1.392   .     S
C464   C1614   1.433   1_554 S
Cu465  O477    1.969   .     S
Cu465  O473    1.969   .     S
Cu465  Cu466   2.682   .     S
Cu465  N471    2.015   .     S
Cu465  O480    1.965   .     S
Cu465  O476    1.963   .     S
Cu466  O478    1.969   .     S
Cu466  O474    1.969   .     S
Cu466  N472    2.015   .     S
Cu466  O479    1.965   .     S
Cu466  O475    1.963   .     S
N481   C483    1.448   .     S
N481   C517    1.431   .     S
N481   H546    1.031   .     S
C483   H484    1.110   .     S
C483   H485    1.111   .     S
C483   H550    1.112   .     S
N487   C489    1.448   .     S
H488   N551    1.031   .     S
C489   H490    1.110   .     S
C489   H492    1.111   .     S
H491   C553    1.112   .     S
O493   C494    1.413   .     S
C494   H497    1.108   .     S
C494   H496    1.115   .     S
C494   H111    1.110   1_565 S
O498   C499    1.413   .     S
C499   H500    1.108   .     S
C499   H501    1.115   .     S
H502   C115    1.110   1_565 S
O503   C504    1.412   .     S
C504   H507    1.109   .     S
C504   H506    1.111   .     S
C504   H505    1.114   .     S
O508   C509    1.412   .     S
C509   H512    1.109   .     S
C509   H510    1.111   .     S
C509   H511    1.114   .     S
C513   O537    1.291   .     A
C513   C524    1.452   .     S
C513   O539    1.294   .     A
C514   C523    1.452   .     S
C514   O540    1.294   .     A
C514   O538    1.291   .     A
C515   O543    1.289   .     A
C515   C517    1.436   .     S
C515   O541    1.284   .     A
C516   O544    1.289   .     A
C516   C518    1.436   .     S
C516   O542    1.284   .     A
C518   C389    1.354   1_655 S
C518   N423    1.431   1_655 S
C519   H531    1.082   .     S
C519   C524    1.398   .     A
C520   H532    1.082   .     S
C520   C523    1.398   .     A
C520   C138    1.396   1_565 S
C521   O557    1.389   .     S
C521   C523    1.407   .     A
C521   C135    1.396   1_565 S
C522   C524    1.407   .     A
C522   O562    1.389   .     S
C525   H533    1.080   .     S
C525   N536    1.363   .     A
C525   C1679   1.433   1_554 S
C526   N535    1.363   .     A
C526   H534    1.080   .     S
C526   C1104   1.433   .     S
C527   N535    1.373   .     A
C527   O567    1.392   .     S
C527   C1101   1.433   .     S
C528   N536    1.373   .     A
C528   O572    1.392   .     S
C528   C1678   1.433   1_554 S
Cu529  O541    1.969   .     S
Cu529  O537    1.969   .     S
Cu529  Cu530   2.682   .     S
Cu529  N535    2.015   .     S
Cu529  O544    1.965   .     S
Cu529  O540    1.963   .     S
Cu530  O542    1.969   .     S
Cu530  O538    1.969   .     S
Cu530  N536    2.015   .     S
Cu530  O543    1.965   .     S
Cu530  O539    1.963   .     S
N545   C547    1.448   .     S
N545   C389    1.431   1_655 S
N545   H418    1.031   1_655 S
C547   H548    1.110   .     S
C547   H549    1.111   .     S
C547   H422    1.112   1_655 S
N551   C553    1.448   .     S
H552   N423    1.031   1_655 S
C553   H554    1.110   .     S
C553   H556    1.111   .     S
H555   C425    1.112   1_655 S
O557   C558    1.413   .     S
C558   H561    1.108   .     S
C558   H560    1.115   .     S
C558   H175    1.110   1_565 S
O562   C563    1.413   .     S
C563   H564    1.108   .     S
C563   H565    1.115   .     S
H566   C179    1.110   1_565 S
O567   C568    1.412   .     S
C568   H571    1.109   .     S
C568   H570    1.111   .     S
C568   H569    1.114   .     S
O572   C573    1.412   .     S
C573   H576    1.109   .     S
C573   H574    1.111   .     S
C573   H575    1.114   .     S
C577   O601    1.291   .     A
C577   C588    1.452   .     S
C577   O603    1.294   .     A
C578   C587    1.452   .     S
C578   O604    1.294   .     A
C578   O602    1.291   .     A
C579   O607    1.289   .     A
C579   C581    1.436   .     S
C579   O605    1.284   .     A
C580   O608    1.289   .     A
C580   C582    1.436   .     S
C580   O606    1.284   .     A
C581   C710    1.354   1_455 S
C581   N737    1.431   1_455 S
C582   C645    1.354   .     S
C582   N679    1.431   .     S
C583   H595    1.082   .     S
C583   C588    1.398   .     A
C583   C969    1.396   1_545 S
C584   H596    1.082   .     S
C584   C587    1.398   .     A
C584   C778    1.396   .     S
C585   O621    1.389   .     S
C585   C587    1.407   .     A
C585   C775    1.396   .     S
C586   C588    1.407   .     A
C586   O626    1.389   .     S
C586   C968    1.396   1_545 S
C589   H597    1.080   .     S
C589   N600    1.363   .     A
C590   N599    1.363   .     A
C590   H598    1.080   .     S
C590   C1168   1.433   .     S
C591   N599    1.373   .     A
C591   O631    1.392   .     S
C591   C1165   1.433   .     S
C592   N600    1.373   .     A
C592   O636    1.392   .     S
Cu593  O605    1.969   .     S
Cu593  O601    1.969   .     S
Cu593  Cu594   2.682   .     S
Cu593  N599    2.015   .     S
Cu593  O608    1.965   .     S
Cu593  O604    1.963   .     S
Cu594  O606    1.969   .     S
Cu594  O602    1.969   .     S
Cu594  N600    2.015   .     S
Cu594  O607    1.965   .     S
Cu594  O603    1.963   .     S
N609   C611    1.448   .     S
N609   C645    1.431   .     S
N609   H674    1.031   .     S
H610   N737    1.031   1_455 S
C611   H612    1.110   .     S
C611   H613    1.111   .     S
C611   H678    1.112   .     S
H614   C739    1.112   1_455 S
N615   C617    1.448   .     S
N615   C710    1.431   1_455 S
N615   H744    1.031   1_455 S
H616   N679    1.031   .     S
C617   H618    1.110   .     S
C617   H620    1.111   .     S
C617   H747    1.112   1_455 S
H619   C681    1.112   .     S
O621   C622    1.413   .     S
C622   H625    1.108   .     S
C622   H624    1.115   .     S
C622   H815    1.110   .     S
H623   C1006   1.110   1_545 S
O626   C627    1.413   .     S
C627   H628    1.108   .     S
C627   H629    1.115   .     S
C627   H1014   1.110   1_545 S
H630   C819    1.110   .     S
O631   C632    1.412   .     S
C632   H635    1.109   .     S
C632   H634    1.111   .     S
C632   H633    1.114   .     S
O636   C637    1.412   .     S
C637   H640    1.109   .     S
C637   H638    1.111   .     S
C637   H639    1.114   .     S
C641   O665    1.291   .     A
C641   C652    1.452   .     S
C641   O667    1.294   .     A
C642   C651    1.452   .     S
C642   O668    1.294   .     A
C642   O666    1.291   .     A
C643   O671    1.289   .     A
C643   C645    1.436   .     S
C643   O669    1.284   .     A
C644   O672    1.289   .     A
C644   C646    1.436   .     S
C644   O670    1.284   .     A
C646   C709    1.354   .     S
C646   N743    1.431   .     S
C647   H659    1.082   .     S
C647   C652    1.398   .     A
C647   C1033   1.396   1_545 S
C648   H660    1.082   .     S
C648   C651    1.398   .     A
C648   C842    1.396   .     S
C649   O685    1.389   .     S
C649   C651    1.407   .     A
C649   C839    1.396   .     S
C650   C652    1.407   .     A
C650   O690    1.389   .     S
C650   C1032   1.396   1_545 S
C653   H661    1.080   .     S
C653   N664    1.363   .     A
C654   N663    1.363   .     A
C654   H662    1.080   .     S
C654   C1232   1.433   .     S
C655   N663    1.373   .     A
C655   O695    1.392   .     S
C655   C1229   1.433   .     S
C656   N664    1.373   .     A
C656   O700    1.392   .     S
Cu657  O669    1.969   .     S
Cu657  O665    1.969   .     S
Cu657  Cu658   2.682   .     S
Cu657  N663    2.015   .     S
Cu657  O672    1.965   .     S
Cu657  O668    1.963   .     S
Cu658  O670    1.969   .     S
Cu658  O666    1.969   .     S
Cu658  N664    2.015   .     S
Cu658  O671    1.965   .     S
Cu658  O667    1.963   .     S
N673   C675    1.448   .     S
N673   C709    1.431   .     S
N673   H738    1.031   .     S
C675   H676    1.110   .     S
C675   H677    1.111   .     S
C675   H742    1.112   .     S
N679   C681    1.448   .     S
H680   N743    1.031   .     S
C681   H682    1.110   .     S
C681   H684    1.111   .     S
H683   C745    1.112   .     S
O685   C686    1.413   .     S
C686   H689    1.108   .     S
C686   H688    1.115   .     S
C686   H879    1.110   .     S
H687   C1070   1.110   1_545 S
O690   C691    1.413   .     S
C691   H692    1.108   .     S
C691   H693    1.115   .     S
C691   H1078   1.110   1_545 S
H694   C883    1.110   .     S
O695   C696    1.412   .     S
C696   H699    1.109   .     S
C696   H698    1.111   .     S
C696   H697    1.114   .     S
O700   C701    1.412   .     S
C701   H704    1.109   .     S
C701   H702    1.111   .     S
C701   H703    1.114   .     S
C705   O729    1.291   .     A
C705   C716    1.452   .     S
C705   O731    1.294   .     A
C706   C715    1.452   .     S
C706   O732    1.294   .     A
C706   O730    1.291   .     A
C707   O735    1.289   .     A
C707   C709    1.436   .     S
C707   O733    1.284   .     A
C708   O736    1.289   .     A
C708   C710    1.436   .     S
C708   O734    1.284   .     A
C710   C581    1.354   1_655 S
C710   N615    1.431   1_655 S
C711   H723    1.082   .     S
C711   C716    1.398   .     A
C711   C1097   1.396   1_545 S
C712   H724    1.082   .     S
C712   C715    1.398   .     A
C712   C906    1.396   .     S
C713   O749    1.389   .     S
C713   C715    1.407   .     A
C713   C903    1.396   .     S
C714   C716    1.407   .     A
C714   O754    1.389   .     S
C714   C1096   1.396   1_545 S
C717   H725    1.080   .     S
C717   N728    1.363   .     A
C718   N727    1.363   .     A
C718   H726    1.080   .     S
C718   C1296   1.433   .     S
C719   N727    1.373   .     A
C719   O759    1.392   .     S
C719   C1293   1.433   .     S
C720   N728    1.373   .     A
C720   O764    1.392   .     S
Cu721  O733    1.969   .     S
Cu721  O729    1.969   .     S
Cu721  Cu722   2.682   .     S
Cu721  N727    2.015   .     S
Cu721  O736    1.965   .     S
Cu721  O732    1.963   .     S
Cu722  O734    1.969   .     S
Cu722  O730    1.969   .     S
Cu722  N728    2.015   .     S
Cu722  O735    1.965   .     S
Cu722  O731    1.963   .     S
N737   C739    1.448   .     S
N737   C581    1.431   1_655 S
N737   H610    1.031   1_655 S
C739   H740    1.110   .     S
C739   H741    1.111   .     S
C739   H614    1.112   1_655 S
N743   C745    1.448   .     S
H744   N615    1.031   1_655 S
C745   H746    1.110   .     S
C745   H748    1.111   .     S
H747   C617    1.112   1_655 S
O749   C750    1.413   .     S
C750   H753    1.108   .     S
C750   H752    1.115   .     S
C750   H943    1.110   .     S
H751   C1134   1.110   1_545 S
O754   C755    1.413   .     S
C755   H756    1.108   .     S
C755   H757    1.115   .     S
C755   H1142   1.110   1_545 S
H758   C947    1.110   .     S
O759   C760    1.412   .     S
C760   H763    1.109   .     S
C760   H762    1.111   .     S
C760   H761    1.114   .     S
O764   C765    1.412   .     S
C765   H768    1.109   .     S
C765   H766    1.111   .     S
C765   H767    1.114   .     S
C769   O793    1.291   .     A
C769   C780    1.452   .     S
C769   O795    1.294   .     A
C770   C779    1.452   .     S
C770   O796    1.294   .     A
C770   O794    1.291   .     A
C771   O799    1.289   .     A
C771   C773    1.436   .     S
C771   O797    1.284   .     A
C772   O800    1.289   .     A
C772   C774    1.436   .     S
C772   O798    1.284   .     A
C773   C902    1.354   1_455 S
C773   N929    1.431   1_455 S
C774   C837    1.354   .     S
C774   N871    1.431   .     S
C775   H787    1.082   .     S
C775   C780    1.398   .     A
C776   H788    1.082   .     S
C776   C779    1.398   .     A
C776   C970    1.396   .     S
C777   O813    1.389   .     S
C777   C779    1.407   .     A
C777   C967    1.396   .     S
C778   C780    1.407   .     A
C778   O818    1.389   .     S
C781   H789    1.080   .     S
C781   N792    1.363   .     A
C782   N791    1.363   .     A
C782   H790    1.080   .     S
C782   C1360   1.433   .     S
C783   N791    1.373   .     A
C783   O823    1.392   .     S
C783   C1357   1.433   .     S
C784   N792    1.373   .     A
C784   O828    1.392   .     S
Cu785  O797    1.969   .     S
Cu785  O793    1.969   .     S
Cu785  Cu786   2.682   .     S
Cu785  N791    2.015   .     S
Cu785  O800    1.965   .     S
Cu785  O796    1.963   .     S
Cu786  O798    1.969   .     S
Cu786  O794    1.969   .     S
Cu786  N792    2.015   .     S
Cu786  O799    1.965   .     S
Cu786  O795    1.963   .     S
N801   C803    1.448   .     S
N801   C837    1.431   .     S
N801   H866    1.031   .     S
H802   N929    1.031   1_455 S
C803   H804    1.110   .     S
C803   H805    1.111   .     S
C803   H870    1.112   .     S
H806   C931    1.112   1_455 S
N807   C809    1.448   .     S
N807   C902    1.431   1_455 S
N807   H936    1.031   1_455 S
H808   N871    1.031   .     S
C809   H810    1.110   .     S
C809   H812    1.111   .     S
C809   H939    1.112   1_455 S
H811   C873    1.112   .     S
O813   C814    1.413   .     S
C814   H817    1.108   .     S
C814   H816    1.115   .     S
C814   H1007   1.110   .     S
O818   C819    1.413   .     S
C819   H820    1.108   .     S
C819   H821    1.115   .     S
H822   C1011   1.110   .     S
O823   C824    1.412   .     S
C824   H827    1.109   .     S
C824   H826    1.111   .     S
C824   H825    1.114   .     S
O828   C829    1.412   .     S
C829   H832    1.109   .     S
C829   H830    1.111   .     S
C829   H831    1.114   .     S
C833   O857    1.291   .     A
C833   C844    1.452   .     S
C833   O859    1.294   .     A
C834   C843    1.452   .     S
C834   O860    1.294   .     A
C834   O858    1.291   .     A
C835   O863    1.289   .     A
C835   C837    1.436   .     S
C835   O861    1.284   .     A
C836   O864    1.289   .     A
C836   C838    1.436   .     S
C836   O862    1.284   .     A
C838   C901    1.354   .     S
C838   N935    1.431   .     S
C839   H851    1.082   .     S
C839   C844    1.398   .     A
C840   H852    1.082   .     S
C840   C843    1.398   .     A
C840   C1034   1.396   .     S
C841   O877    1.389   .     S
C841   C843    1.407   .     A
C841   C1031   1.396   .     S
C842   C844    1.407   .     A
C842   O882    1.389   .     S
C845   H853    1.080   .     S
C845   N856    1.363   .     A
C846   N855    1.363   .     A
C846   H854    1.080   .     S
C846   C1424   1.433   .     S
C847   N855    1.373   .     A
C847   O887    1.392   .     S
C847   C1421   1.433   .     S
C848   N856    1.373   .     A
C848   O892    1.392   .     S
Cu849  O861    1.969   .     S
Cu849  O857    1.969   .     S
Cu849  Cu850   2.682   .     S
Cu849  N855    2.015   .     S
Cu849  O864    1.965   .     S
Cu849  O860    1.963   .     S
Cu850  O862    1.969   .     S
Cu850  O858    1.969   .     S
Cu850  N856    2.015   .     S
Cu850  O863    1.965   .     S
Cu850  O859    1.963   .     S
N865   C867    1.448   .     S
N865   C901    1.431   .     S
N865   H930    1.031   .     S
C867   H868    1.110   .     S
C867   H869    1.111   .     S
C867   H934    1.112   .     S
N871   C873    1.448   .     S
H872   N935    1.031   .     S
C873   H874    1.110   .     S
C873   H876    1.111   .     S
H875   C937    1.112   .     S
O877   C878    1.413   .     S
C878   H881    1.108   .     S
C878   H880    1.115   .     S
C878   H1071   1.110   .     S
O882   C883    1.413   .     S
C883   H884    1.108   .     S
C883   H885    1.115   .     S
H886   C1075   1.110   .     S
O887   C888    1.412   .     S
C888   H891    1.109   .     S
C888   H890    1.111   .     S
C888   H889    1.114   .     S
O892   C893    1.412   .     S
C893   H896    1.109   .     S
C893   H894    1.111   .     S
C893   H895    1.114   .     S
C897   O921    1.291   .     A
C897   C908    1.452   .     S
C897   O923    1.294   .     A
C898   C907    1.452   .     S
C898   O924    1.294   .     A
C898   O922    1.291   .     A
C899   O927    1.289   .     A
C899   C901    1.436   .     S
C899   O925    1.284   .     A
C900   O928    1.289   .     A
C900   C902    1.436   .     S
C900   O926    1.284   .     A
C902   C773    1.354   1_655 S
C902   N807    1.431   1_655 S
C903   H915    1.082   .     S
C903   C908    1.398   .     A
C904   H916    1.082   .     S
C904   C907    1.398   .     A
C904   C1098   1.396   .     S
C905   O941    1.389   .     S
C905   C907    1.407   .     A
C905   C1095   1.396   .     S
C906   C908    1.407   .     A
C906   O946    1.389   .     S
C909   H917    1.080   .     S
C909   N920    1.363   .     A
C910   N919    1.363   .     A
C910   H918    1.080   .     S
C910   C1488   1.433   .     S
C911   N919    1.373   .     A
C911   O951    1.392   .     S
C911   C1485   1.433   .     S
C912   N920    1.373   .     A
C912   O956    1.392   .     S
Cu913  O925    1.969   .     S
Cu913  O921    1.969   .     S
Cu913  Cu914   2.682   .     S
Cu913  N919    2.015   .     S
Cu913  O928    1.965   .     S
Cu913  O924    1.963   .     S
Cu914  O926    1.969   .     S
Cu914  O922    1.969   .     S
Cu914  N920    2.015   .     S
Cu914  O927    1.965   .     S
Cu914  O923    1.963   .     S
N929   C931    1.448   .     S
N929   C773    1.431   1_655 S
N929   H802    1.031   1_655 S
C931   H932    1.110   .     S
C931   H933    1.111   .     S
C931   H806    1.112   1_655 S
N935   C937    1.448   .     S
H936   N807    1.031   1_655 S
C937   H938    1.110   .     S
C937   H940    1.111   .     S
H939   C809    1.112   1_655 S
O941   C942    1.413   .     S
C942   H945    1.108   .     S
C942   H944    1.115   .     S
C942   H1135   1.110   .     S
O946   C947    1.413   .     S
C947   H948    1.108   .     S
C947   H949    1.115   .     S
H950   C1139   1.110   .     S
O951   C952    1.412   .     S
C952   H955    1.109   .     S
C952   H954    1.111   .     S
C952   H953    1.114   .     S
O956   C957    1.412   .     S
C957   H960    1.109   .     S
C957   H958    1.111   .     S
C957   H959    1.114   .     S
C961   O985    1.291   .     A
C961   C972    1.452   .     S
C961   O987    1.294   .     A
C962   C971    1.452   .     S
C962   O988    1.294   .     A
C962   O986    1.291   .     A
C963   O991    1.289   .     A
C963   C965    1.436   .     S
C963   O989    1.284   .     A
C964   O992    1.289   .     A
C964   C966    1.436   .     S
C964   O990    1.284   .     A
C965   C1094   1.354   1_455 S
C965   N1121   1.431   1_455 S
C966   C1029   1.354   .     S
C966   N1063   1.431   .     S
C967   H979    1.082   .     S
C967   C972    1.398   .     A
C968   H980    1.082   .     S
C968   C971    1.398   .     A
C968   C586    1.396   1_565 S
C969   O1005   1.389   .     S
C969   C971    1.407   .     A
C969   C583    1.396   1_565 S
C970   C972    1.407   .     A
C970   O1010   1.389   .     S
C973   H981    1.080   .     S
C973   N984    1.363   .     A
C974   N983    1.363   .     A
C974   H982    1.080   .     S
C974   C1552   1.433   .     S
C975   N983    1.373   .     A
C975   O1015   1.392   .     S
C975   C1549   1.433   .     S
C976   N984    1.373   .     A
C976   O1020   1.392   .     S
Cu977  O989    1.969   .     S
Cu977  O985    1.969   .     S
Cu977  Cu978   2.682   .     S
Cu977  N983    2.015   .     S
Cu977  O992    1.965   .     S
Cu977  O988    1.963   .     S
Cu978  O990    1.969   .     S
Cu978  O986    1.969   .     S
Cu978  N984    2.015   .     S
Cu978  O991    1.965   .     S
Cu978  O987    1.963   .     S
N993   C995    1.448   .     S
N993   C1029   1.431   .     S
N993   H1058   1.031   .     S
H994   N1121   1.031   1_455 S
C995   H996    1.110   .     S
C995   H997    1.111   .     S
C995   H1062   1.112   .     S
H998   C1123   1.112   1_455 S
N999   C1001   1.448   .     S
N999   C1094   1.431   1_455 S
N999   H1128   1.031   1_455 S
H1000  N1063   1.031   .     S
C1001  H1002   1.110   .     S
C1001  H1004   1.111   .     S
C1001  H1131   1.112   1_455 S
H1003  C1065   1.112   .     S
O1005  C1006   1.413   .     S
C1006  H1009   1.108   .     S
C1006  H1008   1.115   .     S
C1006  H623    1.110   1_565 S
O1010  C1011   1.413   .     S
C1011  H1012   1.108   .     S
C1011  H1013   1.115   .     S
H1014  C627    1.110   1_565 S
O1015  C1016   1.412   .     S
C1016  H1019   1.109   .     S
C1016  H1018   1.111   .     S
C1016  H1017   1.114   .     S
O1020  C1021   1.412   .     S
C1021  H1024   1.109   .     S
C1021  H1022   1.111   .     S
C1021  H1023   1.114   .     S
C1025  O1049   1.291   .     A
C1025  C1036   1.452   .     S
C1025  O1051   1.294   .     A
C1026  C1035   1.452   .     S
C1026  O1052   1.294   .     A
C1026  O1050   1.291   .     A
C1027  O1055   1.289   .     A
C1027  C1029   1.436   .     S
C1027  O1053   1.284   .     A
C1028  O1056   1.289   .     A
C1028  C1030   1.436   .     S
C1028  O1054   1.284   .     A
C1030  C1093   1.354   .     S
C1030  N1127   1.431   .     S
C1031  H1043   1.082   .     S
C1031  C1036   1.398   .     A
C1032  H1044   1.082   .     S
C1032  C1035   1.398   .     A
C1032  C650    1.396   1_565 S
C1033  O1069   1.389   .     S
C1033  C1035   1.407   .     A
C1033  C647    1.396   1_565 S
C1034  C1036   1.407   .     A
C1034  O1074   1.389   .     S
C1037  H1045   1.080   .     S
C1037  N1048   1.363   .     A
C1038  N1047   1.363   .     A
C1038  H1046   1.080   .     S
C1038  C1616   1.433   .     S
C1039  N1047   1.373   .     A
C1039  O1079   1.392   .     S
C1039  C1613   1.433   .     S
C1040  N1048   1.373   .     A
C1040  O1084   1.392   .     S
Cu1041 O1053   1.969   .     S
Cu1041 O1049   1.969   .     S
Cu1041 Cu1042  2.682   .     S
Cu1041 N1047   2.015   .     S
Cu1041 O1056   1.965   .     S
Cu1041 O1052   1.963   .     S
Cu1042 O1054   1.969   .     S
Cu1042 O1050   1.969   .     S
Cu1042 N1048   2.015   .     S
Cu1042 O1055   1.965   .     S
Cu1042 O1051   1.963   .     S
N1057  C1059   1.448   .     S
N1057  C1093   1.431   .     S
N1057  H1122   1.031   .     S
C1059  H1060   1.110   .     S
C1059  H1061   1.111   .     S
C1059  H1126   1.112   .     S
N1063  C1065   1.448   .     S
H1064  N1127   1.031   .     S
C1065  H1066   1.110   .     S
C1065  H1068   1.111   .     S
H1067  C1129   1.112   .     S
O1069  C1070   1.413   .     S
C1070  H1073   1.108   .     S
C1070  H1072   1.115   .     S
C1070  H687    1.110   1_565 S
O1074  C1075   1.413   .     S
C1075  H1076   1.108   .     S
C1075  H1077   1.115   .     S
H1078  C691    1.110   1_565 S
O1079  C1080   1.412   .     S
C1080  H1083   1.109   .     S
C1080  H1082   1.111   .     S
C1080  H1081   1.114   .     S
O1084  C1085   1.412   .     S
C1085  H1088   1.109   .     S
C1085  H1086   1.111   .     S
C1085  H1087   1.114   .     S
C1089  O1113   1.291   .     A
C1089  C1100   1.452   .     S
C1089  O1115   1.294   .     A
C1090  C1099   1.452   .     S
C1090  O1116   1.294   .     A
C1090  O1114   1.291   .     A
C1091  O1119   1.289   .     A
C1091  C1093   1.436   .     S
C1091  O1117   1.284   .     A
C1092  O1120   1.289   .     A
C1092  C1094   1.436   .     S
C1092  O1118   1.284   .     A
C1094  C965    1.354   1_655 S
C1094  N999    1.431   1_655 S
C1095  H1107   1.082   .     S
C1095  C1100   1.398   .     A
C1096  H1108   1.082   .     S
C1096  C1099   1.398   .     A
C1096  C714    1.396   1_565 S
C1097  O1133   1.389   .     S
C1097  C1099   1.407   .     A
C1097  C711    1.396   1_565 S
C1098  C1100   1.407   .     A
C1098  O1138   1.389   .     S
C1101  H1109   1.080   .     S
C1101  N1112   1.363   .     A
C1102  N1111   1.363   .     A
C1102  H1110   1.080   .     S
C1102  C1680   1.433   .     S
C1103  N1111   1.373   .     A
C1103  O1143   1.392   .     S
C1103  C1677   1.433   .     S
C1104  N1112   1.373   .     A
C1104  O1148   1.392   .     S
Cu1105 O1117   1.969   .     S
Cu1105 O1113   1.969   .     S
Cu1105 Cu1106  2.682   .     S
Cu1105 N1111   2.015   .     S
Cu1105 O1120   1.965   .     S
Cu1105 O1116   1.963   .     S
Cu1106 O1118   1.969   .     S
Cu1106 O1114   1.969   .     S
Cu1106 N1112   2.015   .     S
Cu1106 O1119   1.965   .     S
Cu1106 O1115   1.963   .     S
N1121  C1123   1.448   .     S
N1121  C965    1.431   1_655 S
N1121  H994    1.031   1_655 S
C1123  H1124   1.110   .     S
C1123  H1125   1.111   .     S
C1123  H998    1.112   1_655 S
N1127  C1129   1.448   .     S
H1128  N999    1.031   1_655 S
C1129  H1130   1.110   .     S
C1129  H1132   1.111   .     S
H1131  C1001   1.112   1_655 S
O1133  C1134   1.413   .     S
C1134  H1137   1.108   .     S
C1134  H1136   1.115   .     S
C1134  H751    1.110   1_565 S
O1138  C1139   1.413   .     S
C1139  H1140   1.108   .     S
C1139  H1141   1.115   .     S
H1142  C755    1.110   1_565 S
O1143  C1144   1.412   .     S
C1144  H1147   1.109   .     S
C1144  H1146   1.111   .     S
C1144  H1145   1.114   .     S
O1148  C1149   1.412   .     S
C1149  H1152   1.109   .     S
C1149  H1150   1.111   .     S
C1149  H1151   1.114   .     S
C1153  O1177   1.291   .     A
C1153  C1164   1.452   .     S
C1153  O1179   1.294   .     A
C1154  C1163   1.452   .     S
C1154  O1180   1.294   .     A
C1154  O1178   1.291   .     A
C1155  O1183   1.289   .     A
C1155  C1157   1.436   .     S
C1155  O1181   1.284   .     A
C1156  O1184   1.289   .     A
C1156  C1158   1.436   .     S
C1156  O1182   1.284   .     A
C1157  C1286   1.354   1_455 S
C1157  N1313   1.431   1_455 S
C1158  C1221   1.354   .     S
C1158  N1255   1.431   .     S
C1159  H1171   1.082   .     S
C1159  C1164   1.398   .     A
C1159  C1545   1.396   1_545 S
C1160  H1172   1.082   .     S
C1160  C1163   1.398   .     A
C1160  C1354   1.396   .     S
C1161  O1197   1.389   .     S
C1161  C1163   1.407   .     A
C1161  C1351   1.396   .     S
C1162  C1164   1.407   .     A
C1162  O1202   1.389   .     S
C1162  C1544   1.396   1_545 S
C1165  H1173   1.080   .     S
C1165  N1176   1.363   .     A
C1166  N1175   1.363   .     A
C1166  H1174   1.080   .     S
C1166  C16     1.433   1_556 S
C1167  N1175   1.373   .     A
C1167  O1207   1.392   .     S
C1167  C13     1.433   1_556 S
C1168  N1176   1.373   .     A
C1168  O1212   1.392   .     S
Cu1169 O1181   1.969   .     S
Cu1169 O1177   1.969   .     S
Cu1169 Cu1170  2.682   .     S
Cu1169 N1175   2.015   .     S
Cu1169 O1184   1.965   .     S
Cu1169 O1180   1.963   .     S
Cu1170 O1182   1.969   .     S
Cu1170 O1178   1.969   .     S
Cu1170 N1176   2.015   .     S
Cu1170 O1183   1.965   .     S
Cu1170 O1179   1.963   .     S
N1185  C1187   1.448   .     S
N1185  C1221   1.431   .     S
N1185  H1250   1.031   .     S
H1186  N1313   1.031   1_455 S
C1187  H1188   1.110   .     S
C1187  H1189   1.111   .     S
C1187  H1254   1.112   .     S
H1190  C1315   1.112   1_455 S
N1191  C1193   1.448   .     S
N1191  C1286   1.431   1_455 S
N1191  H1320   1.031   1_455 S
H1192  N1255   1.031   .     S
C1193  H1194   1.110   .     S
C1193  H1196   1.111   .     S
C1193  H1323   1.112   1_455 S
H1195  C1257   1.112   .     S
O1197  C1198   1.413   .     S
C1198  H1201   1.108   .     S
C1198  H1200   1.115   .     S
C1198  H1391   1.110   .     S
H1199  C1582   1.110   1_545 S
O1202  C1203   1.413   .     S
C1203  H1204   1.108   .     S
C1203  H1205   1.115   .     S
C1203  H1590   1.110   1_545 S
H1206  C1395   1.110   .     S
O1207  C1208   1.412   .     S
C1208  H1211   1.109   .     S
C1208  H1210   1.111   .     S
C1208  H1209   1.114   .     S
O1212  C1213   1.412   .     S
C1213  H1216   1.109   .     S
C1213  H1214   1.111   .     S
C1213  H1215   1.114   .     S
C1217  O1241   1.291   .     A
C1217  C1228   1.452   .     S
C1217  O1243   1.294   .     A
C1218  C1227   1.452   .     S
C1218  O1244   1.294   .     A
C1218  O1242   1.291   .     A
C1219  O1247   1.289   .     A
C1219  C1221   1.436   .     S
C1219  O1245   1.284   .     A
C1220  O1248   1.289   .     A
C1220  C1222   1.436   .     S
C1220  O1246   1.284   .     A
C1222  C1285   1.354   .     S
C1222  N1319   1.431   .     S
C1223  H1235   1.082   .     S
C1223  C1228   1.398   .     A
C1223  C1609   1.396   1_545 S
C1224  H1236   1.082   .     S
C1224  C1227   1.398   .     A
C1224  C1418   1.396   .     S
C1225  O1261   1.389   .     S
C1225  C1227   1.407   .     A
C1225  C1415   1.396   .     S
C1226  C1228   1.407   .     A
C1226  O1266   1.389   .     S
C1226  C1608   1.396   1_545 S
C1229  H1237   1.080   .     S
C1229  N1240   1.363   .     A
C1230  N1239   1.363   .     A
C1230  H1238   1.080   .     S
C1230  C80     1.433   1_556 S
C1231  N1239   1.373   .     A
C1231  O1271   1.392   .     S
C1231  C77     1.433   1_556 S
C1232  N1240   1.373   .     A
C1232  O1276   1.392   .     S
Cu1233 O1245   1.969   .     S
Cu1233 O1241   1.969   .     S
Cu1233 Cu1234  2.682   .     S
Cu1233 N1239   2.015   .     S
Cu1233 O1248   1.965   .     S
Cu1233 O1244   1.963   .     S
Cu1234 O1246   1.969   .     S
Cu1234 O1242   1.969   .     S
Cu1234 N1240   2.015   .     S
Cu1234 O1247   1.965   .     S
Cu1234 O1243   1.963   .     S
N1249  C1251   1.448   .     S
N1249  C1285   1.431   .     S
N1249  H1314   1.031   .     S
C1251  H1252   1.110   .     S
C1251  H1253   1.111   .     S
C1251  H1318   1.112   .     S
N1255  C1257   1.448   .     S
H1256  N1319   1.031   .     S
C1257  H1258   1.110   .     S
C1257  H1260   1.111   .     S
H1259  C1321   1.112   .     S
O1261  C1262   1.413   .     S
C1262  H1265   1.108   .     S
C1262  H1264   1.115   .     S
C1262  H1455   1.110   .     S
H1263  C1646   1.110   1_545 S
O1266  C1267   1.413   .     S
C1267  H1268   1.108   .     S
C1267  H1269   1.115   .     S
C1267  H1654   1.110   1_545 S
H1270  C1459   1.110   .     S
O1271  C1272   1.412   .     S
C1272  H1275   1.109   .     S
C1272  H1274   1.111   .     S
C1272  H1273   1.114   .     S
O1276  C1277   1.412   .     S
C1277  H1280   1.109   .     S
C1277  H1278   1.111   .     S
C1277  H1279   1.114   .     S
C1281  O1305   1.291   .     A
C1281  C1292   1.452   .     S
C1281  O1307   1.294   .     A
C1282  C1291   1.452   .     S
C1282  O1308   1.294   .     A
C1282  O1306   1.291   .     A
C1283  O1311   1.289   .     A
C1283  C1285   1.436   .     S
C1283  O1309   1.284   .     A
C1284  O1312   1.289   .     A
C1284  C1286   1.436   .     S
C1284  O1310   1.284   .     A
C1286  C1157   1.354   1_655 S
C1286  N1191   1.431   1_655 S
C1287  H1299   1.082   .     S
C1287  C1292   1.398   .     A
C1287  C1673   1.396   1_545 S
C1288  H1300   1.082   .     S
C1288  C1291   1.398   .     A
C1288  C1482   1.396   .     S
C1289  O1325   1.389   .     S
C1289  C1291   1.407   .     A
C1289  C1479   1.396   .     S
C1290  C1292   1.407   .     A
C1290  O1330   1.389   .     S
C1290  C1672   1.396   1_545 S
C1293  H1301   1.080   .     S
C1293  N1304   1.363   .     A
C1294  N1303   1.363   .     A
C1294  H1302   1.080   .     S
C1294  C144    1.433   1_556 S
C1295  N1303   1.373   .     A
C1295  O1335   1.392   .     S
C1295  C141    1.433   1_556 S
C1296  N1304   1.373   .     A
C1296  O1340   1.392   .     S
Cu1297 O1309   1.969   .     S
Cu1297 O1305   1.969   .     S
Cu1297 Cu1298  2.682   .     S
Cu1297 N1303   2.015   .     S
Cu1297 O1312   1.965   .     S
Cu1297 O1308   1.963   .     S
Cu1298 O1310   1.969   .     S
Cu1298 O1306   1.969   .     S
Cu1298 N1304   2.015   .     S
Cu1298 O1311   1.965   .     S
Cu1298 O1307   1.963   .     S
N1313  C1315   1.448   .     S
N1313  C1157   1.431   1_655 S
N1313  H1186   1.031   1_655 S
C1315  H1316   1.110   .     S
C1315  H1317   1.111   .     S
C1315  H1190   1.112   1_655 S
N1319  C1321   1.448   .     S
H1320  N1191   1.031   1_655 S
C1321  H1322   1.110   .     S
C1321  H1324   1.111   .     S
H1323  C1193   1.112   1_655 S
O1325  C1326   1.413   .     S
C1326  H1329   1.108   .     S
C1326  H1328   1.115   .     S
C1326  H1519   1.110   .     S
H1327  C1710   1.110   1_545 S
O1330  C1331   1.413   .     S
C1331  H1332   1.108   .     S
C1331  H1333   1.115   .     S
C1331  H1718   1.110   1_545 S
H1334  C1523   1.110   .     S
O1335  C1336   1.412   .     S
C1336  H1339   1.109   .     S
C1336  H1338   1.111   .     S
C1336  H1337   1.114   .     S
O1340  C1341   1.412   .     S
C1341  H1344   1.109   .     S
C1341  H1342   1.111   .     S
C1341  H1343   1.114   .     S
C1345  O1369   1.291   .     A
C1345  C1356   1.452   .     S
C1345  O1371   1.294   .     A
C1346  C1355   1.452   .     S
C1346  O1372   1.294   .     A
C1346  O1370   1.291   .     A
C1347  O1375   1.289   .     A
C1347  C1349   1.436   .     S
C1347  O1373   1.284   .     A
C1348  O1376   1.289   .     A
C1348  C1350   1.436   .     S
C1348  O1374   1.284   .     A
C1349  C1478   1.354   1_455 S
C1349  N1505   1.431   1_455 S
C1350  C1413   1.354   .     S
C1350  N1447   1.431   .     S
C1351  H1363   1.082   .     S
C1351  C1356   1.398   .     A
C1352  H1364   1.082   .     S
C1352  C1355   1.398   .     A
C1352  C1546   1.396   .     S
C1353  O1389   1.389   .     S
C1353  C1355   1.407   .     A
C1353  C1543   1.396   .     S
C1354  C1356   1.407   .     A
C1354  O1394   1.389   .     S
C1357  H1365   1.080   .     S
C1357  N1368   1.363   .     A
C1358  N1367   1.363   .     A
C1358  H1366   1.080   .     S
C1358  C208    1.433   1_556 S
C1359  N1367   1.373   .     A
C1359  O1399   1.392   .     S
C1359  C205    1.433   1_556 S
C1360  N1368   1.373   .     A
C1360  O1404   1.392   .     S
Cu1361 O1373   1.969   .     S
Cu1361 O1369   1.969   .     S
Cu1361 Cu1362  2.682   .     S
Cu1361 N1367   2.015   .     S
Cu1361 O1376   1.965   .     S
Cu1361 O1372   1.963   .     S
Cu1362 O1374   1.969   .     S
Cu1362 O1370   1.969   .     S
Cu1362 N1368   2.015   .     S
Cu1362 O1375   1.965   .     S
Cu1362 O1371   1.963   .     S
N1377  C1379   1.448   .     S
N1377  C1413   1.431   .     S
N1377  H1442   1.031   .     S
H1378  N1505   1.031   1_455 S
C1379  H1380   1.110   .     S
C1379  H1381   1.111   .     S
C1379  H1446   1.112   .     S
H1382  C1507   1.112   1_455 S
N1383  C1385   1.448   .     S
N1383  C1478   1.431   1_455 S
N1383  H1512   1.031   1_455 S
H1384  N1447   1.031   .     S
C1385  H1386   1.110   .     S
C1385  H1388   1.111   .     S
C1385  H1515   1.112   1_455 S
H1387  C1449   1.112   .     S
O1389  C1390   1.413   .     S
C1390  H1393   1.108   .     S
C1390  H1392   1.115   .     S
C1390  H1583   1.110   .     S
O1394  C1395   1.413   .     S
C1395  H1396   1.108   .     S
C1395  H1397   1.115   .     S
H1398  C1587   1.110   .     S
O1399  C1400   1.412   .     S
C1400  H1403   1.109   .     S
C1400  H1402   1.111   .     S
C1400  H1401   1.114   .     S
O1404  C1405   1.412   .     S
C1405  H1408   1.109   .     S
C1405  H1406   1.111   .     S
C1405  H1407   1.114   .     S
C1409  O1433   1.291   .     A
C1409  C1420   1.452   .     S
C1409  O1435   1.294   .     A
C1410  C1419   1.452   .     S
C1410  O1436   1.294   .     A
C1410  O1434   1.291   .     A
C1411  O1439   1.289   .     A
C1411  C1413   1.436   .     S
C1411  O1437   1.284   .     A
C1412  O1440   1.289   .     A
C1412  C1414   1.436   .     S
C1412  O1438   1.284   .     A
C1414  C1477   1.354   .     S
C1414  N1511   1.431   .     S
C1415  H1427   1.082   .     S
C1415  C1420   1.398   .     A
C1416  H1428   1.082   .     S
C1416  C1419   1.398   .     A
C1416  C1610   1.396   .     S
C1417  O1453   1.389   .     S
C1417  C1419   1.407   .     A
C1417  C1607   1.396   .     S
C1418  C1420   1.407   .     A
C1418  O1458   1.389   .     S
C1421  H1429   1.080   .     S
C1421  N1432   1.363   .     A
C1422  N1431   1.363   .     A
C1422  H1430   1.080   .     S
C1422  C272    1.433   1_556 S
C1423  N1431   1.373   .     A
C1423  O1463   1.392   .     S
C1423  C269    1.433   1_556 S
C1424  N1432   1.373   .     A
C1424  O1468   1.392   .     S
Cu1425 O1437   1.969   .     S
Cu1425 O1433   1.969   .     S
Cu1425 Cu1426  2.682   .     S
Cu1425 N1431   2.015   .     S
Cu1425 O1440   1.965   .     S
Cu1425 O1436   1.963   .     S
Cu1426 O1438   1.969   .     S
Cu1426 O1434   1.969   .     S
Cu1426 N1432   2.015   .     S
Cu1426 O1439   1.965   .     S
Cu1426 O1435   1.963   .     S
N1441  C1443   1.448   .     S
N1441  C1477   1.431   .     S
N1441  H1506   1.031   .     S
C1443  H1444   1.110   .     S
C1443  H1445   1.111   .     S
C1443  H1510   1.112   .     S
N1447  C1449   1.448   .     S
H1448  N1511   1.031   .     S
C1449  H1450   1.110   .     S
C1449  H1452   1.111   .     S
H1451  C1513   1.112   .     S
O1453  C1454   1.413   .     S
C1454  H1457   1.108   .     S
C1454  H1456   1.115   .     S
C1454  H1647   1.110   .     S
O1458  C1459   1.413   .     S
C1459  H1460   1.108   .     S
C1459  H1461   1.115   .     S
H1462  C1651   1.110   .     S
O1463  C1464   1.412   .     S
C1464  H1467   1.109   .     S
C1464  H1466   1.111   .     S
C1464  H1465   1.114   .     S
O1468  C1469   1.412   .     S
C1469  H1472   1.109   .     S
C1469  H1470   1.111   .     S
C1469  H1471   1.114   .     S
C1473  O1497   1.291   .     A
C1473  C1484   1.452   .     S
C1473  O1499   1.294   .     A
C1474  C1483   1.452   .     S
C1474  O1500   1.294   .     A
C1474  O1498   1.291   .     A
C1475  O1503   1.289   .     A
C1475  C1477   1.436   .     S
C1475  O1501   1.284   .     A
C1476  O1504   1.289   .     A
C1476  C1478   1.436   .     S
C1476  O1502   1.284   .     A
C1478  C1349   1.354   1_655 S
C1478  N1383   1.431   1_655 S
C1479  H1491   1.082   .     S
C1479  C1484   1.398   .     A
C1480  H1492   1.082   .     S
C1480  C1483   1.398   .     A
C1480  C1674   1.396   .     S
C1481  O1517   1.389   .     S
C1481  C1483   1.407   .     A
C1481  C1671   1.396   .     S
C1482  C1484   1.407   .     A
C1482  O1522   1.389   .     S
C1485  H1493   1.080   .     S
C1485  N1496   1.363   .     A
C1486  N1495   1.363   .     A
C1486  H1494   1.080   .     S
C1486  C336    1.433   1_556 S
C1487  N1495   1.373   .     A
C1487  O1527   1.392   .     S
C1487  C333    1.433   1_556 S
C1488  N1496   1.373   .     A
C1488  O1532   1.392   .     S
Cu1489 O1501   1.969   .     S
Cu1489 O1497   1.969   .     S
Cu1489 Cu1490  2.682   .     S
Cu1489 N1495   2.015   .     S
Cu1489 O1504   1.965   .     S
Cu1489 O1500   1.963   .     S
Cu1490 O1502   1.969   .     S
Cu1490 O1498   1.969   .     S
Cu1490 N1496   2.015   .     S
Cu1490 O1503   1.965   .     S
Cu1490 O1499   1.963   .     S
N1505  C1507   1.448   .     S
N1505  C1349   1.431   1_655 S
N1505  H1378   1.031   1_655 S
C1507  H1508   1.110   .     S
C1507  H1509   1.111   .     S
C1507  H1382   1.112   1_655 S
N1511  C1513   1.448   .     S
H1512  N1383   1.031   1_655 S
C1513  H1514   1.110   .     S
C1513  H1516   1.111   .     S
H1515  C1385   1.112   1_655 S
O1517  C1518   1.413   .     S
C1518  H1521   1.108   .     S
C1518  H1520   1.115   .     S
C1518  H1711   1.110   .     S
O1522  C1523   1.413   .     S
C1523  H1524   1.108   .     S
C1523  H1525   1.115   .     S
H1526  C1715   1.110   .     S
O1527  C1528   1.412   .     S
C1528  H1531   1.109   .     S
C1528  H1530   1.111   .     S
C1528  H1529   1.114   .     S
O1532  C1533   1.412   .     S
C1533  H1536   1.109   .     S
C1533  H1534   1.111   .     S
C1533  H1535   1.114   .     S
C1537  O1561   1.291   .     A
C1537  C1548   1.452   .     S
C1537  O1563   1.294   .     A
C1538  C1547   1.452   .     S
C1538  O1564   1.294   .     A
C1538  O1562   1.291   .     A
C1539  O1567   1.289   .     A
C1539  C1541   1.436   .     S
C1539  O1565   1.284   .     A
C1540  O1568   1.289   .     A
C1540  C1542   1.436   .     S
C1540  O1566   1.284   .     A
C1541  C1670   1.354   1_455 S
C1541  N1697   1.431   1_455 S
C1542  C1605   1.354   .     S
C1542  N1639   1.431   .     S
C1543  H1555   1.082   .     S
C1543  C1548   1.398   .     A
C1544  H1556   1.082   .     S
C1544  C1547   1.398   .     A
C1544  C1162   1.396   1_565 S
C1545  O1581   1.389   .     S
C1545  C1547   1.407   .     A
C1545  C1159   1.396   1_565 S
C1546  C1548   1.407   .     A
C1546  O1586   1.389   .     S
C1549  H1557   1.080   .     S
C1549  N1560   1.363   .     A
C1550  N1559   1.363   .     A
C1550  H1558   1.080   .     S
C1550  C400    1.433   1_556 S
C1551  N1559   1.373   .     A
C1551  O1591   1.392   .     S
C1551  C397    1.433   1_556 S
C1552  N1560   1.373   .     A
C1552  O1596   1.392   .     S
Cu1553 O1565   1.969   .     S
Cu1553 O1561   1.969   .     S
Cu1553 Cu1554  2.682   .     S
Cu1553 N1559   2.015   .     S
Cu1553 O1568   1.965   .     S
Cu1553 O1564   1.963   .     S
Cu1554 O1566   1.969   .     S
Cu1554 O1562   1.969   .     S
Cu1554 N1560   2.015   .     S
Cu1554 O1567   1.965   .     S
Cu1554 O1563   1.963   .     S
N1569  C1571   1.448   .     S
N1569  C1605   1.431   .     S
N1569  H1634   1.031   .     S
H1570  N1697   1.031   1_455 S
C1571  H1572   1.110   .     S
C1571  H1573   1.111   .     S
C1571  H1638   1.112   .     S
H1574  C1699   1.112   1_455 S
N1575  C1577   1.448   .     S
N1575  C1670   1.431   1_455 S
N1575  H1704   1.031   1_455 S
H1576  N1639   1.031   .     S
C1577  H1578   1.110   .     S
C1577  H1580   1.111   .     S
C1577  H1707   1.112   1_455 S
H1579  C1641   1.112   .     S
O1581  C1582   1.413   .     S
C1582  H1585   1.108   .     S
C1582  H1584   1.115   .     S
C1582  H1199   1.110   1_565 S
O1586  C1587   1.413   .     S
C1587  H1588   1.108   .     S
C1587  H1589   1.115   .     S
H1590  C1203   1.110   1_565 S
O1591  C1592   1.412   .     S
C1592  H1595   1.109   .     S
C1592  H1594   1.111   .     S
C1592  H1593   1.114   .     S
O1596  C1597   1.412   .     S
C1597  H1600   1.109   .     S
C1597  H1598   1.111   .     S
C1597  H1599   1.114   .     S
C1601  O1625   1.291   .     A
C1601  C1612   1.452   .     S
C1601  O1627   1.294   .     A
C1602  C1611   1.452   .     S
C1602  O1628   1.294   .     A
C1602  O1626   1.291   .     A
C1603  O1631   1.289   .     A
C1603  C1605   1.436   .     S
C1603  O1629   1.284   .     A
C1604  O1632   1.289   .     A
C1604  C1606   1.436   .     S
C1604  O1630   1.284   .     A
C1606  C1669   1.354   .     S
C1606  N1703   1.431   .     S
C1607  H1619   1.082   .     S
C1607  C1612   1.398   .     A
C1608  H1620   1.082   .     S
C1608  C1611   1.398   .     A
C1608  C1226   1.396   1_565 S
C1609  O1645   1.389   .     S
C1609  C1611   1.407   .     A
C1609  C1223   1.396   1_565 S
C1610  C1612   1.407   .     A
C1610  O1650   1.389   .     S
C1613  H1621   1.080   .     S
C1613  N1624   1.363   .     A
C1614  N1623   1.363   .     A
C1614  H1622   1.080   .     S
C1614  C464    1.433   1_556 S
C1615  N1623   1.373   .     A
C1615  O1655   1.392   .     S
C1615  C461    1.433   1_556 S
C1616  N1624   1.373   .     A
C1616  O1660   1.392   .     S
Cu1617 O1629   1.969   .     S
Cu1617 O1625   1.969   .     S
Cu1617 Cu1618  2.682   .     S
Cu1617 N1623   2.015   .     S
Cu1617 O1632   1.965   .     S
Cu1617 O1628   1.963   .     S
Cu1618 O1630   1.969   .     S
Cu1618 O1626   1.969   .     S
Cu1618 N1624   2.015   .     S
Cu1618 O1631   1.965   .     S
Cu1618 O1627   1.963   .     S
N1633  C1635   1.448   .     S
N1633  C1669   1.431   .     S
N1633  H1698   1.031   .     S
C1635  H1636   1.110   .     S
C1635  H1637   1.111   .     S
C1635  H1702   1.112   .     S
N1639  C1641   1.448   .     S
H1640  N1703   1.031   .     S
C1641  H1642   1.110   .     S
C1641  H1644   1.111   .     S
H1643  C1705   1.112   .     S
O1645  C1646   1.413   .     S
C1646  H1649   1.108   .     S
C1646  H1648   1.115   .     S
C1646  H1263   1.110   1_565 S
O1650  C1651   1.413   .     S
C1651  H1652   1.108   .     S
C1651  H1653   1.115   .     S
H1654  C1267   1.110   1_565 S
O1655  C1656   1.412   .     S
C1656  H1659   1.109   .     S
C1656  H1658   1.111   .     S
C1656  H1657   1.114   .     S
O1660  C1661   1.412   .     S
C1661  H1664   1.109   .     S
C1661  H1662   1.111   .     S
C1661  H1663   1.114   .     S
C1665  O1689   1.291   .     A
C1665  C1676   1.452   .     S
C1665  O1691   1.294   .     A
C1666  C1675   1.452   .     S
C1666  O1692   1.294   .     A
C1666  O1690   1.291   .     A
C1667  O1695   1.289   .     A
C1667  C1669   1.436   .     S
C1667  O1693   1.284   .     A
C1668  O1696   1.289   .     A
C1668  C1670   1.436   .     S
C1668  O1694   1.284   .     A
C1670  C1541   1.354   1_655 S
C1670  N1575   1.431   1_655 S
C1671  H1683   1.082   .     S
C1671  C1676   1.398   .     A
C1672  H1684   1.082   .     S
C1672  C1675   1.398   .     A
C1672  C1290   1.396   1_565 S
C1673  O1709   1.389   .     S
C1673  C1675   1.407   .     A
C1673  C1287   1.396   1_565 S
C1674  C1676   1.407   .     A
C1674  O1714   1.389   .     S
C1677  H1685   1.080   .     S
C1677  N1688   1.363   .     A
C1678  N1687   1.363   .     A
C1678  H1686   1.080   .     S
C1678  C528    1.433   1_556 S
C1679  N1687   1.373   .     A
C1679  O1719   1.392   .     S
C1679  C525    1.433   1_556 S
C1680  N1688   1.373   .     A
C1680  O1724   1.392   .     S
Cu1681 O1693   1.969   .     S
Cu1681 O1689   1.969   .     S
Cu1681 Cu1682  2.682   .     S
Cu1681 N1687   2.015   .     S
Cu1681 O1696   1.965   .     S
Cu1681 O1692   1.963   .     S
Cu1682 O1694   1.969   .     S
Cu1682 O1690   1.969   .     S
Cu1682 N1688   2.015   .     S
Cu1682 O1695   1.965   .     S
Cu1682 O1691   1.963   .     S
N1697  C1699   1.448   .     S
N1697  C1541   1.431   1_655 S
N1697  H1570   1.031   1_655 S
C1699  H1700   1.110   .     S
C1699  H1701   1.111   .     S
C1699  H1574   1.112   1_655 S
N1703  C1705   1.448   .     S
H1704  N1575   1.031   1_655 S
C1705  H1706   1.110   .     S
C1705  H1708   1.111   .     S
H1707  C1577   1.112   1_655 S
O1709  C1710   1.413   .     S
C1710  H1713   1.108   .     S
C1710  H1712   1.115   .     S
C1710  H1327   1.110   1_565 S
O1714  C1715   1.413   .     S
C1715  H1716   1.108   .     S
C1715  H1717   1.115   .     S
H1718  C1331   1.110   1_565 S
O1719  C1720   1.412   .     S
C1720  H1723   1.109   .     S
C1720  H1722   1.111   .     S
C1720  H1721   1.114   .     S
O1724  C1725   1.412   .     S
C1725  H1728   1.109   .     S
C1725  H1726   1.111   .     S
C1725  H1727   1.114   .     S
