data_str_m2_o1_o10_pcu_sym.33
_audit_creation_date              2020-01-03
_audit_creation_method            'Materials Studio'
_symmetry_space_group_name_H-M    'P1'
_symmetry_Int_Tables_number       1
_symmetry_cell_setting            triclinic
loop_
_symmetry_equiv_pos_as_xyz
  x,y,z
_cell_length_a                    26.3983
_cell_length_b                    32.3851
_cell_length_c                    28.5878
_cell_angle_alpha                 90.3159
_cell_angle_beta                  97.9065
_cell_angle_gamma                 90.2550
loop_
_atom_site_label
_atom_site_type_symbol
_atom_site_fract_x
_atom_site_fract_y
_atom_site_fract_z
_atom_site_U_iso_or_equiv
_atom_site_adp_type
_atom_site_occupancy
C1     C     0.16507   0.08745   0.16634   0.00000  Uiso   1.00
C2     C     0.13410   0.02033   0.19457   0.00000  Uiso   1.00
C3     C     0.16954   0.29053   0.16752   0.00000  Uiso   1.00
C4     C     0.16379   0.04281   0.16582   0.00000  Uiso   1.00
C5     C     0.13423   0.14115   0.02066   0.00000  Uiso   1.00
C6     C     0.19910   0.19219   0.31267   0.00000  Uiso   1.00
C7     C     0.13446   0.14133   0.30413   0.00000  Uiso   1.00
C8     C     0.19887   0.19200   0.02920   0.00000  Uiso   1.00
C9     C     0.16826   0.24588   0.16699   0.00000  Uiso   1.00
C10    C     0.06807   0.16760   0.15471   0.00000  Uiso   1.00
C11    C     0.26527   0.16573   0.17862   0.00000  Uiso   1.00
C12    C     0.01300   0.17221   0.14881   0.00000  Uiso   1.00
C13    C     0.32034   0.16112   0.18453   0.00000  Uiso   1.00
C14    C     0.19516   0.02231   0.13765   0.00000  Uiso   1.00
C15    C     0.13817   0.31102   0.19568   0.00000  Uiso   1.00
C16    C     0.19923   0.31301   0.13877   0.00000  Uiso   1.00
Cu17   Cu    0.16667   0.16667   0.21355   0.00000  Uiso   1.00
Cu18   Cu    0.16667   0.16666   0.11978   0.00000  Uiso   1.00
H19    H     0.10894   0.12113   0.28156   0.00000  Uiso   1.00
H20    H     0.25237   0.23417   0.31757   0.00000  Uiso   1.00
H21    H     0.22440   0.21220   0.05177   0.00000  Uiso   1.00
H22    H     0.01332   0.19924   0.08765   0.00000  Uiso   1.00
H23    H     0.32002   0.13409   0.24569   0.00000  Uiso   1.00
H24    H     0.21840   0.03967   0.11612   0.00000  Uiso   1.00
H25    H     0.11493   0.29366   0.21722   0.00000  Uiso   1.00
H26    H     0.24408   0.26791   0.12634   0.00000  Uiso   1.00
H27    H     0.08926   0.06543   0.20701   0.00000  Uiso   1.00
H28    H     0.08096   0.09917   0.01576   0.00000  Uiso   1.00
N29    N     0.16668   0.16668   0.28403   0.00000  Uiso   1.00
N30    N     0.16665   0.16666   0.04931   0.00000  Uiso   1.00
O31    O     0.16666   0.10655   0.20625   0.00000  Uiso   1.00
O32    O     0.01199   0.14328   0.22532   0.00000  Uiso   1.00
O33    O     0.23347   0.29499   0.11251   0.00000  Uiso   1.00
O34    O     0.09986   0.03835   0.22082   0.00000  Uiso   1.00
O35    O     0.10176   0.11545   0.04096   0.00000  Uiso   1.00
O36    O     0.23157   0.21788   0.29237   0.00000  Uiso   1.00
O37    O     0.16667   0.22678   0.12709   0.00000  Uiso   1.00
O38    O     0.16666   0.10654   0.12706   0.00000  Uiso   1.00
O39    O     0.16667   0.22679   0.20628   0.00000  Uiso   1.00
O40    O     0.09161   0.16667   0.19712   0.00000  Uiso   1.00
O41    O     0.24172   0.16666   0.13621   0.00000  Uiso   1.00
O42    O     0.09161   0.16666   0.11793   0.00000  Uiso   1.00
O43    O     0.24172   0.16667   0.21540   0.00000  Uiso   1.00
O44    O     0.32134   0.19006   0.10802   0.00000  Uiso   1.00
C45    C     0.49841   0.08745   0.16634   0.00000  Uiso   1.00
C46    C     0.46743   0.02033   0.19457   0.00000  Uiso   1.00
C47    C     0.50288   0.29053   0.16752   0.00000  Uiso   1.00
C48    C     0.49712   0.04281   0.16582   0.00000  Uiso   1.00
C49    C     0.46756   0.14115   0.02066   0.00000  Uiso   1.00
C50    C     0.53244   0.19219   0.31267   0.00000  Uiso   1.00
C51    C     0.46780   0.14133   0.30413   0.00000  Uiso   1.00
C52    C     0.53220   0.19200   0.02920   0.00000  Uiso   1.00
C53    C     0.50159   0.24588   0.16699   0.00000  Uiso   1.00
C54    C     0.40140   0.16760   0.15471   0.00000  Uiso   1.00
C55    C     0.59860   0.16573   0.17862   0.00000  Uiso   1.00
C56    C     0.34633   0.17221   0.14881   0.00000  Uiso   1.00
C57    C     0.65367   0.16112   0.18453   0.00000  Uiso   1.00
C58    C     0.52849   0.02231   0.13765   0.00000  Uiso   1.00
C59    C     0.47151   0.31102   0.19568   0.00000  Uiso   1.00
C60    C     0.53257   0.31301   0.13877   0.00000  Uiso   1.00
Cu61   Cu    0.50000   0.16667   0.21355   0.00000  Uiso   1.00
Cu62   Cu    0.50000   0.16666   0.11978   0.00000  Uiso   1.00
H63    H     0.44227   0.12113   0.28156   0.00000  Uiso   1.00
H64    H     0.58570   0.23417   0.31757   0.00000  Uiso   1.00
H65    H     0.55773   0.21220   0.05177   0.00000  Uiso   1.00
H66    H     0.34665   0.19924   0.08765   0.00000  Uiso   1.00
H67    H     0.65335   0.13409   0.24569   0.00000  Uiso   1.00
H68    H     0.55174   0.03967   0.11612   0.00000  Uiso   1.00
H69    H     0.44826   0.29366   0.21722   0.00000  Uiso   1.00
H70    H     0.57741   0.26791   0.12634   0.00000  Uiso   1.00
H71    H     0.42259   0.06543   0.20701   0.00000  Uiso   1.00
H72    H     0.41430   0.09917   0.01576   0.00000  Uiso   1.00
N73    N     0.50001   0.16668   0.28403   0.00000  Uiso   1.00
N74    N     0.49999   0.16666   0.04931   0.00000  Uiso   1.00
O75    O     0.50000   0.10655   0.20625   0.00000  Uiso   1.00
O76    O     0.34532   0.14328   0.22532   0.00000  Uiso   1.00
O77    O     0.56681   0.29499   0.11251   0.00000  Uiso   1.00
O78    O     0.43319   0.03835   0.22082   0.00000  Uiso   1.00
O79    O     0.43510   0.11545   0.04096   0.00000  Uiso   1.00
O80    O     0.56490   0.21788   0.29237   0.00000  Uiso   1.00
O81    O     0.50000   0.22678   0.12709   0.00000  Uiso   1.00
O82    O     0.50000   0.10654   0.12706   0.00000  Uiso   1.00
O83    O     0.50000   0.22679   0.20628   0.00000  Uiso   1.00
O84    O     0.42495   0.16667   0.19712   0.00000  Uiso   1.00
O85    O     0.57505   0.16666   0.13621   0.00000  Uiso   1.00
O86    O     0.42494   0.16666   0.11793   0.00000  Uiso   1.00
O87    O     0.57506   0.16667   0.21540   0.00000  Uiso   1.00
O88    O     0.65468   0.19006   0.10802   0.00000  Uiso   1.00
C89    C     0.83174   0.08745   0.16634   0.00000  Uiso   1.00
C90    C     0.80076   0.02033   0.19457   0.00000  Uiso   1.00
C91    C     0.83621   0.29053   0.16752   0.00000  Uiso   1.00
C92    C     0.83045   0.04281   0.16582   0.00000  Uiso   1.00
C93    C     0.80090   0.14115   0.02066   0.00000  Uiso   1.00
C94    C     0.86577   0.19219   0.31267   0.00000  Uiso   1.00
C95    C     0.80113   0.14133   0.30413   0.00000  Uiso   1.00
C96    C     0.86554   0.19200   0.02920   0.00000  Uiso   1.00
C97    C     0.83492   0.24588   0.16699   0.00000  Uiso   1.00
C98    C     0.73473   0.16760   0.15471   0.00000  Uiso   1.00
C99    C     0.93193   0.16573   0.17862   0.00000  Uiso   1.00
C100   C     0.67966   0.17221   0.14881   0.00000  Uiso   1.00
C101   C     0.98700   0.16112   0.18453   0.00000  Uiso   1.00
C102   C     0.86182   0.02231   0.13765   0.00000  Uiso   1.00
C103   C     0.80484   0.31102   0.19568   0.00000  Uiso   1.00
C104   C     0.86590   0.31301   0.13877   0.00000  Uiso   1.00
Cu105  Cu    0.83333   0.16667   0.21355   0.00000  Uiso   1.00
Cu106  Cu    0.83333   0.16666   0.11978   0.00000  Uiso   1.00
H107   H     0.77560   0.12113   0.28156   0.00000  Uiso   1.00
H108   H     0.91904   0.23417   0.31757   0.00000  Uiso   1.00
H109   H     0.89106   0.21220   0.05177   0.00000  Uiso   1.00
H110   H     0.67998   0.19924   0.08765   0.00000  Uiso   1.00
H111   H     0.98668   0.13409   0.24569   0.00000  Uiso   1.00
H112   H     0.88507   0.03967   0.11612   0.00000  Uiso   1.00
H113   H     0.78160   0.29366   0.21722   0.00000  Uiso   1.00
H114   H     0.91075   0.26791   0.12634   0.00000  Uiso   1.00
H115   H     0.75592   0.06543   0.20701   0.00000  Uiso   1.00
H116   H     0.74763   0.09917   0.01576   0.00000  Uiso   1.00
N117   N     0.83335   0.16668   0.28403   0.00000  Uiso   1.00
N118   N     0.83332   0.16666   0.04931   0.00000  Uiso   1.00
O119   O     0.83333   0.10655   0.20625   0.00000  Uiso   1.00
O120   O     0.67866   0.14328   0.22532   0.00000  Uiso   1.00
O121   O     0.90014   0.29499   0.11251   0.00000  Uiso   1.00
O122   O     0.76652   0.03835   0.22082   0.00000  Uiso   1.00
O123   O     0.76843   0.11545   0.04096   0.00000  Uiso   1.00
O124   O     0.89824   0.21788   0.29237   0.00000  Uiso   1.00
O125   O     0.83334   0.22678   0.12709   0.00000  Uiso   1.00
O126   O     0.83333   0.10654   0.12706   0.00000  Uiso   1.00
O127   O     0.83334   0.22679   0.20628   0.00000  Uiso   1.00
O128   O     0.75828   0.16667   0.19712   0.00000  Uiso   1.00
O129   O     0.90839   0.16666   0.13621   0.00000  Uiso   1.00
O130   O     0.75828   0.16666   0.11793   0.00000  Uiso   1.00
O131   O     0.90839   0.16667   0.21540   0.00000  Uiso   1.00
O132   O     0.98801   0.19006   0.10802   0.00000  Uiso   1.00
C133   C     0.16507   0.42078   0.16634   0.00000  Uiso   1.00
C134   C     0.13410   0.35366   0.19457   0.00000  Uiso   1.00
C135   C     0.16954   0.62386   0.16752   0.00000  Uiso   1.00
C136   C     0.16379   0.37614   0.16582   0.00000  Uiso   1.00
C137   C     0.13423   0.47448   0.02066   0.00000  Uiso   1.00
C138   C     0.19910   0.52552   0.31267   0.00000  Uiso   1.00
C139   C     0.13446   0.47467   0.30413   0.00000  Uiso   1.00
C140   C     0.19887   0.52533   0.02920   0.00000  Uiso   1.00
C141   C     0.16826   0.57922   0.16699   0.00000  Uiso   1.00
C142   C     0.06807   0.50094   0.15471   0.00000  Uiso   1.00
C143   C     0.26527   0.49906   0.17862   0.00000  Uiso   1.00
C144   C     0.01300   0.50555   0.14881   0.00000  Uiso   1.00
C145   C     0.32034   0.49445   0.18453   0.00000  Uiso   1.00
C146   C     0.19516   0.35565   0.13765   0.00000  Uiso   1.00
C147   C     0.13817   0.64435   0.19568   0.00000  Uiso   1.00
C148   C     0.19923   0.64634   0.13877   0.00000  Uiso   1.00
Cu149  Cu    0.16667   0.50001   0.21355   0.00000  Uiso   1.00
Cu150  Cu    0.16667   0.49999   0.11978   0.00000  Uiso   1.00
H151   H     0.10894   0.45446   0.28156   0.00000  Uiso   1.00
H152   H     0.25237   0.56750   0.31757   0.00000  Uiso   1.00
H153   H     0.22440   0.54554   0.05177   0.00000  Uiso   1.00
H154   H     0.01332   0.53258   0.08765   0.00000  Uiso   1.00
H155   H     0.32002   0.46742   0.24569   0.00000  Uiso   1.00
H156   H     0.21840   0.37301   0.11612   0.00000  Uiso   1.00
H157   H     0.11493   0.62699   0.21722   0.00000  Uiso   1.00
H158   H     0.24408   0.60124   0.12634   0.00000  Uiso   1.00
H159   H     0.08926   0.39876   0.20701   0.00000  Uiso   1.00
H160   H     0.08096   0.43250   0.01576   0.00000  Uiso   1.00
N161   N     0.16668   0.50001   0.28403   0.00000  Uiso   1.00
N162   N     0.16665   0.49999   0.04931   0.00000  Uiso   1.00
O163   O     0.16666   0.43989   0.20625   0.00000  Uiso   1.00
O164   O     0.01199   0.47661   0.22532   0.00000  Uiso   1.00
O165   O     0.23347   0.62832   0.11251   0.00000  Uiso   1.00
O166   O     0.09986   0.37168   0.22082   0.00000  Uiso   1.00
O167   O     0.10176   0.44879   0.04096   0.00000  Uiso   1.00
O168   O     0.23157   0.55121   0.29237   0.00000  Uiso   1.00
O169   O     0.16667   0.56011   0.12709   0.00000  Uiso   1.00
O170   O     0.16666   0.43988   0.12706   0.00000  Uiso   1.00
O171   O     0.16667   0.56012   0.20628   0.00000  Uiso   1.00
O172   O     0.09161   0.50000   0.19712   0.00000  Uiso   1.00
O173   O     0.24172   0.50000   0.13621   0.00000  Uiso   1.00
O174   O     0.09161   0.49999   0.11793   0.00000  Uiso   1.00
O175   O     0.24172   0.50001   0.21540   0.00000  Uiso   1.00
O176   O     0.32134   0.52339   0.10802   0.00000  Uiso   1.00
C177   C     0.49841   0.42078   0.16634   0.00000  Uiso   1.00
C178   C     0.46743   0.35366   0.19457   0.00000  Uiso   1.00
C179   C     0.50288   0.62386   0.16752   0.00000  Uiso   1.00
C180   C     0.49712   0.37614   0.16582   0.00000  Uiso   1.00
C181   C     0.46756   0.47448   0.02066   0.00000  Uiso   1.00
C182   C     0.53244   0.52552   0.31267   0.00000  Uiso   1.00
C183   C     0.46780   0.47467   0.30413   0.00000  Uiso   1.00
C184   C     0.53220   0.52533   0.02920   0.00000  Uiso   1.00
C185   C     0.50159   0.57922   0.16699   0.00000  Uiso   1.00
C186   C     0.40140   0.50094   0.15471   0.00000  Uiso   1.00
C187   C     0.59860   0.49906   0.17862   0.00000  Uiso   1.00
C188   C     0.34633   0.50555   0.14881   0.00000  Uiso   1.00
C189   C     0.65367   0.49445   0.18453   0.00000  Uiso   1.00
C190   C     0.52849   0.35565   0.13765   0.00000  Uiso   1.00
C191   C     0.47151   0.64435   0.19568   0.00000  Uiso   1.00
C192   C     0.53257   0.64634   0.13877   0.00000  Uiso   1.00
Cu193  Cu    0.50000   0.50001   0.21355   0.00000  Uiso   1.00
Cu194  Cu    0.50000   0.49999   0.11978   0.00000  Uiso   1.00
H195   H     0.44227   0.45446   0.28156   0.00000  Uiso   1.00
H196   H     0.58570   0.56750   0.31757   0.00000  Uiso   1.00
H197   H     0.55773   0.54554   0.05177   0.00000  Uiso   1.00
H198   H     0.34665   0.53258   0.08765   0.00000  Uiso   1.00
H199   H     0.65335   0.46742   0.24569   0.00000  Uiso   1.00
H200   H     0.55174   0.37301   0.11612   0.00000  Uiso   1.00
H201   H     0.44826   0.62699   0.21722   0.00000  Uiso   1.00
H202   H     0.57741   0.60124   0.12634   0.00000  Uiso   1.00
H203   H     0.42259   0.39876   0.20701   0.00000  Uiso   1.00
H204   H     0.41430   0.43250   0.01576   0.00000  Uiso   1.00
N205   N     0.50001   0.50001   0.28403   0.00000  Uiso   1.00
N206   N     0.49999   0.49999   0.04931   0.00000  Uiso   1.00
O207   O     0.50000   0.43989   0.20625   0.00000  Uiso   1.00
O208   O     0.34532   0.47661   0.22532   0.00000  Uiso   1.00
O209   O     0.56681   0.62832   0.11251   0.00000  Uiso   1.00
O210   O     0.43319   0.37168   0.22082   0.00000  Uiso   1.00
O211   O     0.43510   0.44879   0.04096   0.00000  Uiso   1.00
O212   O     0.56490   0.55121   0.29237   0.00000  Uiso   1.00
O213   O     0.50000   0.56011   0.12709   0.00000  Uiso   1.00
O214   O     0.50000   0.43988   0.12706   0.00000  Uiso   1.00
O215   O     0.50000   0.56012   0.20628   0.00000  Uiso   1.00
O216   O     0.42495   0.50000   0.19712   0.00000  Uiso   1.00
O217   O     0.57505   0.50000   0.13621   0.00000  Uiso   1.00
O218   O     0.42494   0.49999   0.11793   0.00000  Uiso   1.00
O219   O     0.57506   0.50001   0.21540   0.00000  Uiso   1.00
O220   O     0.65468   0.52339   0.10802   0.00000  Uiso   1.00
C221   C     0.83174   0.42078   0.16634   0.00000  Uiso   1.00
C222   C     0.80076   0.35366   0.19457   0.00000  Uiso   1.00
C223   C     0.83621   0.62386   0.16752   0.00000  Uiso   1.00
C224   C     0.83045   0.37614   0.16582   0.00000  Uiso   1.00
C225   C     0.80090   0.47448   0.02066   0.00000  Uiso   1.00
C226   C     0.86577   0.52552   0.31267   0.00000  Uiso   1.00
C227   C     0.80113   0.47467   0.30413   0.00000  Uiso   1.00
C228   C     0.86554   0.52533   0.02920   0.00000  Uiso   1.00
C229   C     0.83492   0.57922   0.16699   0.00000  Uiso   1.00
C230   C     0.73473   0.50094   0.15471   0.00000  Uiso   1.00
C231   C     0.93193   0.49906   0.17862   0.00000  Uiso   1.00
C232   C     0.67966   0.50555   0.14881   0.00000  Uiso   1.00
C233   C     0.98700   0.49445   0.18453   0.00000  Uiso   1.00
C234   C     0.86182   0.35565   0.13765   0.00000  Uiso   1.00
C235   C     0.80484   0.64435   0.19568   0.00000  Uiso   1.00
C236   C     0.86590   0.64634   0.13877   0.00000  Uiso   1.00
Cu237  Cu    0.83333   0.50001   0.21355   0.00000  Uiso   1.00
Cu238  Cu    0.83333   0.49999   0.11978   0.00000  Uiso   1.00
H239   H     0.77560   0.45446   0.28156   0.00000  Uiso   1.00
H240   H     0.91904   0.56750   0.31757   0.00000  Uiso   1.00
H241   H     0.89106   0.54554   0.05177   0.00000  Uiso   1.00
H242   H     0.67998   0.53258   0.08765   0.00000  Uiso   1.00
H243   H     0.98668   0.46742   0.24569   0.00000  Uiso   1.00
H244   H     0.88507   0.37301   0.11612   0.00000  Uiso   1.00
H245   H     0.78160   0.62699   0.21722   0.00000  Uiso   1.00
H246   H     0.91075   0.60124   0.12634   0.00000  Uiso   1.00
H247   H     0.75592   0.39876   0.20701   0.00000  Uiso   1.00
H248   H     0.74763   0.43250   0.01576   0.00000  Uiso   1.00
N249   N     0.83335   0.50001   0.28403   0.00000  Uiso   1.00
N250   N     0.83332   0.49999   0.04931   0.00000  Uiso   1.00
O251   O     0.83333   0.43989   0.20625   0.00000  Uiso   1.00
O252   O     0.67866   0.47661   0.22532   0.00000  Uiso   1.00
O253   O     0.90014   0.62832   0.11251   0.00000  Uiso   1.00
O254   O     0.76652   0.37168   0.22082   0.00000  Uiso   1.00
O255   O     0.76843   0.44879   0.04096   0.00000  Uiso   1.00
O256   O     0.89824   0.55121   0.29237   0.00000  Uiso   1.00
O257   O     0.83334   0.56011   0.12709   0.00000  Uiso   1.00
O258   O     0.83333   0.43988   0.12706   0.00000  Uiso   1.00
O259   O     0.83334   0.56012   0.20628   0.00000  Uiso   1.00
O260   O     0.75828   0.50000   0.19712   0.00000  Uiso   1.00
O261   O     0.90839   0.50000   0.13621   0.00000  Uiso   1.00
O262   O     0.75828   0.49999   0.11793   0.00000  Uiso   1.00
O263   O     0.90839   0.50001   0.21540   0.00000  Uiso   1.00
O264   O     0.98801   0.52339   0.10802   0.00000  Uiso   1.00
C265   C     0.16507   0.75412   0.16634   0.00000  Uiso   1.00
C266   C     0.13410   0.68699   0.19457   0.00000  Uiso   1.00
C267   C     0.16954   0.95719   0.16752   0.00000  Uiso   1.00
C268   C     0.16379   0.70947   0.16582   0.00000  Uiso   1.00
C269   C     0.13423   0.80781   0.02066   0.00000  Uiso   1.00
C270   C     0.19910   0.85885   0.31267   0.00000  Uiso   1.00
C271   C     0.13446   0.80800   0.30413   0.00000  Uiso   1.00
C272   C     0.19887   0.85867   0.02920   0.00000  Uiso   1.00
C273   C     0.16826   0.91255   0.16699   0.00000  Uiso   1.00
C274   C     0.06807   0.83427   0.15471   0.00000  Uiso   1.00
C275   C     0.26527   0.83240   0.17862   0.00000  Uiso   1.00
C276   C     0.01300   0.83888   0.14881   0.00000  Uiso   1.00
C277   C     0.32034   0.82779   0.18453   0.00000  Uiso   1.00
C278   C     0.19516   0.68898   0.13765   0.00000  Uiso   1.00
C279   C     0.13817   0.97769   0.19568   0.00000  Uiso   1.00
C280   C     0.19923   0.97967   0.13877   0.00000  Uiso   1.00
Cu281  Cu    0.16667   0.83334   0.21355   0.00000  Uiso   1.00
Cu282  Cu    0.16667   0.83333   0.11978   0.00000  Uiso   1.00
H283   H     0.10894   0.78780   0.28156   0.00000  Uiso   1.00
H284   H     0.25237   0.90083   0.31757   0.00000  Uiso   1.00
H285   H     0.22440   0.87887   0.05177   0.00000  Uiso   1.00
H286   H     0.01332   0.86591   0.08765   0.00000  Uiso   1.00
H287   H     0.32002   0.80076   0.24569   0.00000  Uiso   1.00
H288   H     0.21840   0.70634   0.11612   0.00000  Uiso   1.00
H289   H     0.11493   0.96033   0.21722   0.00000  Uiso   1.00
H290   H     0.24408   0.93457   0.12634   0.00000  Uiso   1.00
H291   H     0.08926   0.73210   0.20701   0.00000  Uiso   1.00
H292   H     0.08096   0.76583   0.01576   0.00000  Uiso   1.00
N293   N     0.16668   0.83334   0.28403   0.00000  Uiso   1.00
N294   N     0.16665   0.83332   0.04931   0.00000  Uiso   1.00
O295   O     0.16666   0.77322   0.20625   0.00000  Uiso   1.00
O296   O     0.01199   0.80994   0.22532   0.00000  Uiso   1.00
O297   O     0.23347   0.96165   0.11251   0.00000  Uiso   1.00
O298   O     0.09986   0.70501   0.22082   0.00000  Uiso   1.00
O299   O     0.10176   0.78212   0.04096   0.00000  Uiso   1.00
O300   O     0.23157   0.88455   0.29237   0.00000  Uiso   1.00
O301   O     0.16667   0.89345   0.12709   0.00000  Uiso   1.00
O302   O     0.16666   0.77321   0.12706   0.00000  Uiso   1.00
O303   O     0.16667   0.89346   0.20628   0.00000  Uiso   1.00
O304   O     0.09161   0.83334   0.19712   0.00000  Uiso   1.00
O305   O     0.24172   0.83333   0.13621   0.00000  Uiso   1.00
O306   O     0.09161   0.83333   0.11793   0.00000  Uiso   1.00
O307   O     0.24172   0.83334   0.21540   0.00000  Uiso   1.00
O308   O     0.32134   0.85672   0.10802   0.00000  Uiso   1.00
C309   C     0.49841   0.75412   0.16634   0.00000  Uiso   1.00
C310   C     0.46743   0.68699   0.19457   0.00000  Uiso   1.00
C311   C     0.50288   0.95719   0.16752   0.00000  Uiso   1.00
C312   C     0.49712   0.70947   0.16582   0.00000  Uiso   1.00
C313   C     0.46756   0.80781   0.02066   0.00000  Uiso   1.00
C314   C     0.53244   0.85885   0.31267   0.00000  Uiso   1.00
C315   C     0.46780   0.80800   0.30413   0.00000  Uiso   1.00
C316   C     0.53220   0.85867   0.02920   0.00000  Uiso   1.00
C317   C     0.50159   0.91255   0.16699   0.00000  Uiso   1.00
C318   C     0.40140   0.83427   0.15471   0.00000  Uiso   1.00
C319   C     0.59860   0.83240   0.17862   0.00000  Uiso   1.00
C320   C     0.34633   0.83888   0.14881   0.00000  Uiso   1.00
C321   C     0.65367   0.82779   0.18453   0.00000  Uiso   1.00
C322   C     0.52849   0.68898   0.13765   0.00000  Uiso   1.00
C323   C     0.47151   0.97769   0.19568   0.00000  Uiso   1.00
C324   C     0.53257   0.97967   0.13877   0.00000  Uiso   1.00
Cu325  Cu    0.50000   0.83334   0.21355   0.00000  Uiso   1.00
Cu326  Cu    0.50000   0.83333   0.11978   0.00000  Uiso   1.00
H327   H     0.44227   0.78780   0.28156   0.00000  Uiso   1.00
H328   H     0.58570   0.90083   0.31757   0.00000  Uiso   1.00
H329   H     0.55773   0.87887   0.05177   0.00000  Uiso   1.00
H330   H     0.34665   0.86591   0.08765   0.00000  Uiso   1.00
H331   H     0.65335   0.80076   0.24569   0.00000  Uiso   1.00
H332   H     0.55174   0.70634   0.11612   0.00000  Uiso   1.00
H333   H     0.44826   0.96033   0.21722   0.00000  Uiso   1.00
H334   H     0.57741   0.93457   0.12634   0.00000  Uiso   1.00
H335   H     0.42259   0.73210   0.20701   0.00000  Uiso   1.00
H336   H     0.41430   0.76583   0.01576   0.00000  Uiso   1.00
N337   N     0.50001   0.83334   0.28403   0.00000  Uiso   1.00
N338   N     0.49999   0.83332   0.04931   0.00000  Uiso   1.00
O339   O     0.50000   0.77322   0.20625   0.00000  Uiso   1.00
O340   O     0.34532   0.80994   0.22532   0.00000  Uiso   1.00
O341   O     0.56681   0.96165   0.11251   0.00000  Uiso   1.00
O342   O     0.43319   0.70501   0.22082   0.00000  Uiso   1.00
O343   O     0.43510   0.78212   0.04096   0.00000  Uiso   1.00
O344   O     0.56490   0.88455   0.29237   0.00000  Uiso   1.00
O345   O     0.50000   0.89345   0.12709   0.00000  Uiso   1.00
O346   O     0.50000   0.77321   0.12706   0.00000  Uiso   1.00
O347   O     0.50000   0.89346   0.20628   0.00000  Uiso   1.00
O348   O     0.42495   0.83334   0.19712   0.00000  Uiso   1.00
O349   O     0.57505   0.83333   0.13621   0.00000  Uiso   1.00
O350   O     0.42494   0.83333   0.11793   0.00000  Uiso   1.00
O351   O     0.57506   0.83334   0.21540   0.00000  Uiso   1.00
O352   O     0.65468   0.85672   0.10802   0.00000  Uiso   1.00
C353   C     0.83174   0.75412   0.16634   0.00000  Uiso   1.00
C354   C     0.80076   0.68699   0.19457   0.00000  Uiso   1.00
C355   C     0.83621   0.95719   0.16752   0.00000  Uiso   1.00
C356   C     0.83045   0.70947   0.16582   0.00000  Uiso   1.00
C357   C     0.80090   0.80781   0.02066   0.00000  Uiso   1.00
C358   C     0.86577   0.85885   0.31267   0.00000  Uiso   1.00
C359   C     0.80113   0.80800   0.30413   0.00000  Uiso   1.00
C360   C     0.86554   0.85867   0.02920   0.00000  Uiso   1.00
C361   C     0.83492   0.91255   0.16699   0.00000  Uiso   1.00
C362   C     0.73473   0.83427   0.15471   0.00000  Uiso   1.00
C363   C     0.93193   0.83240   0.17862   0.00000  Uiso   1.00
C364   C     0.67966   0.83888   0.14881   0.00000  Uiso   1.00
C365   C     0.98700   0.82779   0.18453   0.00000  Uiso   1.00
C366   C     0.86182   0.68898   0.13765   0.00000  Uiso   1.00
C367   C     0.80484   0.97769   0.19568   0.00000  Uiso   1.00
C368   C     0.86590   0.97967   0.13877   0.00000  Uiso   1.00
Cu369  Cu    0.83333   0.83334   0.21355   0.00000  Uiso   1.00
Cu370  Cu    0.83333   0.83333   0.11978   0.00000  Uiso   1.00
H371   H     0.77560   0.78780   0.28156   0.00000  Uiso   1.00
H372   H     0.91904   0.90083   0.31757   0.00000  Uiso   1.00
H373   H     0.89106   0.87887   0.05177   0.00000  Uiso   1.00
H374   H     0.67998   0.86591   0.08765   0.00000  Uiso   1.00
H375   H     0.98668   0.80076   0.24569   0.00000  Uiso   1.00
H376   H     0.88507   0.70634   0.11612   0.00000  Uiso   1.00
H377   H     0.78160   0.96033   0.21722   0.00000  Uiso   1.00
H378   H     0.91075   0.93457   0.12634   0.00000  Uiso   1.00
H379   H     0.75592   0.73210   0.20701   0.00000  Uiso   1.00
H380   H     0.74763   0.76583   0.01576   0.00000  Uiso   1.00
N381   N     0.83335   0.83334   0.28403   0.00000  Uiso   1.00
N382   N     0.83332   0.83332   0.04931   0.00000  Uiso   1.00
O383   O     0.83333   0.77322   0.20625   0.00000  Uiso   1.00
O384   O     0.67866   0.80994   0.22532   0.00000  Uiso   1.00
O385   O     0.90014   0.96165   0.11251   0.00000  Uiso   1.00
O386   O     0.76652   0.70501   0.22082   0.00000  Uiso   1.00
O387   O     0.76843   0.78212   0.04096   0.00000  Uiso   1.00
O388   O     0.89824   0.88455   0.29237   0.00000  Uiso   1.00
O389   O     0.83334   0.89345   0.12709   0.00000  Uiso   1.00
O390   O     0.83333   0.77321   0.12706   0.00000  Uiso   1.00
O391   O     0.83334   0.89346   0.20628   0.00000  Uiso   1.00
O392   O     0.75828   0.83334   0.19712   0.00000  Uiso   1.00
O393   O     0.90839   0.83333   0.13621   0.00000  Uiso   1.00
O394   O     0.75828   0.83333   0.11793   0.00000  Uiso   1.00
O395   O     0.90839   0.83334   0.21540   0.00000  Uiso   1.00
O396   O     0.98801   0.85672   0.10802   0.00000  Uiso   1.00
C397   C     0.16507   0.08745   0.49967   0.00000  Uiso   1.00
C398   C     0.13410   0.02033   0.52790   0.00000  Uiso   1.00
C399   C     0.16954   0.29053   0.50085   0.00000  Uiso   1.00
C400   C     0.16379   0.04281   0.49915   0.00000  Uiso   1.00
C401   C     0.13423   0.14115   0.35399   0.00000  Uiso   1.00
C402   C     0.19910   0.19219   0.64601   0.00000  Uiso   1.00
C403   C     0.13446   0.14133   0.63747   0.00000  Uiso   1.00
C404   C     0.19887   0.19200   0.36253   0.00000  Uiso   1.00
C405   C     0.16826   0.24588   0.50033   0.00000  Uiso   1.00
C406   C     0.06807   0.16760   0.48804   0.00000  Uiso   1.00
C407   C     0.26527   0.16573   0.51196   0.00000  Uiso   1.00
C408   C     0.01300   0.17221   0.48214   0.00000  Uiso   1.00
C409   C     0.32034   0.16112   0.51786   0.00000  Uiso   1.00
C410   C     0.19516   0.02231   0.47098   0.00000  Uiso   1.00
C411   C     0.13817   0.31102   0.52902   0.00000  Uiso   1.00
C412   C     0.19923   0.31301   0.47210   0.00000  Uiso   1.00
Cu413  Cu    0.16667   0.16667   0.54689   0.00000  Uiso   1.00
Cu414  Cu    0.16667   0.16666   0.45311   0.00000  Uiso   1.00
H415   H     0.10894   0.12113   0.61489   0.00000  Uiso   1.00
H416   H     0.25237   0.23417   0.65091   0.00000  Uiso   1.00
H417   H     0.22440   0.21220   0.38511   0.00000  Uiso   1.00
H418   H     0.01332   0.19924   0.42098   0.00000  Uiso   1.00
H419   H     0.32002   0.13409   0.57902   0.00000  Uiso   1.00
H420   H     0.21840   0.03967   0.44945   0.00000  Uiso   1.00
H421   H     0.11493   0.29366   0.55055   0.00000  Uiso   1.00
H422   H     0.24408   0.26791   0.45967   0.00000  Uiso   1.00
H423   H     0.08926   0.06543   0.54034   0.00000  Uiso   1.00
H424   H     0.08096   0.09917   0.34909   0.00000  Uiso   1.00
N425   N     0.16668   0.16668   0.61736   0.00000  Uiso   1.00
N426   N     0.16665   0.16666   0.38264   0.00000  Uiso   1.00
O427   O     0.16666   0.10655   0.53958   0.00000  Uiso   1.00
O428   O     0.01199   0.14328   0.55865   0.00000  Uiso   1.00
O429   O     0.23347   0.29499   0.44584   0.00000  Uiso   1.00
O430   O     0.09986   0.03835   0.55416   0.00000  Uiso   1.00
O431   O     0.10176   0.11545   0.37430   0.00000  Uiso   1.00
O432   O     0.23157   0.21788   0.62570   0.00000  Uiso   1.00
O433   O     0.16667   0.22678   0.46042   0.00000  Uiso   1.00
O434   O     0.16666   0.10654   0.46039   0.00000  Uiso   1.00
O435   O     0.16667   0.22679   0.53961   0.00000  Uiso   1.00
O436   O     0.09161   0.16667   0.53046   0.00000  Uiso   1.00
O437   O     0.24172   0.16666   0.46954   0.00000  Uiso   1.00
O438   O     0.09161   0.16666   0.45127   0.00000  Uiso   1.00
O439   O     0.24172   0.16667   0.54873   0.00000  Uiso   1.00
O440   O     0.32134   0.19006   0.44135   0.00000  Uiso   1.00
C441   C     0.49841   0.08745   0.49967   0.00000  Uiso   1.00
C442   C     0.46743   0.02033   0.52790   0.00000  Uiso   1.00
C443   C     0.50288   0.29053   0.50085   0.00000  Uiso   1.00
C444   C     0.49712   0.04281   0.49915   0.00000  Uiso   1.00
C445   C     0.46756   0.14115   0.35399   0.00000  Uiso   1.00
C446   C     0.53244   0.19219   0.64601   0.00000  Uiso   1.00
C447   C     0.46780   0.14133   0.63747   0.00000  Uiso   1.00
C448   C     0.53220   0.19200   0.36253   0.00000  Uiso   1.00
C449   C     0.50159   0.24588   0.50033   0.00000  Uiso   1.00
C450   C     0.40140   0.16760   0.48804   0.00000  Uiso   1.00
C451   C     0.59860   0.16573   0.51196   0.00000  Uiso   1.00
C452   C     0.34633   0.17221   0.48214   0.00000  Uiso   1.00
C453   C     0.65367   0.16112   0.51786   0.00000  Uiso   1.00
C454   C     0.52849   0.02231   0.47098   0.00000  Uiso   1.00
C455   C     0.47151   0.31102   0.52902   0.00000  Uiso   1.00
C456   C     0.53257   0.31301   0.47210   0.00000  Uiso   1.00
Cu457  Cu    0.50000   0.16667   0.54689   0.00000  Uiso   1.00
Cu458  Cu    0.50000   0.16666   0.45311   0.00000  Uiso   1.00
H459   H     0.44227   0.12113   0.61489   0.00000  Uiso   1.00
H460   H     0.58570   0.23417   0.65091   0.00000  Uiso   1.00
H461   H     0.55773   0.21220   0.38511   0.00000  Uiso   1.00
H462   H     0.34665   0.19924   0.42098   0.00000  Uiso   1.00
H463   H     0.65335   0.13409   0.57902   0.00000  Uiso   1.00
H464   H     0.55174   0.03967   0.44945   0.00000  Uiso   1.00
H465   H     0.44826   0.29366   0.55055   0.00000  Uiso   1.00
H466   H     0.57741   0.26791   0.45967   0.00000  Uiso   1.00
H467   H     0.42259   0.06543   0.54034   0.00000  Uiso   1.00
H468   H     0.41430   0.09917   0.34909   0.00000  Uiso   1.00
N469   N     0.50001   0.16668   0.61736   0.00000  Uiso   1.00
N470   N     0.49999   0.16666   0.38264   0.00000  Uiso   1.00
O471   O     0.50000   0.10655   0.53958   0.00000  Uiso   1.00
O472   O     0.34532   0.14328   0.55865   0.00000  Uiso   1.00
O473   O     0.56681   0.29499   0.44584   0.00000  Uiso   1.00
O474   O     0.43319   0.03835   0.55416   0.00000  Uiso   1.00
O475   O     0.43510   0.11545   0.37430   0.00000  Uiso   1.00
O476   O     0.56490   0.21788   0.62570   0.00000  Uiso   1.00
O477   O     0.50000   0.22678   0.46042   0.00000  Uiso   1.00
O478   O     0.50000   0.10654   0.46039   0.00000  Uiso   1.00
O479   O     0.50000   0.22679   0.53961   0.00000  Uiso   1.00
O480   O     0.42495   0.16667   0.53046   0.00000  Uiso   1.00
O481   O     0.57505   0.16666   0.46954   0.00000  Uiso   1.00
O482   O     0.42494   0.16666   0.45127   0.00000  Uiso   1.00
O483   O     0.57506   0.16667   0.54873   0.00000  Uiso   1.00
O484   O     0.65468   0.19006   0.44135   0.00000  Uiso   1.00
C485   C     0.83174   0.08745   0.49967   0.00000  Uiso   1.00
C486   C     0.80076   0.02033   0.52790   0.00000  Uiso   1.00
C487   C     0.83621   0.29053   0.50085   0.00000  Uiso   1.00
C488   C     0.83045   0.04281   0.49915   0.00000  Uiso   1.00
C489   C     0.80090   0.14115   0.35399   0.00000  Uiso   1.00
C490   C     0.86577   0.19219   0.64601   0.00000  Uiso   1.00
C491   C     0.80113   0.14133   0.63747   0.00000  Uiso   1.00
C492   C     0.86554   0.19200   0.36253   0.00000  Uiso   1.00
C493   C     0.83492   0.24588   0.50033   0.00000  Uiso   1.00
C494   C     0.73473   0.16760   0.48804   0.00000  Uiso   1.00
C495   C     0.93193   0.16573   0.51196   0.00000  Uiso   1.00
C496   C     0.67966   0.17221   0.48214   0.00000  Uiso   1.00
C497   C     0.98700   0.16112   0.51786   0.00000  Uiso   1.00
C498   C     0.86182   0.02231   0.47098   0.00000  Uiso   1.00
C499   C     0.80484   0.31102   0.52902   0.00000  Uiso   1.00
C500   C     0.86590   0.31301   0.47210   0.00000  Uiso   1.00
Cu501  Cu    0.83333   0.16667   0.54689   0.00000  Uiso   1.00
Cu502  Cu    0.83333   0.16666   0.45311   0.00000  Uiso   1.00
H503   H     0.77560   0.12113   0.61489   0.00000  Uiso   1.00
H504   H     0.91904   0.23417   0.65091   0.00000  Uiso   1.00
H505   H     0.89106   0.21220   0.38511   0.00000  Uiso   1.00
H506   H     0.67998   0.19924   0.42098   0.00000  Uiso   1.00
H507   H     0.98668   0.13409   0.57902   0.00000  Uiso   1.00
H508   H     0.88507   0.03967   0.44945   0.00000  Uiso   1.00
H509   H     0.78160   0.29366   0.55055   0.00000  Uiso   1.00
H510   H     0.91075   0.26791   0.45967   0.00000  Uiso   1.00
H511   H     0.75592   0.06543   0.54034   0.00000  Uiso   1.00
H512   H     0.74763   0.09917   0.34909   0.00000  Uiso   1.00
N513   N     0.83335   0.16668   0.61736   0.00000  Uiso   1.00
N514   N     0.83332   0.16666   0.38264   0.00000  Uiso   1.00
O515   O     0.83333   0.10655   0.53958   0.00000  Uiso   1.00
O516   O     0.67866   0.14328   0.55865   0.00000  Uiso   1.00
O517   O     0.90014   0.29499   0.44584   0.00000  Uiso   1.00
O518   O     0.76652   0.03835   0.55416   0.00000  Uiso   1.00
O519   O     0.76843   0.11545   0.37430   0.00000  Uiso   1.00
O520   O     0.89824   0.21788   0.62570   0.00000  Uiso   1.00
O521   O     0.83334   0.22678   0.46042   0.00000  Uiso   1.00
O522   O     0.83333   0.10654   0.46039   0.00000  Uiso   1.00
O523   O     0.83334   0.22679   0.53961   0.00000  Uiso   1.00
O524   O     0.75828   0.16667   0.53046   0.00000  Uiso   1.00
O525   O     0.90839   0.16666   0.46954   0.00000  Uiso   1.00
O526   O     0.75828   0.16666   0.45127   0.00000  Uiso   1.00
O527   O     0.90839   0.16667   0.54873   0.00000  Uiso   1.00
O528   O     0.98801   0.19006   0.44135   0.00000  Uiso   1.00
C529   C     0.16507   0.42078   0.49967   0.00000  Uiso   1.00
C530   C     0.13410   0.35366   0.52790   0.00000  Uiso   1.00
C531   C     0.16954   0.62386   0.50085   0.00000  Uiso   1.00
C532   C     0.16379   0.37614   0.49915   0.00000  Uiso   1.00
C533   C     0.13423   0.47448   0.35399   0.00000  Uiso   1.00
C534   C     0.19910   0.52552   0.64601   0.00000  Uiso   1.00
C535   C     0.13446   0.47467   0.63747   0.00000  Uiso   1.00
C536   C     0.19887   0.52533   0.36253   0.00000  Uiso   1.00
C537   C     0.16826   0.57922   0.50033   0.00000  Uiso   1.00
C538   C     0.06807   0.50094   0.48804   0.00000  Uiso   1.00
C539   C     0.26527   0.49906   0.51196   0.00000  Uiso   1.00
C540   C     0.01300   0.50555   0.48214   0.00000  Uiso   1.00
C541   C     0.32034   0.49445   0.51786   0.00000  Uiso   1.00
C542   C     0.19516   0.35565   0.47098   0.00000  Uiso   1.00
C543   C     0.13817   0.64435   0.52902   0.00000  Uiso   1.00
C544   C     0.19923   0.64634   0.47210   0.00000  Uiso   1.00
Cu545  Cu    0.16667   0.50001   0.54689   0.00000  Uiso   1.00
Cu546  Cu    0.16667   0.49999   0.45311   0.00000  Uiso   1.00
H547   H     0.10894   0.45446   0.61489   0.00000  Uiso   1.00
H548   H     0.25237   0.56750   0.65091   0.00000  Uiso   1.00
H549   H     0.22440   0.54554   0.38511   0.00000  Uiso   1.00
H550   H     0.01332   0.53258   0.42098   0.00000  Uiso   1.00
H551   H     0.32002   0.46742   0.57902   0.00000  Uiso   1.00
H552   H     0.21840   0.37301   0.44945   0.00000  Uiso   1.00
H553   H     0.11493   0.62699   0.55055   0.00000  Uiso   1.00
H554   H     0.24408   0.60124   0.45967   0.00000  Uiso   1.00
H555   H     0.08926   0.39876   0.54034   0.00000  Uiso   1.00
H556   H     0.08096   0.43250   0.34909   0.00000  Uiso   1.00
N557   N     0.16668   0.50001   0.61736   0.00000  Uiso   1.00
N558   N     0.16665   0.49999   0.38264   0.00000  Uiso   1.00
O559   O     0.16666   0.43989   0.53958   0.00000  Uiso   1.00
O560   O     0.01199   0.47661   0.55865   0.00000  Uiso   1.00
O561   O     0.23347   0.62832   0.44584   0.00000  Uiso   1.00
O562   O     0.09986   0.37168   0.55416   0.00000  Uiso   1.00
O563   O     0.10176   0.44879   0.37430   0.00000  Uiso   1.00
O564   O     0.23157   0.55121   0.62570   0.00000  Uiso   1.00
O565   O     0.16667   0.56011   0.46042   0.00000  Uiso   1.00
O566   O     0.16666   0.43988   0.46039   0.00000  Uiso   1.00
O567   O     0.16667   0.56012   0.53961   0.00000  Uiso   1.00
O568   O     0.09161   0.50000   0.53046   0.00000  Uiso   1.00
O569   O     0.24172   0.50000   0.46954   0.00000  Uiso   1.00
O570   O     0.09161   0.49999   0.45127   0.00000  Uiso   1.00
O571   O     0.24172   0.50001   0.54873   0.00000  Uiso   1.00
O572   O     0.32134   0.52339   0.44135   0.00000  Uiso   1.00
C573   C     0.49841   0.42078   0.49967   0.00000  Uiso   1.00
C574   C     0.46743   0.35366   0.52790   0.00000  Uiso   1.00
C575   C     0.50288   0.62386   0.50085   0.00000  Uiso   1.00
C576   C     0.49712   0.37614   0.49915   0.00000  Uiso   1.00
C577   C     0.46756   0.47448   0.35399   0.00000  Uiso   1.00
C578   C     0.53244   0.52552   0.64601   0.00000  Uiso   1.00
C579   C     0.46780   0.47467   0.63747   0.00000  Uiso   1.00
C580   C     0.53220   0.52533   0.36253   0.00000  Uiso   1.00
C581   C     0.50159   0.57922   0.50033   0.00000  Uiso   1.00
C582   C     0.40140   0.50094   0.48804   0.00000  Uiso   1.00
C583   C     0.59860   0.49906   0.51196   0.00000  Uiso   1.00
C584   C     0.34633   0.50555   0.48214   0.00000  Uiso   1.00
C585   C     0.65367   0.49445   0.51786   0.00000  Uiso   1.00
C586   C     0.52849   0.35565   0.47098   0.00000  Uiso   1.00
C587   C     0.47151   0.64435   0.52902   0.00000  Uiso   1.00
C588   C     0.53257   0.64634   0.47210   0.00000  Uiso   1.00
Cu589  Cu    0.50000   0.50001   0.54689   0.00000  Uiso   1.00
Cu590  Cu    0.50000   0.49999   0.45311   0.00000  Uiso   1.00
H591   H     0.44227   0.45446   0.61489   0.00000  Uiso   1.00
H592   H     0.58570   0.56750   0.65091   0.00000  Uiso   1.00
H593   H     0.55773   0.54554   0.38511   0.00000  Uiso   1.00
H594   H     0.34665   0.53258   0.42098   0.00000  Uiso   1.00
H595   H     0.65335   0.46742   0.57902   0.00000  Uiso   1.00
H596   H     0.55174   0.37301   0.44945   0.00000  Uiso   1.00
H597   H     0.44826   0.62699   0.55055   0.00000  Uiso   1.00
H598   H     0.57741   0.60124   0.45967   0.00000  Uiso   1.00
H599   H     0.42259   0.39876   0.54034   0.00000  Uiso   1.00
H600   H     0.41430   0.43250   0.34909   0.00000  Uiso   1.00
N601   N     0.50001   0.50001   0.61736   0.00000  Uiso   1.00
N602   N     0.49999   0.49999   0.38264   0.00000  Uiso   1.00
O603   O     0.50000   0.43989   0.53958   0.00000  Uiso   1.00
O604   O     0.34532   0.47661   0.55865   0.00000  Uiso   1.00
O605   O     0.56681   0.62832   0.44584   0.00000  Uiso   1.00
O606   O     0.43319   0.37168   0.55416   0.00000  Uiso   1.00
O607   O     0.43510   0.44879   0.37430   0.00000  Uiso   1.00
O608   O     0.56490   0.55121   0.62570   0.00000  Uiso   1.00
O609   O     0.50000   0.56011   0.46042   0.00000  Uiso   1.00
O610   O     0.50000   0.43988   0.46039   0.00000  Uiso   1.00
O611   O     0.50000   0.56012   0.53961   0.00000  Uiso   1.00
O612   O     0.42495   0.50000   0.53046   0.00000  Uiso   1.00
O613   O     0.57505   0.50000   0.46954   0.00000  Uiso   1.00
O614   O     0.42494   0.49999   0.45127   0.00000  Uiso   1.00
O615   O     0.57506   0.50001   0.54873   0.00000  Uiso   1.00
O616   O     0.65468   0.52339   0.44135   0.00000  Uiso   1.00
C617   C     0.83174   0.42078   0.49967   0.00000  Uiso   1.00
C618   C     0.80076   0.35366   0.52790   0.00000  Uiso   1.00
C619   C     0.83621   0.62386   0.50085   0.00000  Uiso   1.00
C620   C     0.83045   0.37614   0.49915   0.00000  Uiso   1.00
C621   C     0.80090   0.47448   0.35399   0.00000  Uiso   1.00
C622   C     0.86577   0.52552   0.64601   0.00000  Uiso   1.00
C623   C     0.80113   0.47467   0.63747   0.00000  Uiso   1.00
C624   C     0.86554   0.52533   0.36253   0.00000  Uiso   1.00
C625   C     0.83492   0.57922   0.50033   0.00000  Uiso   1.00
C626   C     0.73473   0.50094   0.48804   0.00000  Uiso   1.00
C627   C     0.93193   0.49906   0.51196   0.00000  Uiso   1.00
C628   C     0.67966   0.50555   0.48214   0.00000  Uiso   1.00
C629   C     0.98700   0.49445   0.51786   0.00000  Uiso   1.00
C630   C     0.86182   0.35565   0.47098   0.00000  Uiso   1.00
C631   C     0.80484   0.64435   0.52902   0.00000  Uiso   1.00
C632   C     0.86590   0.64634   0.47210   0.00000  Uiso   1.00
Cu633  Cu    0.83333   0.50001   0.54689   0.00000  Uiso   1.00
Cu634  Cu    0.83333   0.49999   0.45311   0.00000  Uiso   1.00
H635   H     0.77560   0.45446   0.61489   0.00000  Uiso   1.00
H636   H     0.91904   0.56750   0.65091   0.00000  Uiso   1.00
H637   H     0.89106   0.54554   0.38511   0.00000  Uiso   1.00
H638   H     0.67998   0.53258   0.42098   0.00000  Uiso   1.00
H639   H     0.98668   0.46742   0.57902   0.00000  Uiso   1.00
H640   H     0.88507   0.37301   0.44945   0.00000  Uiso   1.00
H641   H     0.78160   0.62699   0.55055   0.00000  Uiso   1.00
H642   H     0.91075   0.60124   0.45967   0.00000  Uiso   1.00
H643   H     0.75592   0.39876   0.54034   0.00000  Uiso   1.00
H644   H     0.74763   0.43250   0.34909   0.00000  Uiso   1.00
N645   N     0.83335   0.50001   0.61736   0.00000  Uiso   1.00
N646   N     0.83332   0.49999   0.38264   0.00000  Uiso   1.00
O647   O     0.83333   0.43989   0.53958   0.00000  Uiso   1.00
O648   O     0.67866   0.47661   0.55865   0.00000  Uiso   1.00
O649   O     0.90014   0.62832   0.44584   0.00000  Uiso   1.00
O650   O     0.76652   0.37168   0.55416   0.00000  Uiso   1.00
O651   O     0.76843   0.44879   0.37430   0.00000  Uiso   1.00
O652   O     0.89824   0.55121   0.62570   0.00000  Uiso   1.00
O653   O     0.83334   0.56011   0.46042   0.00000  Uiso   1.00
O654   O     0.83333   0.43988   0.46039   0.00000  Uiso   1.00
O655   O     0.83334   0.56012   0.53961   0.00000  Uiso   1.00
O656   O     0.75828   0.50000   0.53046   0.00000  Uiso   1.00
O657   O     0.90839   0.50000   0.46954   0.00000  Uiso   1.00
O658   O     0.75828   0.49999   0.45127   0.00000  Uiso   1.00
O659   O     0.90839   0.50001   0.54873   0.00000  Uiso   1.00
O660   O     0.98801   0.52339   0.44135   0.00000  Uiso   1.00
C661   C     0.16507   0.75412   0.49967   0.00000  Uiso   1.00
C662   C     0.13410   0.68699   0.52790   0.00000  Uiso   1.00
C663   C     0.16954   0.95719   0.50085   0.00000  Uiso   1.00
C664   C     0.16379   0.70947   0.49915   0.00000  Uiso   1.00
C665   C     0.13423   0.80781   0.35399   0.00000  Uiso   1.00
C666   C     0.19910   0.85885   0.64601   0.00000  Uiso   1.00
C667   C     0.13446   0.80800   0.63747   0.00000  Uiso   1.00
C668   C     0.19887   0.85867   0.36253   0.00000  Uiso   1.00
C669   C     0.16826   0.91255   0.50033   0.00000  Uiso   1.00
C670   C     0.06807   0.83427   0.48804   0.00000  Uiso   1.00
C671   C     0.26527   0.83240   0.51196   0.00000  Uiso   1.00
C672   C     0.01300   0.83888   0.48214   0.00000  Uiso   1.00
C673   C     0.32034   0.82779   0.51786   0.00000  Uiso   1.00
C674   C     0.19516   0.68898   0.47098   0.00000  Uiso   1.00
C675   C     0.13817   0.97769   0.52902   0.00000  Uiso   1.00
C676   C     0.19923   0.97967   0.47210   0.00000  Uiso   1.00
Cu677  Cu    0.16667   0.83334   0.54689   0.00000  Uiso   1.00
Cu678  Cu    0.16667   0.83333   0.45311   0.00000  Uiso   1.00
H679   H     0.10894   0.78780   0.61489   0.00000  Uiso   1.00
H680   H     0.25237   0.90083   0.65091   0.00000  Uiso   1.00
H681   H     0.22440   0.87887   0.38511   0.00000  Uiso   1.00
H682   H     0.01332   0.86591   0.42098   0.00000  Uiso   1.00
H683   H     0.32002   0.80076   0.57902   0.00000  Uiso   1.00
H684   H     0.21840   0.70634   0.44945   0.00000  Uiso   1.00
H685   H     0.11493   0.96033   0.55055   0.00000  Uiso   1.00
H686   H     0.24408   0.93457   0.45967   0.00000  Uiso   1.00
H687   H     0.08926   0.73210   0.54034   0.00000  Uiso   1.00
H688   H     0.08096   0.76583   0.34909   0.00000  Uiso   1.00
N689   N     0.16668   0.83334   0.61736   0.00000  Uiso   1.00
N690   N     0.16665   0.83332   0.38264   0.00000  Uiso   1.00
O691   O     0.16666   0.77322   0.53958   0.00000  Uiso   1.00
O692   O     0.01199   0.80994   0.55865   0.00000  Uiso   1.00
O693   O     0.23347   0.96165   0.44584   0.00000  Uiso   1.00
O694   O     0.09986   0.70501   0.55416   0.00000  Uiso   1.00
O695   O     0.10176   0.78212   0.37430   0.00000  Uiso   1.00
O696   O     0.23157   0.88455   0.62570   0.00000  Uiso   1.00
O697   O     0.16667   0.89345   0.46042   0.00000  Uiso   1.00
O698   O     0.16666   0.77321   0.46039   0.00000  Uiso   1.00
O699   O     0.16667   0.89346   0.53961   0.00000  Uiso   1.00
O700   O     0.09161   0.83334   0.53046   0.00000  Uiso   1.00
O701   O     0.24172   0.83333   0.46954   0.00000  Uiso   1.00
O702   O     0.09161   0.83333   0.45127   0.00000  Uiso   1.00
O703   O     0.24172   0.83334   0.54873   0.00000  Uiso   1.00
O704   O     0.32134   0.85672   0.44135   0.00000  Uiso   1.00
C705   C     0.49841   0.75412   0.49967   0.00000  Uiso   1.00
C706   C     0.46743   0.68699   0.52790   0.00000  Uiso   1.00
C707   C     0.50288   0.95719   0.50085   0.00000  Uiso   1.00
C708   C     0.49712   0.70947   0.49915   0.00000  Uiso   1.00
C709   C     0.46756   0.80781   0.35399   0.00000  Uiso   1.00
C710   C     0.53244   0.85885   0.64601   0.00000  Uiso   1.00
C711   C     0.46780   0.80800   0.63747   0.00000  Uiso   1.00
C712   C     0.53220   0.85867   0.36253   0.00000  Uiso   1.00
C713   C     0.50159   0.91255   0.50033   0.00000  Uiso   1.00
C714   C     0.40140   0.83427   0.48804   0.00000  Uiso   1.00
C715   C     0.59860   0.83240   0.51196   0.00000  Uiso   1.00
C716   C     0.34633   0.83888   0.48214   0.00000  Uiso   1.00
C717   C     0.65367   0.82779   0.51786   0.00000  Uiso   1.00
C718   C     0.52849   0.68898   0.47098   0.00000  Uiso   1.00
C719   C     0.47151   0.97769   0.52902   0.00000  Uiso   1.00
C720   C     0.53257   0.97967   0.47210   0.00000  Uiso   1.00
Cu721  Cu    0.50000   0.83334   0.54689   0.00000  Uiso   1.00
Cu722  Cu    0.50000   0.83333   0.45311   0.00000  Uiso   1.00
H723   H     0.44227   0.78780   0.61489   0.00000  Uiso   1.00
H724   H     0.58570   0.90083   0.65091   0.00000  Uiso   1.00
H725   H     0.55773   0.87887   0.38511   0.00000  Uiso   1.00
H726   H     0.34665   0.86591   0.42098   0.00000  Uiso   1.00
H727   H     0.65335   0.80076   0.57902   0.00000  Uiso   1.00
H728   H     0.55174   0.70634   0.44945   0.00000  Uiso   1.00
H729   H     0.44826   0.96033   0.55055   0.00000  Uiso   1.00
H730   H     0.57741   0.93457   0.45967   0.00000  Uiso   1.00
H731   H     0.42259   0.73210   0.54034   0.00000  Uiso   1.00
H732   H     0.41430   0.76583   0.34909   0.00000  Uiso   1.00
N733   N     0.50001   0.83334   0.61736   0.00000  Uiso   1.00
N734   N     0.49999   0.83332   0.38264   0.00000  Uiso   1.00
O735   O     0.50000   0.77322   0.53958   0.00000  Uiso   1.00
O736   O     0.34532   0.80994   0.55865   0.00000  Uiso   1.00
O737   O     0.56681   0.96165   0.44584   0.00000  Uiso   1.00
O738   O     0.43319   0.70501   0.55416   0.00000  Uiso   1.00
O739   O     0.43510   0.78212   0.37430   0.00000  Uiso   1.00
O740   O     0.56490   0.88455   0.62570   0.00000  Uiso   1.00
O741   O     0.50000   0.89345   0.46042   0.00000  Uiso   1.00
O742   O     0.50000   0.77321   0.46039   0.00000  Uiso   1.00
O743   O     0.50000   0.89346   0.53961   0.00000  Uiso   1.00
O744   O     0.42495   0.83334   0.53046   0.00000  Uiso   1.00
O745   O     0.57505   0.83333   0.46954   0.00000  Uiso   1.00
O746   O     0.42494   0.83333   0.45127   0.00000  Uiso   1.00
O747   O     0.57506   0.83334   0.54873   0.00000  Uiso   1.00
O748   O     0.65468   0.85672   0.44135   0.00000  Uiso   1.00
C749   C     0.83174   0.75412   0.49967   0.00000  Uiso   1.00
C750   C     0.80076   0.68699   0.52790   0.00000  Uiso   1.00
C751   C     0.83621   0.95719   0.50085   0.00000  Uiso   1.00
C752   C     0.83045   0.70947   0.49915   0.00000  Uiso   1.00
C753   C     0.80090   0.80781   0.35399   0.00000  Uiso   1.00
C754   C     0.86577   0.85885   0.64601   0.00000  Uiso   1.00
C755   C     0.80113   0.80800   0.63747   0.00000  Uiso   1.00
C756   C     0.86554   0.85867   0.36253   0.00000  Uiso   1.00
C757   C     0.83492   0.91255   0.50033   0.00000  Uiso   1.00
C758   C     0.73473   0.83427   0.48804   0.00000  Uiso   1.00
C759   C     0.93193   0.83240   0.51196   0.00000  Uiso   1.00
C760   C     0.67966   0.83888   0.48214   0.00000  Uiso   1.00
C761   C     0.98700   0.82779   0.51786   0.00000  Uiso   1.00
C762   C     0.86182   0.68898   0.47098   0.00000  Uiso   1.00
C763   C     0.80484   0.97769   0.52902   0.00000  Uiso   1.00
C764   C     0.86590   0.97967   0.47210   0.00000  Uiso   1.00
Cu765  Cu    0.83333   0.83334   0.54689   0.00000  Uiso   1.00
Cu766  Cu    0.83333   0.83333   0.45311   0.00000  Uiso   1.00
H767   H     0.77560   0.78780   0.61489   0.00000  Uiso   1.00
H768   H     0.91904   0.90083   0.65091   0.00000  Uiso   1.00
H769   H     0.89106   0.87887   0.38511   0.00000  Uiso   1.00
H770   H     0.67998   0.86591   0.42098   0.00000  Uiso   1.00
H771   H     0.98668   0.80076   0.57902   0.00000  Uiso   1.00
H772   H     0.88507   0.70634   0.44945   0.00000  Uiso   1.00
H773   H     0.78160   0.96033   0.55055   0.00000  Uiso   1.00
H774   H     0.91075   0.93457   0.45967   0.00000  Uiso   1.00
H775   H     0.75592   0.73210   0.54034   0.00000  Uiso   1.00
H776   H     0.74763   0.76583   0.34909   0.00000  Uiso   1.00
N777   N     0.83335   0.83334   0.61736   0.00000  Uiso   1.00
N778   N     0.83332   0.83332   0.38264   0.00000  Uiso   1.00
O779   O     0.83333   0.77322   0.53958   0.00000  Uiso   1.00
O780   O     0.67866   0.80994   0.55865   0.00000  Uiso   1.00
O781   O     0.90014   0.96165   0.44584   0.00000  Uiso   1.00
O782   O     0.76652   0.70501   0.55416   0.00000  Uiso   1.00
O783   O     0.76843   0.78212   0.37430   0.00000  Uiso   1.00
O784   O     0.89824   0.88455   0.62570   0.00000  Uiso   1.00
O785   O     0.83334   0.89345   0.46042   0.00000  Uiso   1.00
O786   O     0.83333   0.77321   0.46039   0.00000  Uiso   1.00
O787   O     0.83334   0.89346   0.53961   0.00000  Uiso   1.00
O788   O     0.75828   0.83334   0.53046   0.00000  Uiso   1.00
O789   O     0.90839   0.83333   0.46954   0.00000  Uiso   1.00
O790   O     0.75828   0.83333   0.45127   0.00000  Uiso   1.00
O791   O     0.90839   0.83334   0.54873   0.00000  Uiso   1.00
O792   O     0.98801   0.85672   0.44135   0.00000  Uiso   1.00
C793   C     0.16507   0.08745   0.83301   0.00000  Uiso   1.00
C794   C     0.13410   0.02033   0.86123   0.00000  Uiso   1.00
C795   C     0.16954   0.29053   0.83418   0.00000  Uiso   1.00
C796   C     0.16379   0.04281   0.83248   0.00000  Uiso   1.00
C797   C     0.13423   0.14115   0.68733   0.00000  Uiso   1.00
C798   C     0.19910   0.19219   0.97934   0.00000  Uiso   1.00
C799   C     0.13446   0.14133   0.97080   0.00000  Uiso   1.00
C800   C     0.19887   0.19200   0.69587   0.00000  Uiso   1.00
C801   C     0.16826   0.24588   0.83366   0.00000  Uiso   1.00
C802   C     0.06807   0.16760   0.82138   0.00000  Uiso   1.00
C803   C     0.26527   0.16573   0.84529   0.00000  Uiso   1.00
C804   C     0.01300   0.17221   0.81547   0.00000  Uiso   1.00
C805   C     0.32034   0.16112   0.85119   0.00000  Uiso   1.00
C806   C     0.19516   0.02231   0.80432   0.00000  Uiso   1.00
C807   C     0.13817   0.31102   0.86235   0.00000  Uiso   1.00
C808   C     0.19923   0.31301   0.80543   0.00000  Uiso   1.00
Cu809  Cu    0.16667   0.16667   0.88022   0.00000  Uiso   1.00
Cu810  Cu    0.16667   0.16666   0.78645   0.00000  Uiso   1.00
H811   H     0.10894   0.12113   0.94823   0.00000  Uiso   1.00
H812   H     0.25237   0.23417   0.98424   0.00000  Uiso   1.00
H813   H     0.22440   0.21220   0.71844   0.00000  Uiso   1.00
H814   H     0.01332   0.19924   0.75431   0.00000  Uiso   1.00
H815   H     0.32002   0.13409   0.91235   0.00000  Uiso   1.00
H816   H     0.21840   0.03967   0.78278   0.00000  Uiso   1.00
H817   H     0.11493   0.29366   0.88388   0.00000  Uiso   1.00
H818   H     0.24408   0.26791   0.79300   0.00000  Uiso   1.00
H819   H     0.08926   0.06543   0.87367   0.00000  Uiso   1.00
H820   H     0.08096   0.09917   0.68243   0.00000  Uiso   1.00
N821   N     0.16668   0.16668   0.95069   0.00000  Uiso   1.00
N822   N     0.16665   0.16666   0.71597   0.00000  Uiso   1.00
O823   O     0.16666   0.10655   0.87291   0.00000  Uiso   1.00
O824   O     0.01199   0.14328   0.89198   0.00000  Uiso   1.00
O825   O     0.23347   0.29499   0.77918   0.00000  Uiso   1.00
O826   O     0.09986   0.03835   0.88749   0.00000  Uiso   1.00
O827   O     0.10176   0.11545   0.70763   0.00000  Uiso   1.00
O828   O     0.23157   0.21788   0.95904   0.00000  Uiso   1.00
O829   O     0.16667   0.22678   0.79375   0.00000  Uiso   1.00
O830   O     0.16666   0.10654   0.79372   0.00000  Uiso   1.00
O831   O     0.16667   0.22679   0.87294   0.00000  Uiso   1.00
O832   O     0.09161   0.16667   0.86379   0.00000  Uiso   1.00
O833   O     0.24172   0.16666   0.80288   0.00000  Uiso   1.00
O834   O     0.09161   0.16666   0.78460   0.00000  Uiso   1.00
O835   O     0.24172   0.16667   0.88207   0.00000  Uiso   1.00
O836   O     0.32134   0.19006   0.77468   0.00000  Uiso   1.00
C837   C     0.49841   0.08745   0.83301   0.00000  Uiso   1.00
C838   C     0.46743   0.02033   0.86123   0.00000  Uiso   1.00
C839   C     0.50288   0.29053   0.83418   0.00000  Uiso   1.00
C840   C     0.49712   0.04281   0.83248   0.00000  Uiso   1.00
C841   C     0.46756   0.14115   0.68733   0.00000  Uiso   1.00
C842   C     0.53244   0.19219   0.97934   0.00000  Uiso   1.00
C843   C     0.46780   0.14133   0.97080   0.00000  Uiso   1.00
C844   C     0.53220   0.19200   0.69587   0.00000  Uiso   1.00
C845   C     0.50159   0.24588   0.83366   0.00000  Uiso   1.00
C846   C     0.40140   0.16760   0.82138   0.00000  Uiso   1.00
C847   C     0.59860   0.16573   0.84529   0.00000  Uiso   1.00
C848   C     0.34633   0.17221   0.81547   0.00000  Uiso   1.00
C849   C     0.65367   0.16112   0.85119   0.00000  Uiso   1.00
C850   C     0.52849   0.02231   0.80432   0.00000  Uiso   1.00
C851   C     0.47151   0.31102   0.86235   0.00000  Uiso   1.00
C852   C     0.53257   0.31301   0.80543   0.00000  Uiso   1.00
Cu853  Cu    0.50000   0.16667   0.88022   0.00000  Uiso   1.00
Cu854  Cu    0.50000   0.16666   0.78645   0.00000  Uiso   1.00
H855   H     0.44227   0.12113   0.94823   0.00000  Uiso   1.00
H856   H     0.58570   0.23417   0.98424   0.00000  Uiso   1.00
H857   H     0.55773   0.21220   0.71844   0.00000  Uiso   1.00
H858   H     0.34665   0.19924   0.75431   0.00000  Uiso   1.00
H859   H     0.65335   0.13409   0.91235   0.00000  Uiso   1.00
H860   H     0.55174   0.03967   0.78278   0.00000  Uiso   1.00
H861   H     0.44826   0.29366   0.88388   0.00000  Uiso   1.00
H862   H     0.57741   0.26791   0.79300   0.00000  Uiso   1.00
H863   H     0.42259   0.06543   0.87367   0.00000  Uiso   1.00
H864   H     0.41430   0.09917   0.68243   0.00000  Uiso   1.00
N865   N     0.50001   0.16668   0.95069   0.00000  Uiso   1.00
N866   N     0.49999   0.16666   0.71597   0.00000  Uiso   1.00
O867   O     0.50000   0.10655   0.87291   0.00000  Uiso   1.00
O868   O     0.34532   0.14328   0.89198   0.00000  Uiso   1.00
O869   O     0.56681   0.29499   0.77918   0.00000  Uiso   1.00
O870   O     0.43319   0.03835   0.88749   0.00000  Uiso   1.00
O871   O     0.43510   0.11545   0.70763   0.00000  Uiso   1.00
O872   O     0.56490   0.21788   0.95904   0.00000  Uiso   1.00
O873   O     0.50000   0.22678   0.79375   0.00000  Uiso   1.00
O874   O     0.50000   0.10654   0.79372   0.00000  Uiso   1.00
O875   O     0.50000   0.22679   0.87294   0.00000  Uiso   1.00
O876   O     0.42495   0.16667   0.86379   0.00000  Uiso   1.00
O877   O     0.57505   0.16666   0.80288   0.00000  Uiso   1.00
O878   O     0.42494   0.16666   0.78460   0.00000  Uiso   1.00
O879   O     0.57506   0.16667   0.88207   0.00000  Uiso   1.00
O880   O     0.65468   0.19006   0.77468   0.00000  Uiso   1.00
C881   C     0.83174   0.08745   0.83301   0.00000  Uiso   1.00
C882   C     0.80076   0.02033   0.86123   0.00000  Uiso   1.00
C883   C     0.83621   0.29053   0.83418   0.00000  Uiso   1.00
C884   C     0.83045   0.04281   0.83248   0.00000  Uiso   1.00
C885   C     0.80090   0.14115   0.68733   0.00000  Uiso   1.00
C886   C     0.86577   0.19219   0.97934   0.00000  Uiso   1.00
C887   C     0.80113   0.14133   0.97080   0.00000  Uiso   1.00
C888   C     0.86554   0.19200   0.69587   0.00000  Uiso   1.00
C889   C     0.83492   0.24588   0.83366   0.00000  Uiso   1.00
C890   C     0.73473   0.16760   0.82138   0.00000  Uiso   1.00
C891   C     0.93193   0.16573   0.84529   0.00000  Uiso   1.00
C892   C     0.67966   0.17221   0.81547   0.00000  Uiso   1.00
C893   C     0.98700   0.16112   0.85119   0.00000  Uiso   1.00
C894   C     0.86182   0.02231   0.80432   0.00000  Uiso   1.00
C895   C     0.80484   0.31102   0.86235   0.00000  Uiso   1.00
C896   C     0.86590   0.31301   0.80543   0.00000  Uiso   1.00
Cu897  Cu    0.83333   0.16667   0.88022   0.00000  Uiso   1.00
Cu898  Cu    0.83333   0.16666   0.78645   0.00000  Uiso   1.00
H899   H     0.77560   0.12113   0.94823   0.00000  Uiso   1.00
H900   H     0.91904   0.23417   0.98424   0.00000  Uiso   1.00
H901   H     0.89106   0.21220   0.71844   0.00000  Uiso   1.00
H902   H     0.67998   0.19924   0.75431   0.00000  Uiso   1.00
H903   H     0.98668   0.13409   0.91235   0.00000  Uiso   1.00
H904   H     0.88507   0.03967   0.78278   0.00000  Uiso   1.00
H905   H     0.78160   0.29366   0.88388   0.00000  Uiso   1.00
H906   H     0.91075   0.26791   0.79300   0.00000  Uiso   1.00
H907   H     0.75592   0.06543   0.87367   0.00000  Uiso   1.00
H908   H     0.74763   0.09917   0.68243   0.00000  Uiso   1.00
N909   N     0.83335   0.16668   0.95069   0.00000  Uiso   1.00
N910   N     0.83332   0.16666   0.71597   0.00000  Uiso   1.00
O911   O     0.83333   0.10655   0.87291   0.00000  Uiso   1.00
O912   O     0.67866   0.14328   0.89198   0.00000  Uiso   1.00
O913   O     0.90014   0.29499   0.77918   0.00000  Uiso   1.00
O914   O     0.76652   0.03835   0.88749   0.00000  Uiso   1.00
O915   O     0.76843   0.11545   0.70763   0.00000  Uiso   1.00
O916   O     0.89824   0.21788   0.95904   0.00000  Uiso   1.00
O917   O     0.83334   0.22678   0.79375   0.00000  Uiso   1.00
O918   O     0.83333   0.10654   0.79372   0.00000  Uiso   1.00
O919   O     0.83334   0.22679   0.87294   0.00000  Uiso   1.00
O920   O     0.75828   0.16667   0.86379   0.00000  Uiso   1.00
O921   O     0.90839   0.16666   0.80288   0.00000  Uiso   1.00
O922   O     0.75828   0.16666   0.78460   0.00000  Uiso   1.00
O923   O     0.90839   0.16667   0.88207   0.00000  Uiso   1.00
O924   O     0.98801   0.19006   0.77468   0.00000  Uiso   1.00
C925   C     0.16507   0.42078   0.83301   0.00000  Uiso   1.00
C926   C     0.13410   0.35366   0.86123   0.00000  Uiso   1.00
C927   C     0.16954   0.62386   0.83418   0.00000  Uiso   1.00
C928   C     0.16379   0.37614   0.83248   0.00000  Uiso   1.00
C929   C     0.13423   0.47448   0.68733   0.00000  Uiso   1.00
C930   C     0.19910   0.52552   0.97934   0.00000  Uiso   1.00
C931   C     0.13446   0.47467   0.97080   0.00000  Uiso   1.00
C932   C     0.19887   0.52533   0.69587   0.00000  Uiso   1.00
C933   C     0.16826   0.57922   0.83366   0.00000  Uiso   1.00
C934   C     0.06807   0.50094   0.82138   0.00000  Uiso   1.00
C935   C     0.26527   0.49906   0.84529   0.00000  Uiso   1.00
C936   C     0.01300   0.50555   0.81547   0.00000  Uiso   1.00
C937   C     0.32034   0.49445   0.85119   0.00000  Uiso   1.00
C938   C     0.19516   0.35565   0.80432   0.00000  Uiso   1.00
C939   C     0.13817   0.64435   0.86235   0.00000  Uiso   1.00
C940   C     0.19923   0.64634   0.80543   0.00000  Uiso   1.00
Cu941  Cu    0.16667   0.50001   0.88022   0.00000  Uiso   1.00
Cu942  Cu    0.16667   0.49999   0.78645   0.00000  Uiso   1.00
H943   H     0.10894   0.45446   0.94823   0.00000  Uiso   1.00
H944   H     0.25237   0.56750   0.98424   0.00000  Uiso   1.00
H945   H     0.22440   0.54554   0.71844   0.00000  Uiso   1.00
H946   H     0.01332   0.53258   0.75431   0.00000  Uiso   1.00
H947   H     0.32002   0.46742   0.91235   0.00000  Uiso   1.00
H948   H     0.21840   0.37301   0.78278   0.00000  Uiso   1.00
H949   H     0.11493   0.62699   0.88388   0.00000  Uiso   1.00
H950   H     0.24408   0.60124   0.79300   0.00000  Uiso   1.00
H951   H     0.08926   0.39876   0.87367   0.00000  Uiso   1.00
H952   H     0.08096   0.43250   0.68243   0.00000  Uiso   1.00
N953   N     0.16668   0.50001   0.95069   0.00000  Uiso   1.00
N954   N     0.16665   0.49999   0.71597   0.00000  Uiso   1.00
O955   O     0.16666   0.43989   0.87291   0.00000  Uiso   1.00
O956   O     0.01199   0.47661   0.89198   0.00000  Uiso   1.00
O957   O     0.23347   0.62832   0.77918   0.00000  Uiso   1.00
O958   O     0.09986   0.37168   0.88749   0.00000  Uiso   1.00
O959   O     0.10176   0.44879   0.70763   0.00000  Uiso   1.00
O960   O     0.23157   0.55121   0.95904   0.00000  Uiso   1.00
O961   O     0.16667   0.56011   0.79375   0.00000  Uiso   1.00
O962   O     0.16666   0.43988   0.79372   0.00000  Uiso   1.00
O963   O     0.16667   0.56012   0.87294   0.00000  Uiso   1.00
O964   O     0.09161   0.50000   0.86379   0.00000  Uiso   1.00
O965   O     0.24172   0.50000   0.80288   0.00000  Uiso   1.00
O966   O     0.09161   0.49999   0.78460   0.00000  Uiso   1.00
O967   O     0.24172   0.50001   0.88207   0.00000  Uiso   1.00
O968   O     0.32134   0.52339   0.77468   0.00000  Uiso   1.00
C969   C     0.49841   0.42078   0.83301   0.00000  Uiso   1.00
C970   C     0.46743   0.35366   0.86123   0.00000  Uiso   1.00
C971   C     0.50288   0.62386   0.83418   0.00000  Uiso   1.00
C972   C     0.49712   0.37614   0.83248   0.00000  Uiso   1.00
C973   C     0.46756   0.47448   0.68733   0.00000  Uiso   1.00
C974   C     0.53244   0.52552   0.97934   0.00000  Uiso   1.00
C975   C     0.46780   0.47467   0.97080   0.00000  Uiso   1.00
C976   C     0.53220   0.52533   0.69587   0.00000  Uiso   1.00
C977   C     0.50159   0.57922   0.83366   0.00000  Uiso   1.00
C978   C     0.40140   0.50094   0.82138   0.00000  Uiso   1.00
C979   C     0.59860   0.49906   0.84529   0.00000  Uiso   1.00
C980   C     0.34633   0.50555   0.81547   0.00000  Uiso   1.00
C981   C     0.65367   0.49445   0.85119   0.00000  Uiso   1.00
C982   C     0.52849   0.35565   0.80432   0.00000  Uiso   1.00
C983   C     0.47151   0.64435   0.86235   0.00000  Uiso   1.00
C984   C     0.53257   0.64634   0.80543   0.00000  Uiso   1.00
Cu985  Cu    0.50000   0.50001   0.88022   0.00000  Uiso   1.00
Cu986  Cu    0.50000   0.49999   0.78645   0.00000  Uiso   1.00
H987   H     0.44227   0.45446   0.94823   0.00000  Uiso   1.00
H988   H     0.58570   0.56750   0.98424   0.00000  Uiso   1.00
H989   H     0.55773   0.54554   0.71844   0.00000  Uiso   1.00
H990   H     0.34665   0.53258   0.75431   0.00000  Uiso   1.00
H991   H     0.65335   0.46742   0.91235   0.00000  Uiso   1.00
H992   H     0.55174   0.37301   0.78278   0.00000  Uiso   1.00
H993   H     0.44826   0.62699   0.88388   0.00000  Uiso   1.00
H994   H     0.57741   0.60124   0.79300   0.00000  Uiso   1.00
H995   H     0.42259   0.39876   0.87367   0.00000  Uiso   1.00
H996   H     0.41430   0.43250   0.68243   0.00000  Uiso   1.00
N997   N     0.50001   0.50001   0.95069   0.00000  Uiso   1.00
N998   N     0.49999   0.49999   0.71597   0.00000  Uiso   1.00
O999   O     0.50000   0.43989   0.87291   0.00000  Uiso   1.00
O1000  O     0.34532   0.47661   0.89198   0.00000  Uiso   1.00
O1001  O     0.56681   0.62832   0.77918   0.00000  Uiso   1.00
O1002  O     0.43319   0.37168   0.88749   0.00000  Uiso   1.00
O1003  O     0.43510   0.44879   0.70763   0.00000  Uiso   1.00
O1004  O     0.56490   0.55121   0.95904   0.00000  Uiso   1.00
O1005  O     0.50000   0.56011   0.79375   0.00000  Uiso   1.00
O1006  O     0.50000   0.43988   0.79372   0.00000  Uiso   1.00
O1007  O     0.50000   0.56012   0.87294   0.00000  Uiso   1.00
O1008  O     0.42495   0.50000   0.86379   0.00000  Uiso   1.00
O1009  O     0.57505   0.50000   0.80288   0.00000  Uiso   1.00
O1010  O     0.42494   0.49999   0.78460   0.00000  Uiso   1.00
O1011  O     0.57506   0.50001   0.88207   0.00000  Uiso   1.00
O1012  O     0.65468   0.52339   0.77468   0.00000  Uiso   1.00
C1013  C     0.83174   0.42078   0.83301   0.00000  Uiso   1.00
C1014  C     0.80076   0.35366   0.86123   0.00000  Uiso   1.00
C1015  C     0.83621   0.62386   0.83418   0.00000  Uiso   1.00
C1016  C     0.83045   0.37614   0.83248   0.00000  Uiso   1.00
C1017  C     0.80090   0.47448   0.68733   0.00000  Uiso   1.00
C1018  C     0.86577   0.52552   0.97934   0.00000  Uiso   1.00
C1019  C     0.80113   0.47467   0.97080   0.00000  Uiso   1.00
C1020  C     0.86554   0.52533   0.69587   0.00000  Uiso   1.00
C1021  C     0.83492   0.57922   0.83366   0.00000  Uiso   1.00
C1022  C     0.73473   0.50094   0.82138   0.00000  Uiso   1.00
C1023  C     0.93193   0.49906   0.84529   0.00000  Uiso   1.00
C1024  C     0.67966   0.50555   0.81547   0.00000  Uiso   1.00
C1025  C     0.98700   0.49445   0.85119   0.00000  Uiso   1.00
C1026  C     0.86182   0.35565   0.80432   0.00000  Uiso   1.00
C1027  C     0.80484   0.64435   0.86235   0.00000  Uiso   1.00
C1028  C     0.86590   0.64634   0.80543   0.00000  Uiso   1.00
Cu1029 Cu    0.83333   0.50001   0.88022   0.00000  Uiso   1.00
Cu1030 Cu    0.83333   0.49999   0.78645   0.00000  Uiso   1.00
H1031  H     0.77560   0.45446   0.94823   0.00000  Uiso   1.00
H1032  H     0.91904   0.56750   0.98424   0.00000  Uiso   1.00
H1033  H     0.89106   0.54554   0.71844   0.00000  Uiso   1.00
H1034  H     0.67998   0.53258   0.75431   0.00000  Uiso   1.00
H1035  H     0.98668   0.46742   0.91235   0.00000  Uiso   1.00
H1036  H     0.88507   0.37301   0.78278   0.00000  Uiso   1.00
H1037  H     0.78160   0.62699   0.88388   0.00000  Uiso   1.00
H1038  H     0.91075   0.60124   0.79300   0.00000  Uiso   1.00
H1039  H     0.75592   0.39876   0.87367   0.00000  Uiso   1.00
H1040  H     0.74763   0.43250   0.68243   0.00000  Uiso   1.00
N1041  N     0.83335   0.50001   0.95069   0.00000  Uiso   1.00
N1042  N     0.83332   0.49999   0.71597   0.00000  Uiso   1.00
O1043  O     0.83333   0.43989   0.87291   0.00000  Uiso   1.00
O1044  O     0.67866   0.47661   0.89198   0.00000  Uiso   1.00
O1045  O     0.90014   0.62832   0.77918   0.00000  Uiso   1.00
O1046  O     0.76652   0.37168   0.88749   0.00000  Uiso   1.00
O1047  O     0.76843   0.44879   0.70763   0.00000  Uiso   1.00
O1048  O     0.89824   0.55121   0.95904   0.00000  Uiso   1.00
O1049  O     0.83334   0.56011   0.79375   0.00000  Uiso   1.00
O1050  O     0.83333   0.43988   0.79372   0.00000  Uiso   1.00
O1051  O     0.83334   0.56012   0.87294   0.00000  Uiso   1.00
O1052  O     0.75828   0.50000   0.86379   0.00000  Uiso   1.00
O1053  O     0.90839   0.50000   0.80288   0.00000  Uiso   1.00
O1054  O     0.75828   0.49999   0.78460   0.00000  Uiso   1.00
O1055  O     0.90839   0.50001   0.88207   0.00000  Uiso   1.00
O1056  O     0.98801   0.52339   0.77468   0.00000  Uiso   1.00
C1057  C     0.16507   0.75412   0.83301   0.00000  Uiso   1.00
C1058  C     0.13410   0.68699   0.86123   0.00000  Uiso   1.00
C1059  C     0.16954   0.95719   0.83418   0.00000  Uiso   1.00
C1060  C     0.16379   0.70947   0.83248   0.00000  Uiso   1.00
C1061  C     0.13423   0.80781   0.68733   0.00000  Uiso   1.00
C1062  C     0.19910   0.85885   0.97934   0.00000  Uiso   1.00
C1063  C     0.13446   0.80800   0.97080   0.00000  Uiso   1.00
C1064  C     0.19887   0.85867   0.69587   0.00000  Uiso   1.00
C1065  C     0.16826   0.91255   0.83366   0.00000  Uiso   1.00
C1066  C     0.06807   0.83427   0.82138   0.00000  Uiso   1.00
C1067  C     0.26527   0.83240   0.84529   0.00000  Uiso   1.00
C1068  C     0.01300   0.83888   0.81547   0.00000  Uiso   1.00
C1069  C     0.32034   0.82779   0.85119   0.00000  Uiso   1.00
C1070  C     0.19516   0.68898   0.80432   0.00000  Uiso   1.00
C1071  C     0.13817   0.97769   0.86235   0.00000  Uiso   1.00
C1072  C     0.19923   0.97967   0.80543   0.00000  Uiso   1.00
Cu1073 Cu    0.16667   0.83334   0.88022   0.00000  Uiso   1.00
Cu1074 Cu    0.16667   0.83333   0.78645   0.00000  Uiso   1.00
H1075  H     0.10894   0.78780   0.94823   0.00000  Uiso   1.00
H1076  H     0.25237   0.90083   0.98424   0.00000  Uiso   1.00
H1077  H     0.22440   0.87887   0.71844   0.00000  Uiso   1.00
H1078  H     0.01332   0.86591   0.75431   0.00000  Uiso   1.00
H1079  H     0.32002   0.80076   0.91235   0.00000  Uiso   1.00
H1080  H     0.21840   0.70634   0.78278   0.00000  Uiso   1.00
H1081  H     0.11493   0.96033   0.88388   0.00000  Uiso   1.00
H1082  H     0.24408   0.93457   0.79300   0.00000  Uiso   1.00
H1083  H     0.08926   0.73210   0.87367   0.00000  Uiso   1.00
H1084  H     0.08096   0.76583   0.68243   0.00000  Uiso   1.00
N1085  N     0.16668   0.83334   0.95069   0.00000  Uiso   1.00
N1086  N     0.16665   0.83332   0.71597   0.00000  Uiso   1.00
O1087  O     0.16666   0.77322   0.87291   0.00000  Uiso   1.00
O1088  O     0.01199   0.80994   0.89198   0.00000  Uiso   1.00
O1089  O     0.23347   0.96165   0.77918   0.00000  Uiso   1.00
O1090  O     0.09986   0.70501   0.88749   0.00000  Uiso   1.00
O1091  O     0.10176   0.78212   0.70763   0.00000  Uiso   1.00
O1092  O     0.23157   0.88455   0.95904   0.00000  Uiso   1.00
O1093  O     0.16667   0.89345   0.79375   0.00000  Uiso   1.00
O1094  O     0.16666   0.77321   0.79372   0.00000  Uiso   1.00
O1095  O     0.16667   0.89346   0.87294   0.00000  Uiso   1.00
O1096  O     0.09161   0.83334   0.86379   0.00000  Uiso   1.00
O1097  O     0.24172   0.83333   0.80288   0.00000  Uiso   1.00
O1098  O     0.09161   0.83333   0.78460   0.00000  Uiso   1.00
O1099  O     0.24172   0.83334   0.88207   0.00000  Uiso   1.00
O1100  O     0.32134   0.85672   0.77468   0.00000  Uiso   1.00
C1101  C     0.49841   0.75412   0.83301   0.00000  Uiso   1.00
C1102  C     0.46743   0.68699   0.86123   0.00000  Uiso   1.00
C1103  C     0.50288   0.95719   0.83418   0.00000  Uiso   1.00
C1104  C     0.49712   0.70947   0.83248   0.00000  Uiso   1.00
C1105  C     0.46756   0.80781   0.68733   0.00000  Uiso   1.00
C1106  C     0.53244   0.85885   0.97934   0.00000  Uiso   1.00
C1107  C     0.46780   0.80800   0.97080   0.00000  Uiso   1.00
C1108  C     0.53220   0.85867   0.69587   0.00000  Uiso   1.00
C1109  C     0.50159   0.91255   0.83366   0.00000  Uiso   1.00
C1110  C     0.40140   0.83427   0.82138   0.00000  Uiso   1.00
C1111  C     0.59860   0.83240   0.84529   0.00000  Uiso   1.00
C1112  C     0.34633   0.83888   0.81547   0.00000  Uiso   1.00
C1113  C     0.65367   0.82779   0.85119   0.00000  Uiso   1.00
C1114  C     0.52849   0.68898   0.80432   0.00000  Uiso   1.00
C1115  C     0.47151   0.97769   0.86235   0.00000  Uiso   1.00
C1116  C     0.53257   0.97967   0.80543   0.00000  Uiso   1.00
Cu1117 Cu    0.50000   0.83334   0.88022   0.00000  Uiso   1.00
Cu1118 Cu    0.50000   0.83333   0.78645   0.00000  Uiso   1.00
H1119  H     0.44227   0.78780   0.94823   0.00000  Uiso   1.00
H1120  H     0.58570   0.90083   0.98424   0.00000  Uiso   1.00
H1121  H     0.55773   0.87887   0.71844   0.00000  Uiso   1.00
H1122  H     0.34665   0.86591   0.75431   0.00000  Uiso   1.00
H1123  H     0.65335   0.80076   0.91235   0.00000  Uiso   1.00
H1124  H     0.55174   0.70634   0.78278   0.00000  Uiso   1.00
H1125  H     0.44826   0.96033   0.88388   0.00000  Uiso   1.00
H1126  H     0.57741   0.93457   0.79300   0.00000  Uiso   1.00
H1127  H     0.42259   0.73210   0.87367   0.00000  Uiso   1.00
H1128  H     0.41430   0.76583   0.68243   0.00000  Uiso   1.00
N1129  N     0.50001   0.83334   0.95069   0.00000  Uiso   1.00
N1130  N     0.49999   0.83332   0.71597   0.00000  Uiso   1.00
O1131  O     0.50000   0.77322   0.87291   0.00000  Uiso   1.00
O1132  O     0.34532   0.80994   0.89198   0.00000  Uiso   1.00
O1133  O     0.56681   0.96165   0.77918   0.00000  Uiso   1.00
O1134  O     0.43319   0.70501   0.88749   0.00000  Uiso   1.00
O1135  O     0.43510   0.78212   0.70763   0.00000  Uiso   1.00
O1136  O     0.56490   0.88455   0.95904   0.00000  Uiso   1.00
O1137  O     0.50000   0.89345   0.79375   0.00000  Uiso   1.00
O1138  O     0.50000   0.77321   0.79372   0.00000  Uiso   1.00
O1139  O     0.50000   0.89346   0.87294   0.00000  Uiso   1.00
O1140  O     0.42495   0.83334   0.86379   0.00000  Uiso   1.00
O1141  O     0.57505   0.83333   0.80288   0.00000  Uiso   1.00
O1142  O     0.42494   0.83333   0.78460   0.00000  Uiso   1.00
O1143  O     0.57506   0.83334   0.88207   0.00000  Uiso   1.00
O1144  O     0.65468   0.85672   0.77468   0.00000  Uiso   1.00
C1145  C     0.83174   0.75412   0.83301   0.00000  Uiso   1.00
C1146  C     0.80076   0.68699   0.86123   0.00000  Uiso   1.00
C1147  C     0.83621   0.95719   0.83418   0.00000  Uiso   1.00
C1148  C     0.83045   0.70947   0.83248   0.00000  Uiso   1.00
C1149  C     0.80090   0.80781   0.68733   0.00000  Uiso   1.00
C1150  C     0.86577   0.85885   0.97934   0.00000  Uiso   1.00
C1151  C     0.80113   0.80800   0.97080   0.00000  Uiso   1.00
C1152  C     0.86554   0.85867   0.69587   0.00000  Uiso   1.00
C1153  C     0.83492   0.91255   0.83366   0.00000  Uiso   1.00
C1154  C     0.73473   0.83427   0.82138   0.00000  Uiso   1.00
C1155  C     0.93193   0.83240   0.84529   0.00000  Uiso   1.00
C1156  C     0.67966   0.83888   0.81547   0.00000  Uiso   1.00
C1157  C     0.98700   0.82779   0.85119   0.00000  Uiso   1.00
C1158  C     0.86182   0.68898   0.80432   0.00000  Uiso   1.00
C1159  C     0.80484   0.97769   0.86235   0.00000  Uiso   1.00
C1160  C     0.86590   0.97967   0.80543   0.00000  Uiso   1.00
Cu1161 Cu    0.83333   0.83334   0.88022   0.00000  Uiso   1.00
Cu1162 Cu    0.83333   0.83333   0.78645   0.00000  Uiso   1.00
H1163  H     0.77560   0.78780   0.94823   0.00000  Uiso   1.00
H1164  H     0.91904   0.90083   0.98424   0.00000  Uiso   1.00
H1165  H     0.89106   0.87887   0.71844   0.00000  Uiso   1.00
H1166  H     0.67998   0.86591   0.75431   0.00000  Uiso   1.00
H1167  H     0.98668   0.80076   0.91235   0.00000  Uiso   1.00
H1168  H     0.88507   0.70634   0.78278   0.00000  Uiso   1.00
H1169  H     0.78160   0.96033   0.88388   0.00000  Uiso   1.00
H1170  H     0.91075   0.93457   0.79300   0.00000  Uiso   1.00
H1171  H     0.75592   0.73210   0.87367   0.00000  Uiso   1.00
H1172  H     0.74763   0.76583   0.68243   0.00000  Uiso   1.00
N1173  N     0.83335   0.83334   0.95069   0.00000  Uiso   1.00
N1174  N     0.83332   0.83332   0.71597   0.00000  Uiso   1.00
O1175  O     0.83333   0.77322   0.87291   0.00000  Uiso   1.00
O1176  O     0.67866   0.80994   0.89198   0.00000  Uiso   1.00
O1177  O     0.90014   0.96165   0.77918   0.00000  Uiso   1.00
O1178  O     0.76652   0.70501   0.88749   0.00000  Uiso   1.00
O1179  O     0.76843   0.78212   0.70763   0.00000  Uiso   1.00
O1180  O     0.89824   0.88455   0.95904   0.00000  Uiso   1.00
O1181  O     0.83334   0.89345   0.79375   0.00000  Uiso   1.00
O1182  O     0.83333   0.77321   0.79372   0.00000  Uiso   1.00
O1183  O     0.83334   0.89346   0.87294   0.00000  Uiso   1.00
O1184  O     0.75828   0.83334   0.86379   0.00000  Uiso   1.00
O1185  O     0.90839   0.83333   0.80288   0.00000  Uiso   1.00
O1186  O     0.75828   0.83333   0.78460   0.00000  Uiso   1.00
O1187  O     0.90839   0.83334   0.88207   0.00000  Uiso   1.00
O1188  O     0.98801   0.85672   0.77468   0.00000  Uiso   1.00
loop_
_geom_bond_atom_site_label_1
_geom_bond_atom_site_label_2
_geom_bond_distance
_geom_bond_site_symmetry_2
_ccdc_geom_bond_type
C1     C4      1.446   .     S
C1     O38     1.291   .     A
C1     O31     1.290   .     A
C2     C4      1.414   .     A
C2     O34     1.381   .     S
C2     C279    1.386   1_545 S
C3     C9      1.446   .     S
C3     C15     1.399   .     A
C3     C16     1.414   .     A
C4     C14     1.399   .     A
C5     O35     1.378   .     S
C5     N30     1.371   .     A
C5     C799    1.426   1_554 S
C6     O36     1.378   .     S
C6     N29     1.371   .     A
C6     C404    1.426   .     S
C7     N29     1.364   .     A
C7     H19     1.082   .     S
C7     C401    1.426   .     S
C8     N30     1.364   .     A
C8     H21     1.082   .     S
C8     C798    1.426   1_554 S
C9     O39     1.291   .     A
C9     O37     1.290   .     A
C10    O42     1.293   .     A
C10    C12     1.449   .     S
C10    O40     1.285   .     A
C11    O43     1.293   .     A
C11    C13     1.449   .     S
C11    O41     1.285   .     A
C12    C101    1.356   1_455 S
C12    O132    1.388   1_455 S
C13    C56     1.356   .     S
C13    O76     1.388   .     S
C14    H24     1.085   .     S
C14    C280    1.386   1_545 S
C15    H25     1.085   .     S
C15    C134    1.386   .     S
C16    O33     1.381   .     S
C16    C146    1.386   .     S
Cu17   O43     1.975   .     S
Cu17   N29     2.015   .     S
Cu17   Cu18    2.681   .     S
Cu17   O31     1.957   .     S
Cu17   O39     1.959   .     S
Cu17   O40     1.972   .     S
Cu18   N30     2.015   .     S
Cu18   O38     1.959   .     S
Cu18   O37     1.957   .     S
Cu18   O42     1.975   .     S
Cu18   O41     1.972   .     S
H20    O36     0.992   .     S
H22    O132    0.991   1_455 S
H23    O76     0.991   .     S
H26    O33     0.990   .     S
H27    O34     0.990   .     S
H28    O35     0.992   .     S
O32    H111    0.991   1_455 S
O32    C101    1.388   1_455 S
O44    H66     0.991   .     S
O44    C56     1.388   .     S
C45    C48     1.446   .     S
C45    O82     1.291   .     A
C45    O75     1.290   .     A
C46    C48     1.414   .     A
C46    O78     1.381   .     S
C46    C323    1.386   1_545 S
C47    C53     1.446   .     S
C47    C59     1.399   .     A
C47    C60     1.414   .     A
C48    C58     1.399   .     A
C49    O79     1.378   .     S
C49    N74     1.371   .     A
C49    C843    1.426   1_554 S
C50    O80     1.378   .     S
C50    N73     1.371   .     A
C50    C448    1.426   .     S
C51    N73     1.364   .     A
C51    H63     1.082   .     S
C51    C445    1.426   .     S
C52    N74     1.364   .     A
C52    H65     1.082   .     S
C52    C842    1.426   1_554 S
C53    O83     1.291   .     A
C53    O81     1.290   .     A
C54    O86     1.293   .     A
C54    C56     1.449   .     S
C54    O84     1.285   .     A
C55    O87     1.293   .     A
C55    C57     1.449   .     S
C55    O85     1.285   .     A
C57    C100    1.356   .     S
C57    O120    1.388   .     S
C58    H68     1.085   .     S
C58    C324    1.386   1_545 S
C59    H69     1.085   .     S
C59    C178    1.386   .     S
C60    O77     1.381   .     S
C60    C190    1.386   .     S
Cu61   O87     1.975   .     S
Cu61   N73     2.015   .     S
Cu61   Cu62    2.681   .     S
Cu61   O75     1.957   .     S
Cu61   O83     1.959   .     S
Cu61   O84     1.972   .     S
Cu62   N74     2.015   .     S
Cu62   O82     1.959   .     S
Cu62   O81     1.957   .     S
Cu62   O86     1.975   .     S
Cu62   O85     1.972   .     S
H64    O80     0.992   .     S
H67    O120    0.991   .     S
H70    O77     0.990   .     S
H71    O78     0.990   .     S
H72    O79     0.992   .     S
O88    H110    0.991   .     S
O88    C100    1.388   .     S
C89    C92     1.446   .     S
C89    O126    1.291   .     A
C89    O119    1.290   .     A
C90    C92     1.414   .     A
C90    O122    1.381   .     S
C90    C367    1.386   1_545 S
C91    C97     1.446   .     S
C91    C103    1.399   .     A
C91    C104    1.414   .     A
C92    C102    1.399   .     A
C93    O123    1.378   .     S
C93    N118    1.371   .     A
C93    C887    1.426   1_554 S
C94    O124    1.378   .     S
C94    N117    1.371   .     A
C94    C492    1.426   .     S
C95    N117    1.364   .     A
C95    H107    1.082   .     S
C95    C489    1.426   .     S
C96    N118    1.364   .     A
C96    H109    1.082   .     S
C96    C886    1.426   1_554 S
C97    O127    1.291   .     A
C97    O125    1.290   .     A
C98    O130    1.293   .     A
C98    C100    1.449   .     S
C98    O128    1.285   .     A
C99    O131    1.293   .     A
C99    C101    1.449   .     S
C99    O129    1.285   .     A
C101   C12     1.356   1_655 S
C101   O32     1.388   1_655 S
C102   H112    1.085   .     S
C102   C368    1.386   1_545 S
C103   H113    1.085   .     S
C103   C222    1.386   .     S
C104   O121    1.381   .     S
C104   C234    1.386   .     S
Cu105  O131    1.975   .     S
Cu105  N117    2.015   .     S
Cu105  Cu106   2.681   .     S
Cu105  O119    1.957   .     S
Cu105  O127    1.959   .     S
Cu105  O128    1.972   .     S
Cu106  N118    2.015   .     S
Cu106  O126    1.959   .     S
Cu106  O125    1.957   .     S
Cu106  O130    1.975   .     S
Cu106  O129    1.972   .     S
H108   O124    0.992   .     S
H111   O32     0.991   1_655 S
H114   O121    0.990   .     S
H115   O122    0.990   .     S
H116   O123    0.992   .     S
O132   H22     0.991   1_655 S
O132   C12     1.388   1_655 S
C133   C136    1.446   .     S
C133   O170    1.291   .     A
C133   O163    1.290   .     A
C134   C136    1.414   .     A
C134   O166    1.381   .     S
C135   C141    1.446   .     S
C135   C147    1.399   .     A
C135   C148    1.414   .     A
C136   C146    1.399   .     A
C137   O167    1.378   .     S
C137   N162    1.371   .     A
C137   C931    1.426   1_554 S
C138   O168    1.378   .     S
C138   N161    1.371   .     A
C138   C536    1.426   .     S
C139   N161    1.364   .     A
C139   H151    1.082   .     S
C139   C533    1.426   .     S
C140   N162    1.364   .     A
C140   H153    1.082   .     S
C140   C930    1.426   1_554 S
C141   O171    1.291   .     A
C141   O169    1.290   .     A
C142   O174    1.293   .     A
C142   C144    1.449   .     S
C142   O172    1.285   .     A
C143   O175    1.293   .     A
C143   C145    1.449   .     S
C143   O173    1.285   .     A
C144   C233    1.356   1_455 S
C144   O264    1.388   1_455 S
C145   C188    1.356   .     S
C145   O208    1.388   .     S
C146   H156    1.085   .     S
C147   H157    1.085   .     S
C147   C266    1.386   .     S
C148   O165    1.381   .     S
C148   C278    1.386   .     S
Cu149  O175    1.975   .     S
Cu149  N161    2.015   .     S
Cu149  Cu150   2.681   .     S
Cu149  O163    1.957   .     S
Cu149  O171    1.959   .     S
Cu149  O172    1.972   .     S
Cu150  N162    2.015   .     S
Cu150  O170    1.959   .     S
Cu150  O169    1.957   .     S
Cu150  O174    1.975   .     S
Cu150  O173    1.972   .     S
H152   O168    0.992   .     S
H154   O264    0.991   1_455 S
H155   O208    0.991   .     S
H158   O165    0.990   .     S
H159   O166    0.990   .     S
H160   O167    0.992   .     S
O164   H243    0.991   1_455 S
O164   C233    1.388   1_455 S
O176   H198    0.991   .     S
O176   C188    1.388   .     S
C177   C180    1.446   .     S
C177   O214    1.291   .     A
C177   O207    1.290   .     A
C178   C180    1.414   .     A
C178   O210    1.381   .     S
C179   C185    1.446   .     S
C179   C191    1.399   .     A
C179   C192    1.414   .     A
C180   C190    1.399   .     A
C181   O211    1.378   .     S
C181   N206    1.371   .     A
C181   C975    1.426   1_554 S
C182   O212    1.378   .     S
C182   N205    1.371   .     A
C182   C580    1.426   .     S
C183   N205    1.364   .     A
C183   H195    1.082   .     S
C183   C577    1.426   .     S
C184   N206    1.364   .     A
C184   H197    1.082   .     S
C184   C974    1.426   1_554 S
C185   O215    1.291   .     A
C185   O213    1.290   .     A
C186   O218    1.293   .     A
C186   C188    1.449   .     S
C186   O216    1.285   .     A
C187   O219    1.293   .     A
C187   C189    1.449   .     S
C187   O217    1.285   .     A
C189   C232    1.356   .     S
C189   O252    1.388   .     S
C190   H200    1.085   .     S
C191   H201    1.085   .     S
C191   C310    1.386   .     S
C192   O209    1.381   .     S
C192   C322    1.386   .     S
Cu193  O219    1.975   .     S
Cu193  N205    2.015   .     S
Cu193  Cu194   2.681   .     S
Cu193  O207    1.957   .     S
Cu193  O215    1.959   .     S
Cu193  O216    1.972   .     S
Cu194  N206    2.015   .     S
Cu194  O214    1.959   .     S
Cu194  O213    1.957   .     S
Cu194  O218    1.975   .     S
Cu194  O217    1.972   .     S
H196   O212    0.992   .     S
H199   O252    0.991   .     S
H202   O209    0.990   .     S
H203   O210    0.990   .     S
H204   O211    0.992   .     S
O220   H242    0.991   .     S
O220   C232    1.388   .     S
C221   C224    1.446   .     S
C221   O258    1.291   .     A
C221   O251    1.290   .     A
C222   C224    1.414   .     A
C222   O254    1.381   .     S
C223   C229    1.446   .     S
C223   C235    1.399   .     A
C223   C236    1.414   .     A
C224   C234    1.399   .     A
C225   O255    1.378   .     S
C225   N250    1.371   .     A
C225   C1019   1.426   1_554 S
C226   O256    1.378   .     S
C226   N249    1.371   .     A
C226   C624    1.426   .     S
C227   N249    1.364   .     A
C227   H239    1.082   .     S
C227   C621    1.426   .     S
C228   N250    1.364   .     A
C228   H241    1.082   .     S
C228   C1018   1.426   1_554 S
C229   O259    1.291   .     A
C229   O257    1.290   .     A
C230   O262    1.293   .     A
C230   C232    1.449   .     S
C230   O260    1.285   .     A
C231   O263    1.293   .     A
C231   C233    1.449   .     S
C231   O261    1.285   .     A
C233   C144    1.356   1_655 S
C233   O164    1.388   1_655 S
C234   H244    1.085   .     S
C235   H245    1.085   .     S
C235   C354    1.386   .     S
C236   O253    1.381   .     S
C236   C366    1.386   .     S
Cu237  O263    1.975   .     S
Cu237  N249    2.015   .     S
Cu237  Cu238   2.681   .     S
Cu237  O251    1.957   .     S
Cu237  O259    1.959   .     S
Cu237  O260    1.972   .     S
Cu238  N250    2.015   .     S
Cu238  O258    1.959   .     S
Cu238  O257    1.957   .     S
Cu238  O262    1.975   .     S
Cu238  O261    1.972   .     S
H240   O256    0.992   .     S
H243   O164    0.991   1_655 S
H246   O253    0.990   .     S
H247   O254    0.990   .     S
H248   O255    0.992   .     S
O264   H154    0.991   1_655 S
O264   C144    1.388   1_655 S
C265   C268    1.446   .     S
C265   O302    1.291   .     A
C265   O295    1.290   .     A
C266   C268    1.414   .     A
C266   O298    1.381   .     S
C267   C273    1.446   .     S
C267   C279    1.399   .     A
C267   C280    1.414   .     A
C268   C278    1.399   .     A
C269   O299    1.378   .     S
C269   N294    1.371   .     A
C269   C1063   1.426   1_554 S
C270   O300    1.378   .     S
C270   N293    1.371   .     A
C270   C668    1.426   .     S
C271   N293    1.364   .     A
C271   H283    1.082   .     S
C271   C665    1.426   .     S
C272   N294    1.364   .     A
C272   H285    1.082   .     S
C272   C1062   1.426   1_554 S
C273   O303    1.291   .     A
C273   O301    1.290   .     A
C274   O306    1.293   .     A
C274   C276    1.449   .     S
C274   O304    1.285   .     A
C275   O307    1.293   .     A
C275   C277    1.449   .     S
C275   O305    1.285   .     A
C276   C365    1.356   1_455 S
C276   O396    1.388   1_455 S
C277   C320    1.356   .     S
C277   O340    1.388   .     S
C278   H288    1.085   .     S
C279   H289    1.085   .     S
C279   C2      1.386   1_565 S
C280   O297    1.381   .     S
C280   C14     1.386   1_565 S
Cu281  O307    1.975   .     S
Cu281  N293    2.015   .     S
Cu281  Cu282   2.681   .     S
Cu281  O295    1.957   .     S
Cu281  O303    1.959   .     S
Cu281  O304    1.972   .     S
Cu282  N294    2.015   .     S
Cu282  O302    1.959   .     S
Cu282  O301    1.957   .     S
Cu282  O306    1.975   .     S
Cu282  O305    1.972   .     S
H284   O300    0.992   .     S
H286   O396    0.991   1_455 S
H287   O340    0.991   .     S
H290   O297    0.990   .     S
H291   O298    0.990   .     S
H292   O299    0.992   .     S
O296   H375    0.991   1_455 S
O296   C365    1.388   1_455 S
O308   H330    0.991   .     S
O308   C320    1.388   .     S
C309   C312    1.446   .     S
C309   O346    1.291   .     A
C309   O339    1.290   .     A
C310   C312    1.414   .     A
C310   O342    1.381   .     S
C311   C317    1.446   .     S
C311   C323    1.399   .     A
C311   C324    1.414   .     A
C312   C322    1.399   .     A
C313   O343    1.378   .     S
C313   N338    1.371   .     A
C313   C1107   1.426   1_554 S
C314   O344    1.378   .     S
C314   N337    1.371   .     A
C314   C712    1.426   .     S
C315   N337    1.364   .     A
C315   H327    1.082   .     S
C315   C709    1.426   .     S
C316   N338    1.364   .     A
C316   H329    1.082   .     S
C316   C1106   1.426   1_554 S
C317   O347    1.291   .     A
C317   O345    1.290   .     A
C318   O350    1.293   .     A
C318   C320    1.449   .     S
C318   O348    1.285   .     A
C319   O351    1.293   .     A
C319   C321    1.449   .     S
C319   O349    1.285   .     A
C321   C364    1.356   .     S
C321   O384    1.388   .     S
C322   H332    1.085   .     S
C323   H333    1.085   .     S
C323   C46     1.386   1_565 S
C324   O341    1.381   .     S
C324   C58     1.386   1_565 S
Cu325  O351    1.975   .     S
Cu325  N337    2.015   .     S
Cu325  Cu326   2.681   .     S
Cu325  O339    1.957   .     S
Cu325  O347    1.959   .     S
Cu325  O348    1.972   .     S
Cu326  N338    2.015   .     S
Cu326  O346    1.959   .     S
Cu326  O345    1.957   .     S
Cu326  O350    1.975   .     S
Cu326  O349    1.972   .     S
H328   O344    0.992   .     S
H331   O384    0.991   .     S
H334   O341    0.990   .     S
H335   O342    0.990   .     S
H336   O343    0.992   .     S
O352   H374    0.991   .     S
O352   C364    1.388   .     S
C353   C356    1.446   .     S
C353   O390    1.291   .     A
C353   O383    1.290   .     A
C354   C356    1.414   .     A
C354   O386    1.381   .     S
C355   C361    1.446   .     S
C355   C367    1.399   .     A
C355   C368    1.414   .     A
C356   C366    1.399   .     A
C357   O387    1.378   .     S
C357   N382    1.371   .     A
C357   C1151   1.426   1_554 S
C358   O388    1.378   .     S
C358   N381    1.371   .     A
C358   C756    1.426   .     S
C359   N381    1.364   .     A
C359   H371    1.082   .     S
C359   C753    1.426   .     S
C360   N382    1.364   .     A
C360   H373    1.082   .     S
C360   C1150   1.426   1_554 S
C361   O391    1.291   .     A
C361   O389    1.290   .     A
C362   O394    1.293   .     A
C362   C364    1.449   .     S
C362   O392    1.285   .     A
C363   O395    1.293   .     A
C363   C365    1.449   .     S
C363   O393    1.285   .     A
C365   C276    1.356   1_655 S
C365   O296    1.388   1_655 S
C366   H376    1.085   .     S
C367   H377    1.085   .     S
C367   C90     1.386   1_565 S
C368   O385    1.381   .     S
C368   C102    1.386   1_565 S
Cu369  O395    1.975   .     S
Cu369  N381    2.015   .     S
Cu369  Cu370   2.681   .     S
Cu369  O383    1.957   .     S
Cu369  O391    1.959   .     S
Cu369  O392    1.972   .     S
Cu370  N382    2.015   .     S
Cu370  O390    1.959   .     S
Cu370  O389    1.957   .     S
Cu370  O394    1.975   .     S
Cu370  O393    1.972   .     S
H372   O388    0.992   .     S
H375   O296    0.991   1_655 S
H378   O385    0.990   .     S
H379   O386    0.990   .     S
H380   O387    0.992   .     S
O396   H286    0.991   1_655 S
O396   C276    1.388   1_655 S
C397   C400    1.446   .     S
C397   O434    1.291   .     A
C397   O427    1.290   .     A
C398   C400    1.414   .     A
C398   O430    1.381   .     S
C398   C675    1.386   1_545 S
C399   C405    1.446   .     S
C399   C411    1.399   .     A
C399   C412    1.414   .     A
C400   C410    1.399   .     A
C401   O431    1.378   .     S
C401   N426    1.371   .     A
C402   O432    1.378   .     S
C402   N425    1.371   .     A
C402   C800    1.426   .     S
C403   N425    1.364   .     A
C403   H415    1.082   .     S
C403   C797    1.426   .     S
C404   N426    1.364   .     A
C404   H417    1.082   .     S
C405   O435    1.291   .     A
C405   O433    1.290   .     A
C406   O438    1.293   .     A
C406   C408    1.449   .     S
C406   O436    1.285   .     A
C407   O439    1.293   .     A
C407   C409    1.449   .     S
C407   O437    1.285   .     A
C408   C497    1.356   1_455 S
C408   O528    1.388   1_455 S
C409   C452    1.356   .     S
C409   O472    1.388   .     S
C410   H420    1.085   .     S
C410   C676    1.386   1_545 S
C411   H421    1.085   .     S
C411   C530    1.386   .     S
C412   O429    1.381   .     S
C412   C542    1.386   .     S
Cu413  O439    1.975   .     S
Cu413  N425    2.015   .     S
Cu413  Cu414   2.681   .     S
Cu413  O427    1.957   .     S
Cu413  O435    1.959   .     S
Cu413  O436    1.972   .     S
Cu414  N426    2.015   .     S
Cu414  O434    1.959   .     S
Cu414  O433    1.957   .     S
Cu414  O438    1.975   .     S
Cu414  O437    1.972   .     S
H416   O432    0.992   .     S
H418   O528    0.991   1_455 S
H419   O472    0.991   .     S
H422   O429    0.990   .     S
H423   O430    0.990   .     S
H424   O431    0.992   .     S
O428   H507    0.991   1_455 S
O428   C497    1.388   1_455 S
O440   H462    0.991   .     S
O440   C452    1.388   .     S
C441   C444    1.446   .     S
C441   O478    1.291   .     A
C441   O471    1.290   .     A
C442   C444    1.414   .     A
C442   O474    1.381   .     S
C442   C719    1.386   1_545 S
C443   C449    1.446   .     S
C443   C455    1.399   .     A
C443   C456    1.414   .     A
C444   C454    1.399   .     A
C445   O475    1.378   .     S
C445   N470    1.371   .     A
C446   O476    1.378   .     S
C446   N469    1.371   .     A
C446   C844    1.426   .     S
C447   N469    1.364   .     A
C447   H459    1.082   .     S
C447   C841    1.426   .     S
C448   N470    1.364   .     A
C448   H461    1.082   .     S
C449   O479    1.291   .     A
C449   O477    1.290   .     A
C450   O482    1.293   .     A
C450   C452    1.449   .     S
C450   O480    1.285   .     A
C451   O483    1.293   .     A
C451   C453    1.449   .     S
C451   O481    1.285   .     A
C453   C496    1.356   .     S
C453   O516    1.388   .     S
C454   H464    1.085   .     S
C454   C720    1.386   1_545 S
C455   H465    1.085   .     S
C455   C574    1.386   .     S
C456   O473    1.381   .     S
C456   C586    1.386   .     S
Cu457  O483    1.975   .     S
Cu457  N469    2.015   .     S
Cu457  Cu458   2.681   .     S
Cu457  O471    1.957   .     S
Cu457  O479    1.959   .     S
Cu457  O480    1.972   .     S
Cu458  N470    2.015   .     S
Cu458  O478    1.959   .     S
Cu458  O477    1.957   .     S
Cu458  O482    1.975   .     S
Cu458  O481    1.972   .     S
H460   O476    0.992   .     S
H463   O516    0.991   .     S
H466   O473    0.990   .     S
H467   O474    0.990   .     S
H468   O475    0.992   .     S
O484   H506    0.991   .     S
O484   C496    1.388   .     S
C485   C488    1.446   .     S
C485   O522    1.291   .     A
C485   O515    1.290   .     A
C486   C488    1.414   .     A
C486   O518    1.381   .     S
C486   C763    1.386   1_545 S
C487   C493    1.446   .     S
C487   C499    1.399   .     A
C487   C500    1.414   .     A
C488   C498    1.399   .     A
C489   O519    1.378   .     S
C489   N514    1.371   .     A
C490   O520    1.378   .     S
C490   N513    1.371   .     A
C490   C888    1.426   .     S
C491   N513    1.364   .     A
C491   H503    1.082   .     S
C491   C885    1.426   .     S
C492   N514    1.364   .     A
C492   H505    1.082   .     S
C493   O523    1.291   .     A
C493   O521    1.290   .     A
C494   O526    1.293   .     A
C494   C496    1.449   .     S
C494   O524    1.285   .     A
C495   O527    1.293   .     A
C495   C497    1.449   .     S
C495   O525    1.285   .     A
C497   C408    1.356   1_655 S
C497   O428    1.388   1_655 S
C498   H508    1.085   .     S
C498   C764    1.386   1_545 S
C499   H509    1.085   .     S
C499   C618    1.386   .     S
C500   O517    1.381   .     S
C500   C630    1.386   .     S
Cu501  O527    1.975   .     S
Cu501  N513    2.015   .     S
Cu501  Cu502   2.681   .     S
Cu501  O515    1.957   .     S
Cu501  O523    1.959   .     S
Cu501  O524    1.972   .     S
Cu502  N514    2.015   .     S
Cu502  O522    1.959   .     S
Cu502  O521    1.957   .     S
Cu502  O526    1.975   .     S
Cu502  O525    1.972   .     S
H504   O520    0.992   .     S
H507   O428    0.991   1_655 S
H510   O517    0.990   .     S
H511   O518    0.990   .     S
H512   O519    0.992   .     S
O528   H418    0.991   1_655 S
O528   C408    1.388   1_655 S
C529   C532    1.446   .     S
C529   O566    1.291   .     A
C529   O559    1.290   .     A
C530   C532    1.414   .     A
C530   O562    1.381   .     S
C531   C537    1.446   .     S
C531   C543    1.399   .     A
C531   C544    1.414   .     A
C532   C542    1.399   .     A
C533   O563    1.378   .     S
C533   N558    1.371   .     A
C534   O564    1.378   .     S
C534   N557    1.371   .     A
C534   C932    1.426   .     S
C535   N557    1.364   .     A
C535   H547    1.082   .     S
C535   C929    1.426   .     S
C536   N558    1.364   .     A
C536   H549    1.082   .     S
C537   O567    1.291   .     A
C537   O565    1.290   .     A
C538   O570    1.293   .     A
C538   C540    1.449   .     S
C538   O568    1.285   .     A
C539   O571    1.293   .     A
C539   C541    1.449   .     S
C539   O569    1.285   .     A
C540   C629    1.356   1_455 S
C540   O660    1.388   1_455 S
C541   C584    1.356   .     S
C541   O604    1.388   .     S
C542   H552    1.085   .     S
C543   H553    1.085   .     S
C543   C662    1.386   .     S
C544   O561    1.381   .     S
C544   C674    1.386   .     S
Cu545  O571    1.975   .     S
Cu545  N557    2.015   .     S
Cu545  Cu546   2.681   .     S
Cu545  O559    1.957   .     S
Cu545  O567    1.959   .     S
Cu545  O568    1.972   .     S
Cu546  N558    2.015   .     S
Cu546  O566    1.959   .     S
Cu546  O565    1.957   .     S
Cu546  O570    1.975   .     S
Cu546  O569    1.972   .     S
H548   O564    0.992   .     S
H550   O660    0.991   1_455 S
H551   O604    0.991   .     S
H554   O561    0.990   .     S
H555   O562    0.990   .     S
H556   O563    0.992   .     S
O560   H639    0.991   1_455 S
O560   C629    1.388   1_455 S
O572   H594    0.991   .     S
O572   C584    1.388   .     S
C573   C576    1.446   .     S
C573   O610    1.291   .     A
C573   O603    1.290   .     A
C574   C576    1.414   .     A
C574   O606    1.381   .     S
C575   C581    1.446   .     S
C575   C587    1.399   .     A
C575   C588    1.414   .     A
C576   C586    1.399   .     A
C577   O607    1.378   .     S
C577   N602    1.371   .     A
C578   O608    1.378   .     S
C578   N601    1.371   .     A
C578   C976    1.426   .     S
C579   N601    1.364   .     A
C579   H591    1.082   .     S
C579   C973    1.426   .     S
C580   N602    1.364   .     A
C580   H593    1.082   .     S
C581   O611    1.291   .     A
C581   O609    1.290   .     A
C582   O614    1.293   .     A
C582   C584    1.449   .     S
C582   O612    1.285   .     A
C583   O615    1.293   .     A
C583   C585    1.449   .     S
C583   O613    1.285   .     A
C585   C628    1.356   .     S
C585   O648    1.388   .     S
C586   H596    1.085   .     S
C587   H597    1.085   .     S
C587   C706    1.386   .     S
C588   O605    1.381   .     S
C588   C718    1.386   .     S
Cu589  O615    1.975   .     S
Cu589  N601    2.015   .     S
Cu589  Cu590   2.681   .     S
Cu589  O603    1.957   .     S
Cu589  O611    1.959   .     S
Cu589  O612    1.972   .     S
Cu590  N602    2.015   .     S
Cu590  O610    1.959   .     S
Cu590  O609    1.957   .     S
Cu590  O614    1.975   .     S
Cu590  O613    1.972   .     S
H592   O608    0.992   .     S
H595   O648    0.991   .     S
H598   O605    0.990   .     S
H599   O606    0.990   .     S
H600   O607    0.992   .     S
O616   H638    0.991   .     S
O616   C628    1.388   .     S
C617   C620    1.446   .     S
C617   O654    1.291   .     A
C617   O647    1.290   .     A
C618   C620    1.414   .     A
C618   O650    1.381   .     S
C619   C625    1.446   .     S
C619   C631    1.399   .     A
C619   C632    1.414   .     A
C620   C630    1.399   .     A
C621   O651    1.378   .     S
C621   N646    1.371   .     A
C622   O652    1.378   .     S
C622   N645    1.371   .     A
C622   C1020   1.426   .     S
C623   N645    1.364   .     A
C623   H635    1.082   .     S
C623   C1017   1.426   .     S
C624   N646    1.364   .     A
C624   H637    1.082   .     S
C625   O655    1.291   .     A
C625   O653    1.290   .     A
C626   O658    1.293   .     A
C626   C628    1.449   .     S
C626   O656    1.285   .     A
C627   O659    1.293   .     A
C627   C629    1.449   .     S
C627   O657    1.285   .     A
C629   C540    1.356   1_655 S
C629   O560    1.388   1_655 S
C630   H640    1.085   .     S
C631   H641    1.085   .     S
C631   C750    1.386   .     S
C632   O649    1.381   .     S
C632   C762    1.386   .     S
Cu633  O659    1.975   .     S
Cu633  N645    2.015   .     S
Cu633  Cu634   2.681   .     S
Cu633  O647    1.957   .     S
Cu633  O655    1.959   .     S
Cu633  O656    1.972   .     S
Cu634  N646    2.015   .     S
Cu634  O654    1.959   .     S
Cu634  O653    1.957   .     S
Cu634  O658    1.975   .     S
Cu634  O657    1.972   .     S
H636   O652    0.992   .     S
H639   O560    0.991   1_655 S
H642   O649    0.990   .     S
H643   O650    0.990   .     S
H644   O651    0.992   .     S
O660   H550    0.991   1_655 S
O660   C540    1.388   1_655 S
C661   C664    1.446   .     S
C661   O698    1.291   .     A
C661   O691    1.290   .     A
C662   C664    1.414   .     A
C662   O694    1.381   .     S
C663   C669    1.446   .     S
C663   C675    1.399   .     A
C663   C676    1.414   .     A
C664   C674    1.399   .     A
C665   O695    1.378   .     S
C665   N690    1.371   .     A
C666   O696    1.378   .     S
C666   N689    1.371   .     A
C666   C1064   1.426   .     S
C667   N689    1.364   .     A
C667   H679    1.082   .     S
C667   C1061   1.426   .     S
C668   N690    1.364   .     A
C668   H681    1.082   .     S
C669   O699    1.291   .     A
C669   O697    1.290   .     A
C670   O702    1.293   .     A
C670   C672    1.449   .     S
C670   O700    1.285   .     A
C671   O703    1.293   .     A
C671   C673    1.449   .     S
C671   O701    1.285   .     A
C672   C761    1.356   1_455 S
C672   O792    1.388   1_455 S
C673   C716    1.356   .     S
C673   O736    1.388   .     S
C674   H684    1.085   .     S
C675   H685    1.085   .     S
C675   C398    1.386   1_565 S
C676   O693    1.381   .     S
C676   C410    1.386   1_565 S
Cu677  O703    1.975   .     S
Cu677  N689    2.015   .     S
Cu677  Cu678   2.681   .     S
Cu677  O691    1.957   .     S
Cu677  O699    1.959   .     S
Cu677  O700    1.972   .     S
Cu678  N690    2.015   .     S
Cu678  O698    1.959   .     S
Cu678  O697    1.957   .     S
Cu678  O702    1.975   .     S
Cu678  O701    1.972   .     S
H680   O696    0.992   .     S
H682   O792    0.991   1_455 S
H683   O736    0.991   .     S
H686   O693    0.990   .     S
H687   O694    0.990   .     S
H688   O695    0.992   .     S
O692   H771    0.991   1_455 S
O692   C761    1.388   1_455 S
O704   H726    0.991   .     S
O704   C716    1.388   .     S
C705   C708    1.446   .     S
C705   O742    1.291   .     A
C705   O735    1.290   .     A
C706   C708    1.414   .     A
C706   O738    1.381   .     S
C707   C713    1.446   .     S
C707   C719    1.399   .     A
C707   C720    1.414   .     A
C708   C718    1.399   .     A
C709   O739    1.378   .     S
C709   N734    1.371   .     A
C710   O740    1.378   .     S
C710   N733    1.371   .     A
C710   C1108   1.426   .     S
C711   N733    1.364   .     A
C711   H723    1.082   .     S
C711   C1105   1.426   .     S
C712   N734    1.364   .     A
C712   H725    1.082   .     S
C713   O743    1.291   .     A
C713   O741    1.290   .     A
C714   O746    1.293   .     A
C714   C716    1.449   .     S
C714   O744    1.285   .     A
C715   O747    1.293   .     A
C715   C717    1.449   .     S
C715   O745    1.285   .     A
C717   C760    1.356   .     S
C717   O780    1.388   .     S
C718   H728    1.085   .     S
C719   H729    1.085   .     S
C719   C442    1.386   1_565 S
C720   O737    1.381   .     S
C720   C454    1.386   1_565 S
Cu721  O747    1.975   .     S
Cu721  N733    2.015   .     S
Cu721  Cu722   2.681   .     S
Cu721  O735    1.957   .     S
Cu721  O743    1.959   .     S
Cu721  O744    1.972   .     S
Cu722  N734    2.015   .     S
Cu722  O742    1.959   .     S
Cu722  O741    1.957   .     S
Cu722  O746    1.975   .     S
Cu722  O745    1.972   .     S
H724   O740    0.992   .     S
H727   O780    0.991   .     S
H730   O737    0.990   .     S
H731   O738    0.990   .     S
H732   O739    0.992   .     S
O748   H770    0.991   .     S
O748   C760    1.388   .     S
C749   C752    1.446   .     S
C749   O786    1.291   .     A
C749   O779    1.290   .     A
C750   C752    1.414   .     A
C750   O782    1.381   .     S
C751   C757    1.446   .     S
C751   C763    1.399   .     A
C751   C764    1.414   .     A
C752   C762    1.399   .     A
C753   O783    1.378   .     S
C753   N778    1.371   .     A
C754   O784    1.378   .     S
C754   N777    1.371   .     A
C754   C1152   1.426   .     S
C755   N777    1.364   .     A
C755   H767    1.082   .     S
C755   C1149   1.426   .     S
C756   N778    1.364   .     A
C756   H769    1.082   .     S
C757   O787    1.291   .     A
C757   O785    1.290   .     A
C758   O790    1.293   .     A
C758   C760    1.449   .     S
C758   O788    1.285   .     A
C759   O791    1.293   .     A
C759   C761    1.449   .     S
C759   O789    1.285   .     A
C761   C672    1.356   1_655 S
C761   O692    1.388   1_655 S
C762   H772    1.085   .     S
C763   H773    1.085   .     S
C763   C486    1.386   1_565 S
C764   O781    1.381   .     S
C764   C498    1.386   1_565 S
Cu765  O791    1.975   .     S
Cu765  N777    2.015   .     S
Cu765  Cu766   2.681   .     S
Cu765  O779    1.957   .     S
Cu765  O787    1.959   .     S
Cu765  O788    1.972   .     S
Cu766  N778    2.015   .     S
Cu766  O786    1.959   .     S
Cu766  O785    1.957   .     S
Cu766  O790    1.975   .     S
Cu766  O789    1.972   .     S
H768   O784    0.992   .     S
H771   O692    0.991   1_655 S
H774   O781    0.990   .     S
H775   O782    0.990   .     S
H776   O783    0.992   .     S
O792   H682    0.991   1_655 S
O792   C672    1.388   1_655 S
C793   C796    1.446   .     S
C793   O830    1.291   .     A
C793   O823    1.290   .     A
C794   C796    1.414   .     A
C794   O826    1.381   .     S
C794   C1071   1.386   1_545 S
C795   C801    1.446   .     S
C795   C807    1.399   .     A
C795   C808    1.414   .     A
C796   C806    1.399   .     A
C797   O827    1.378   .     S
C797   N822    1.371   .     A
C798   O828    1.378   .     S
C798   N821    1.371   .     A
C798   C8      1.426   1_556 S
C799   N821    1.364   .     A
C799   H811    1.082   .     S
C799   C5      1.426   1_556 S
C800   N822    1.364   .     A
C800   H813    1.082   .     S
C801   O831    1.291   .     A
C801   O829    1.290   .     A
C802   O834    1.293   .     A
C802   C804    1.449   .     S
C802   O832    1.285   .     A
C803   O835    1.293   .     A
C803   C805    1.449   .     S
C803   O833    1.285   .     A
C804   C893    1.356   1_455 S
C804   O924    1.388   1_455 S
C805   C848    1.356   .     S
C805   O868    1.388   .     S
C806   H816    1.085   .     S
C806   C1072   1.386   1_545 S
C807   H817    1.085   .     S
C807   C926    1.386   .     S
C808   O825    1.381   .     S
C808   C938    1.386   .     S
Cu809  O835    1.975   .     S
Cu809  N821    2.015   .     S
Cu809  Cu810   2.681   .     S
Cu809  O823    1.957   .     S
Cu809  O831    1.959   .     S
Cu809  O832    1.972   .     S
Cu810  N822    2.015   .     S
Cu810  O830    1.959   .     S
Cu810  O829    1.957   .     S
Cu810  O834    1.975   .     S
Cu810  O833    1.972   .     S
H812   O828    0.992   .     S
H814   O924    0.991   1_455 S
H815   O868    0.991   .     S
H818   O825    0.990   .     S
H819   O826    0.990   .     S
H820   O827    0.992   .     S
O824   H903    0.991   1_455 S
O824   C893    1.388   1_455 S
O836   H858    0.991   .     S
O836   C848    1.388   .     S
C837   C840    1.446   .     S
C837   O874    1.291   .     A
C837   O867    1.290   .     A
C838   C840    1.414   .     A
C838   O870    1.381   .     S
C838   C1115   1.386   1_545 S
C839   C845    1.446   .     S
C839   C851    1.399   .     A
C839   C852    1.414   .     A
C840   C850    1.399   .     A
C841   O871    1.378   .     S
C841   N866    1.371   .     A
C842   O872    1.378   .     S
C842   N865    1.371   .     A
C842   C52     1.426   1_556 S
C843   N865    1.364   .     A
C843   H855    1.082   .     S
C843   C49     1.426   1_556 S
C844   N866    1.364   .     A
C844   H857    1.082   .     S
C845   O875    1.291   .     A
C845   O873    1.290   .     A
C846   O878    1.293   .     A
C846   C848    1.449   .     S
C846   O876    1.285   .     A
C847   O879    1.293   .     A
C847   C849    1.449   .     S
C847   O877    1.285   .     A
C849   C892    1.356   .     S
C849   O912    1.388   .     S
C850   H860    1.085   .     S
C850   C1116   1.386   1_545 S
C851   H861    1.085   .     S
C851   C970    1.386   .     S
C852   O869    1.381   .     S
C852   C982    1.386   .     S
Cu853  O879    1.975   .     S
Cu853  N865    2.015   .     S
Cu853  Cu854   2.681   .     S
Cu853  O867    1.957   .     S
Cu853  O875    1.959   .     S
Cu853  O876    1.972   .     S
Cu854  N866    2.015   .     S
Cu854  O874    1.959   .     S
Cu854  O873    1.957   .     S
Cu854  O878    1.975   .     S
Cu854  O877    1.972   .     S
H856   O872    0.992   .     S
H859   O912    0.991   .     S
H862   O869    0.990   .     S
H863   O870    0.990   .     S
H864   O871    0.992   .     S
O880   H902    0.991   .     S
O880   C892    1.388   .     S
C881   C884    1.446   .     S
C881   O918    1.291   .     A
C881   O911    1.290   .     A
C882   C884    1.414   .     A
C882   O914    1.381   .     S
C882   C1159   1.386   1_545 S
C883   C889    1.446   .     S
C883   C895    1.399   .     A
C883   C896    1.414   .     A
C884   C894    1.399   .     A
C885   O915    1.378   .     S
C885   N910    1.371   .     A
C886   O916    1.378   .     S
C886   N909    1.371   .     A
C886   C96     1.426   1_556 S
C887   N909    1.364   .     A
C887   H899    1.082   .     S
C887   C93     1.426   1_556 S
C888   N910    1.364   .     A
C888   H901    1.082   .     S
C889   O919    1.291   .     A
C889   O917    1.290   .     A
C890   O922    1.293   .     A
C890   C892    1.449   .     S
C890   O920    1.285   .     A
C891   O923    1.293   .     A
C891   C893    1.449   .     S
C891   O921    1.285   .     A
C893   C804    1.356   1_655 S
C893   O824    1.388   1_655 S
C894   H904    1.085   .     S
C894   C1160   1.386   1_545 S
C895   H905    1.085   .     S
C895   C1014   1.386   .     S
C896   O913    1.381   .     S
C896   C1026   1.386   .     S
Cu897  O923    1.975   .     S
Cu897  N909    2.015   .     S
Cu897  Cu898   2.681   .     S
Cu897  O911    1.957   .     S
Cu897  O919    1.959   .     S
Cu897  O920    1.972   .     S
Cu898  N910    2.015   .     S
Cu898  O918    1.959   .     S
Cu898  O917    1.957   .     S
Cu898  O922    1.975   .     S
Cu898  O921    1.972   .     S
H900   O916    0.992   .     S
H903   O824    0.991   1_655 S
H906   O913    0.990   .     S
H907   O914    0.990   .     S
H908   O915    0.992   .     S
O924   H814    0.991   1_655 S
O924   C804    1.388   1_655 S
C925   C928    1.446   .     S
C925   O962    1.291   .     A
C925   O955    1.290   .     A
C926   C928    1.414   .     A
C926   O958    1.381   .     S
C927   C933    1.446   .     S
C927   C939    1.399   .     A
C927   C940    1.414   .     A
C928   C938    1.399   .     A
C929   O959    1.378   .     S
C929   N954    1.371   .     A
C930   O960    1.378   .     S
C930   N953    1.371   .     A
C930   C140    1.426   1_556 S
C931   N953    1.364   .     A
C931   H943    1.082   .     S
C931   C137    1.426   1_556 S
C932   N954    1.364   .     A
C932   H945    1.082   .     S
C933   O963    1.291   .     A
C933   O961    1.290   .     A
C934   O966    1.293   .     A
C934   C936    1.449   .     S
C934   O964    1.285   .     A
C935   O967    1.293   .     A
C935   C937    1.449   .     S
C935   O965    1.285   .     A
C936   C1025   1.356   1_455 S
C936   O1056   1.388   1_455 S
C937   C980    1.356   .     S
C937   O1000   1.388   .     S
C938   H948    1.085   .     S
C939   H949    1.085   .     S
C939   C1058   1.386   .     S
C940   O957    1.381   .     S
C940   C1070   1.386   .     S
Cu941  O967    1.975   .     S
Cu941  N953    2.015   .     S
Cu941  Cu942   2.681   .     S
Cu941  O955    1.957   .     S
Cu941  O963    1.959   .     S
Cu941  O964    1.972   .     S
Cu942  N954    2.015   .     S
Cu942  O962    1.959   .     S
Cu942  O961    1.957   .     S
Cu942  O966    1.975   .     S
Cu942  O965    1.972   .     S
H944   O960    0.992   .     S
H946   O1056   0.991   1_455 S
H947   O1000   0.991   .     S
H950   O957    0.990   .     S
H951   O958    0.990   .     S
H952   O959    0.992   .     S
O956   H1035   0.991   1_455 S
O956   C1025   1.388   1_455 S
O968   H990    0.991   .     S
O968   C980    1.388   .     S
C969   C972    1.446   .     S
C969   O1006   1.291   .     A
C969   O999    1.290   .     A
C970   C972    1.414   .     A
C970   O1002   1.381   .     S
C971   C977    1.446   .     S
C971   C983    1.399   .     A
C971   C984    1.414   .     A
C972   C982    1.399   .     A
C973   O1003   1.378   .     S
C973   N998    1.371   .     A
C974   O1004   1.378   .     S
C974   N997    1.371   .     A
C974   C184    1.426   1_556 S
C975   N997    1.364   .     A
C975   H987    1.082   .     S
C975   C181    1.426   1_556 S
C976   N998    1.364   .     A
C976   H989    1.082   .     S
C977   O1007   1.291   .     A
C977   O1005   1.290   .     A
C978   O1010   1.293   .     A
C978   C980    1.449   .     S
C978   O1008   1.285   .     A
C979   O1011   1.293   .     A
C979   C981    1.449   .     S
C979   O1009   1.285   .     A
C981   C1024   1.356   .     S
C981   O1044   1.388   .     S
C982   H992    1.085   .     S
C983   H993    1.085   .     S
C983   C1102   1.386   .     S
C984   O1001   1.381   .     S
C984   C1114   1.386   .     S
Cu985  O1011   1.975   .     S
Cu985  N997    2.015   .     S
Cu985  Cu986   2.681   .     S
Cu985  O999    1.957   .     S
Cu985  O1007   1.959   .     S
Cu985  O1008   1.972   .     S
Cu986  N998    2.015   .     S
Cu986  O1006   1.959   .     S
Cu986  O1005   1.957   .     S
Cu986  O1010   1.975   .     S
Cu986  O1009   1.972   .     S
H988   O1004   0.992   .     S
H991   O1044   0.991   .     S
H994   O1001   0.990   .     S
H995   O1002   0.990   .     S
H996   O1003   0.992   .     S
O1012  H1034   0.991   .     S
O1012  C1024   1.388   .     S
C1013  C1016   1.446   .     S
C1013  O1050   1.291   .     A
C1013  O1043   1.290   .     A
C1014  C1016   1.414   .     A
C1014  O1046   1.381   .     S
C1015  C1021   1.446   .     S
C1015  C1027   1.399   .     A
C1015  C1028   1.414   .     A
C1016  C1026   1.399   .     A
C1017  O1047   1.378   .     S
C1017  N1042   1.371   .     A
C1018  O1048   1.378   .     S
C1018  N1041   1.371   .     A
C1018  C228    1.426   1_556 S
C1019  N1041   1.364   .     A
C1019  H1031   1.082   .     S
C1019  C225    1.426   1_556 S
C1020  N1042   1.364   .     A
C1020  H1033   1.082   .     S
C1021  O1051   1.291   .     A
C1021  O1049   1.290   .     A
C1022  O1054   1.293   .     A
C1022  C1024   1.449   .     S
C1022  O1052   1.285   .     A
C1023  O1055   1.293   .     A
C1023  C1025   1.449   .     S
C1023  O1053   1.285   .     A
C1025  C936    1.356   1_655 S
C1025  O956    1.388   1_655 S
C1026  H1036   1.085   .     S
C1027  H1037   1.085   .     S
C1027  C1146   1.386   .     S
C1028  O1045   1.381   .     S
C1028  C1158   1.386   .     S
Cu1029 O1055   1.975   .     S
Cu1029 N1041   2.015   .     S
Cu1029 Cu1030  2.681   .     S
Cu1029 O1043   1.957   .     S
Cu1029 O1051   1.959   .     S
Cu1029 O1052   1.972   .     S
Cu1030 N1042   2.015   .     S
Cu1030 O1050   1.959   .     S
Cu1030 O1049   1.957   .     S
Cu1030 O1054   1.975   .     S
Cu1030 O1053   1.972   .     S
H1032  O1048   0.992   .     S
H1035  O956    0.991   1_655 S
H1038  O1045   0.990   .     S
H1039  O1046   0.990   .     S
H1040  O1047   0.992   .     S
O1056  H946    0.991   1_655 S
O1056  C936    1.388   1_655 S
C1057  C1060   1.446   .     S
C1057  O1094   1.291   .     A
C1057  O1087   1.290   .     A
C1058  C1060   1.414   .     A
C1058  O1090   1.381   .     S
C1059  C1065   1.446   .     S
C1059  C1071   1.399   .     A
C1059  C1072   1.414   .     A
C1060  C1070   1.399   .     A
C1061  O1091   1.378   .     S
C1061  N1086   1.371   .     A
C1062  O1092   1.378   .     S
C1062  N1085   1.371   .     A
C1062  C272    1.426   1_556 S
C1063  N1085   1.364   .     A
C1063  H1075   1.082   .     S
C1063  C269    1.426   1_556 S
C1064  N1086   1.364   .     A
C1064  H1077   1.082   .     S
C1065  O1095   1.291   .     A
C1065  O1093   1.290   .     A
C1066  O1098   1.293   .     A
C1066  C1068   1.449   .     S
C1066  O1096   1.285   .     A
C1067  O1099   1.293   .     A
C1067  C1069   1.449   .     S
C1067  O1097   1.285   .     A
C1068  C1157   1.356   1_455 S
C1068  O1188   1.388   1_455 S
C1069  C1112   1.356   .     S
C1069  O1132   1.388   .     S
C1070  H1080   1.085   .     S
C1071  H1081   1.085   .     S
C1071  C794    1.386   1_565 S
C1072  O1089   1.381   .     S
C1072  C806    1.386   1_565 S
Cu1073 O1099   1.975   .     S
Cu1073 N1085   2.015   .     S
Cu1073 Cu1074  2.681   .     S
Cu1073 O1087   1.957   .     S
Cu1073 O1095   1.959   .     S
Cu1073 O1096   1.972   .     S
Cu1074 N1086   2.015   .     S
Cu1074 O1094   1.959   .     S
Cu1074 O1093   1.957   .     S
Cu1074 O1098   1.975   .     S
Cu1074 O1097   1.972   .     S
H1076  O1092   0.992   .     S
H1078  O1188   0.991   1_455 S
H1079  O1132   0.991   .     S
H1082  O1089   0.990   .     S
H1083  O1090   0.990   .     S
H1084  O1091   0.992   .     S
O1088  H1167   0.991   1_455 S
O1088  C1157   1.388   1_455 S
O1100  H1122   0.991   .     S
O1100  C1112   1.388   .     S
C1101  C1104   1.446   .     S
C1101  O1138   1.291   .     A
C1101  O1131   1.290   .     A
C1102  C1104   1.414   .     A
C1102  O1134   1.381   .     S
C1103  C1109   1.446   .     S
C1103  C1115   1.399   .     A
C1103  C1116   1.414   .     A
C1104  C1114   1.399   .     A
C1105  O1135   1.378   .     S
C1105  N1130   1.371   .     A
C1106  O1136   1.378   .     S
C1106  N1129   1.371   .     A
C1106  C316    1.426   1_556 S
C1107  N1129   1.364   .     A
C1107  H1119   1.082   .     S
C1107  C313    1.426   1_556 S
C1108  N1130   1.364   .     A
C1108  H1121   1.082   .     S
C1109  O1139   1.291   .     A
C1109  O1137   1.290   .     A
C1110  O1142   1.293   .     A
C1110  C1112   1.449   .     S
C1110  O1140   1.285   .     A
C1111  O1143   1.293   .     A
C1111  C1113   1.449   .     S
C1111  O1141   1.285   .     A
C1113  C1156   1.356   .     S
C1113  O1176   1.388   .     S
C1114  H1124   1.085   .     S
C1115  H1125   1.085   .     S
C1115  C838    1.386   1_565 S
C1116  O1133   1.381   .     S
C1116  C850    1.386   1_565 S
Cu1117 O1143   1.975   .     S
Cu1117 N1129   2.015   .     S
Cu1117 Cu1118  2.681   .     S
Cu1117 O1131   1.957   .     S
Cu1117 O1139   1.959   .     S
Cu1117 O1140   1.972   .     S
Cu1118 N1130   2.015   .     S
Cu1118 O1138   1.959   .     S
Cu1118 O1137   1.957   .     S
Cu1118 O1142   1.975   .     S
Cu1118 O1141   1.972   .     S
H1120  O1136   0.992   .     S
H1123  O1176   0.991   .     S
H1126  O1133   0.990   .     S
H1127  O1134   0.990   .     S
H1128  O1135   0.992   .     S
O1144  H1166   0.991   .     S
O1144  C1156   1.388   .     S
C1145  C1148   1.446   .     S
C1145  O1182   1.291   .     A
C1145  O1175   1.290   .     A
C1146  C1148   1.414   .     A
C1146  O1178   1.381   .     S
C1147  C1153   1.446   .     S
C1147  C1159   1.399   .     A
C1147  C1160   1.414   .     A
C1148  C1158   1.399   .     A
C1149  O1179   1.378   .     S
C1149  N1174   1.371   .     A
C1150  O1180   1.378   .     S
C1150  N1173   1.371   .     A
C1150  C360    1.426   1_556 S
C1151  N1173   1.364   .     A
C1151  H1163   1.082   .     S
C1151  C357    1.426   1_556 S
C1152  N1174   1.364   .     A
C1152  H1165   1.082   .     S
C1153  O1183   1.291   .     A
C1153  O1181   1.290   .     A
C1154  O1186   1.293   .     A
C1154  C1156   1.449   .     S
C1154  O1184   1.285   .     A
C1155  O1187   1.293   .     A
C1155  C1157   1.449   .     S
C1155  O1185   1.285   .     A
C1157  C1068   1.356   1_655 S
C1157  O1088   1.388   1_655 S
C1158  H1168   1.085   .     S
C1159  H1169   1.085   .     S
C1159  C882    1.386   1_565 S
C1160  O1177   1.381   .     S
C1160  C894    1.386   1_565 S
Cu1161 O1187   1.975   .     S
Cu1161 N1173   2.015   .     S
Cu1161 Cu1162  2.681   .     S
Cu1161 O1175   1.957   .     S
Cu1161 O1183   1.959   .     S
Cu1161 O1184   1.972   .     S
Cu1162 N1174   2.015   .     S
Cu1162 O1182   1.959   .     S
Cu1162 O1181   1.957   .     S
Cu1162 O1186   1.975   .     S
Cu1162 O1185   1.972   .     S
H1164  O1180   0.992   .     S
H1167  O1088   0.991   1_655 S
H1170  O1177   0.990   .     S
H1171  O1178   0.990   .     S
H1172  O1179   0.992   .     S
O1188  H1078   0.991   1_655 S
O1188  C1068   1.388   1_655 S
