data_str_m3_o1_o16_pcu_sym.120
_audit_creation_date              2020-01-03
_audit_creation_method            'Materials Studio'
_symmetry_space_group_name_H-M    'P1'
_symmetry_Int_Tables_number       1
_symmetry_cell_setting            triclinic
loop_
_symmetry_equiv_pos_as_xyz
  x,y,z
_cell_length_a                    29.5638
_cell_length_b                    32.0544
_cell_length_c                    26.4788
_cell_angle_alpha                 90.2196
_cell_angle_beta                  70.3064
_cell_angle_gamma                 89.6573
loop_
_atom_site_label
_atom_site_type_symbol
_atom_site_fract_x
_atom_site_fract_y
_atom_site_fract_z
_atom_site_U_iso_or_equiv
_atom_site_adp_type
_atom_site_occupancy
C1     C     0.16652   0.24668   0.25023   0.00000  Uiso   1.00
C2     C     0.15142   0.15105   0.48633   0.00000  Uiso   1.00
C3     C     0.15573   0.17160   0.43791   0.00000  Uiso   1.00
C4     C     0.18610   0.16077   0.01107   0.00000  Uiso   1.00
C5     C     0.22831   0.18307   0.48285   0.00000  Uiso   1.00
C6     C     0.23119   0.20301   0.43566   0.00000  Uiso   1.00
C7     C     0.19352   0.20021   0.41609   0.00000  Uiso   1.00
C8     C     0.17645   0.15507   0.06562   0.00000  Uiso   1.00
C9     C     0.25491   0.18080   0.05959   0.00000  Uiso   1.00
C10    C     0.12327   0.16257   0.41093   0.00000  Uiso   1.00
C11    C     0.19972   0.31183   0.26802   0.00000  Uiso   1.00
C12    C     0.13991   0.16720   0.35223   0.00000  Uiso   1.00
C13    C     0.19992   0.02124   0.26781   0.00000  Uiso   1.00
C14    C     0.16657   0.04252   0.25046   0.00000  Uiso   1.00
C15    C     0.13289   0.02150   0.23356   0.00000  Uiso   1.00
C16    C     0.13279   0.31213   0.23362   0.00000  Uiso   1.00
C17    C     0.16627   0.29083   0.25072   0.00000  Uiso   1.00
C18    C     0.31544   0.13317   0.23071   0.00000  Uiso   1.00
C19    C     0.03001   0.13321   0.23062   0.00000  Uiso   1.00
C20    C     0.01792   0.20034   0.26954   0.00000  Uiso   1.00
C21    C     0.30321   0.20020   0.26921   0.00000  Uiso   1.00
C22    C     0.16669   0.08666   0.25012   0.00000  Uiso   1.00
C23    C     0.19322   0.16607   0.14818   0.00000  Uiso   1.00
C24    C     0.26402   0.19000   0.00582   0.00000  Uiso   1.00
C25    C     0.20964   0.16592   0.09011   0.00000  Uiso   1.00
C26    C     0.08034   0.14110   0.43760   0.00000  Uiso   1.00
C27    C     0.07414   0.12211   0.48739   0.00000  Uiso   1.00
C28    C     0.11252   0.12258   0.00820   0.00000  Uiso   1.00
H29    H     0.28121   0.18889   0.07817   0.00000  Uiso   1.00
H30    H     0.22570   0.03754   0.28151   0.00000  Uiso   1.00
H31    H     0.10719   0.03797   0.21972   0.00000  Uiso   1.00
H32    H     0.10703   0.29588   0.21986   0.00000  Uiso   1.00
H33    H     0.30230   0.10635   0.21513   0.00000  Uiso   1.00
H34    H     0.05296   0.10645   0.21492   0.00000  Uiso   1.00
H35    H     0.28033   0.22721   0.28347   0.00000  Uiso   1.00
H36    H     0.26042   0.22383   0.41673   0.00000  Uiso   1.00
H37    H     0.29722   0.20535   0.48350   0.00000  Uiso   1.00
H38    H     0.14078   0.14679   0.09084   0.00000  Uiso   1.00
H39    H     0.19472   0.22033   0.38292   0.00000  Uiso   1.00
H40    H     0.22537   0.29533   0.28191   0.00000  Uiso   1.00
N41    N     0.04760   0.16668   0.25002   0.00000  Uiso   1.00
N42    N     0.28573   0.16665   0.25001   0.00000  Uiso   1.00
O43    O     0.12846   0.22775   0.25001   0.00000  Uiso   1.00
O44    O     0.20490   0.22774   0.25001   0.00000  Uiso   1.00
O45    O     0.10947   0.16666   0.32681   0.00000  Uiso   1.00
O46    O     0.18591   0.16665   0.32681   0.00000  Uiso   1.00
O47    O     0.12843   0.10559   0.25000   0.00000  Uiso   1.00
O48    O     0.20488   0.10558   0.25000   0.00000  Uiso   1.00
O49    O     0.14742   0.16668   0.17319   0.00000  Uiso   1.00
O50    O     0.22387   0.16667   0.17319   0.00000  Uiso   1.00
Zn51   Zn    0.11562   0.16667   0.25000   0.00000  Uiso   1.00
Zn52   Zn    0.21771   0.16666   0.25000   0.00000  Uiso   1.00
O53    O     0.03674   0.23591   0.28406   0.00000  Uiso   1.00
C54    C     0.01452   0.24403   0.33930   0.00000  Uiso   1.00
H55    H     0.01096   0.21501   0.36352   0.00000  Uiso   1.00
H56    H     0.31203   0.25858   0.34621   0.00000  Uiso   1.00
C57    C     0.04525   0.27492   0.35745   0.00000  Uiso   1.00
H58    H     0.08156   0.26128   0.35010   0.00000  Uiso   1.00
H59    H     0.04920   0.30405   0.33379   0.00000  Uiso   1.00
C60    C     0.02293   0.28547   0.41697   0.00000  Uiso   1.00
H61    H     0.31892   0.29728   0.42623   0.00000  Uiso   1.00
H62    H     0.04451   0.30998   0.42781   0.00000  Uiso   1.00
H63    H     0.02272   0.25738   0.44142   0.00000  Uiso   1.00
O64    O     0.04371   0.14019   0.41585   0.00000  Uiso   1.00
C65    C     0.04278   0.10097   0.39144   0.00000  Uiso   1.00
H66    H     0.03963   0.07461   0.41952   0.00000  Uiso   1.00
H67    H     0.07603   0.09598   0.35641   0.00000  Uiso   1.00
C68    C     0.33258   0.10016   0.37267   0.00000  Uiso   1.00
H69    H     0.29916   0.10300   0.40805   0.00000  Uiso   1.00
H70    H     0.00065   0.12723   0.34622   0.00000  Uiso   1.00
C71    C     0.33092   0.05997   0.34231   0.00000  Uiso   1.00
H72    H     0.03084   0.05630   0.30700   0.00000  Uiso   1.00
H73    H     0.29963   0.06103   0.32810   0.00000  Uiso   1.00
H74    H     0.32706   0.03270   0.36910   0.00000  Uiso   1.00
C75    C     0.11498   0.09031   0.04740   0.00000  Uiso   1.00
H76    H     0.14818   0.07298   0.04051   0.00000  Uiso   1.00
O77    O     0.08164   0.08501   0.08914   0.00000  Uiso   1.00
C78    C     0.02777   0.10093   0.01495   0.00000  Uiso   1.00
H79    H     0.32781   0.11558   0.01537   0.00000  Uiso   1.00
O80    O     0.02628   0.06599   0.03355   0.00000  Uiso   1.00
C81    C     0.49986   0.24668   0.25023   0.00000  Uiso   1.00
C82    C     0.48476   0.15105   0.48633   0.00000  Uiso   1.00
C83    C     0.48906   0.17160   0.43791   0.00000  Uiso   1.00
C84    C     0.51944   0.16077   0.01107   0.00000  Uiso   1.00
C85    C     0.56164   0.18307   0.48285   0.00000  Uiso   1.00
C86    C     0.56452   0.20301   0.43566   0.00000  Uiso   1.00
C87    C     0.52686   0.20021   0.41609   0.00000  Uiso   1.00
C88    C     0.50979   0.15507   0.06562   0.00000  Uiso   1.00
C89    C     0.58824   0.18080   0.05959   0.00000  Uiso   1.00
C90    C     0.45660   0.16257   0.41093   0.00000  Uiso   1.00
C91    C     0.53305   0.31183   0.26802   0.00000  Uiso   1.00
C92    C     0.47324   0.16720   0.35223   0.00000  Uiso   1.00
C93    C     0.53326   0.02124   0.26781   0.00000  Uiso   1.00
C94    C     0.49990   0.04252   0.25046   0.00000  Uiso   1.00
C95    C     0.46622   0.02150   0.23356   0.00000  Uiso   1.00
C96    C     0.46612   0.31213   0.23362   0.00000  Uiso   1.00
C97    C     0.49960   0.29083   0.25072   0.00000  Uiso   1.00
C98    C     0.64878   0.13317   0.23071   0.00000  Uiso   1.00
C99    C     0.36335   0.13321   0.23062   0.00000  Uiso   1.00
C100   C     0.35125   0.20034   0.26954   0.00000  Uiso   1.00
C101   C     0.63655   0.20020   0.26921   0.00000  Uiso   1.00
C102   C     0.50002   0.08666   0.25012   0.00000  Uiso   1.00
C103   C     0.52656   0.16607   0.14818   0.00000  Uiso   1.00
C104   C     0.59735   0.19000   0.00582   0.00000  Uiso   1.00
C105   C     0.54298   0.16592   0.09011   0.00000  Uiso   1.00
C106   C     0.41368   0.14110   0.43760   0.00000  Uiso   1.00
C107   C     0.40747   0.12211   0.48739   0.00000  Uiso   1.00
C108   C     0.44586   0.12258   0.00820   0.00000  Uiso   1.00
H109   H     0.61454   0.18889   0.07817   0.00000  Uiso   1.00
H110   H     0.55903   0.03754   0.28151   0.00000  Uiso   1.00
H111   H     0.44052   0.03797   0.21972   0.00000  Uiso   1.00
H112   H     0.44036   0.29588   0.21986   0.00000  Uiso   1.00
H113   H     0.63563   0.10635   0.21513   0.00000  Uiso   1.00
H114   H     0.38629   0.10645   0.21492   0.00000  Uiso   1.00
H115   H     0.61366   0.22721   0.28347   0.00000  Uiso   1.00
H116   H     0.59375   0.22383   0.41673   0.00000  Uiso   1.00
H117   H     0.63055   0.20535   0.48350   0.00000  Uiso   1.00
H118   H     0.47412   0.14679   0.09084   0.00000  Uiso   1.00
H119   H     0.52805   0.22033   0.38292   0.00000  Uiso   1.00
H120   H     0.55870   0.29533   0.28191   0.00000  Uiso   1.00
N121   N     0.38093   0.16668   0.25002   0.00000  Uiso   1.00
N122   N     0.61906   0.16665   0.25001   0.00000  Uiso   1.00
O123   O     0.46179   0.22775   0.25001   0.00000  Uiso   1.00
O124   O     0.53823   0.22774   0.25001   0.00000  Uiso   1.00
O125   O     0.44280   0.16666   0.32681   0.00000  Uiso   1.00
O126   O     0.51924   0.16665   0.32681   0.00000  Uiso   1.00
O127   O     0.46177   0.10559   0.25000   0.00000  Uiso   1.00
O128   O     0.53821   0.10558   0.25000   0.00000  Uiso   1.00
O129   O     0.48076   0.16668   0.17319   0.00000  Uiso   1.00
O130   O     0.55720   0.16667   0.17319   0.00000  Uiso   1.00
Zn131  Zn    0.44896   0.16667   0.25000   0.00000  Uiso   1.00
Zn132  Zn    0.55104   0.16666   0.25000   0.00000  Uiso   1.00
O133   O     0.37008   0.23591   0.28406   0.00000  Uiso   1.00
C134   C     0.34785   0.24403   0.33930   0.00000  Uiso   1.00
H135   H     0.34429   0.21501   0.36352   0.00000  Uiso   1.00
H136   H     0.64536   0.25858   0.34621   0.00000  Uiso   1.00
C137   C     0.37859   0.27492   0.35745   0.00000  Uiso   1.00
H138   H     0.41489   0.26128   0.35010   0.00000  Uiso   1.00
H139   H     0.38253   0.30405   0.33379   0.00000  Uiso   1.00
C140   C     0.35627   0.28547   0.41697   0.00000  Uiso   1.00
H141   H     0.65226   0.29728   0.42623   0.00000  Uiso   1.00
H142   H     0.37784   0.30998   0.42781   0.00000  Uiso   1.00
H143   H     0.35606   0.25738   0.44142   0.00000  Uiso   1.00
O144   O     0.37704   0.14019   0.41585   0.00000  Uiso   1.00
C145   C     0.37611   0.10097   0.39144   0.00000  Uiso   1.00
H146   H     0.37297   0.07461   0.41952   0.00000  Uiso   1.00
H147   H     0.40937   0.09598   0.35641   0.00000  Uiso   1.00
C148   C     0.66591   0.10016   0.37267   0.00000  Uiso   1.00
H149   H     0.63249   0.10300   0.40805   0.00000  Uiso   1.00
H150   H     0.33399   0.12723   0.34622   0.00000  Uiso   1.00
C151   C     0.66425   0.05997   0.34231   0.00000  Uiso   1.00
H152   H     0.36417   0.05630   0.30700   0.00000  Uiso   1.00
H153   H     0.63296   0.06103   0.32810   0.00000  Uiso   1.00
H154   H     0.66039   0.03270   0.36910   0.00000  Uiso   1.00
C155   C     0.44831   0.09031   0.04740   0.00000  Uiso   1.00
H156   H     0.48152   0.07298   0.04051   0.00000  Uiso   1.00
O157   O     0.41497   0.08501   0.08914   0.00000  Uiso   1.00
C158   C     0.36110   0.10093   0.01495   0.00000  Uiso   1.00
H159   H     0.66114   0.11558   0.01537   0.00000  Uiso   1.00
O160   O     0.35961   0.06599   0.03355   0.00000  Uiso   1.00
C161   C     0.83319   0.24668   0.25023   0.00000  Uiso   1.00
C162   C     0.81809   0.15105   0.48633   0.00000  Uiso   1.00
C163   C     0.82240   0.17160   0.43791   0.00000  Uiso   1.00
C164   C     0.85277   0.16077   0.01107   0.00000  Uiso   1.00
C165   C     0.89498   0.18307   0.48285   0.00000  Uiso   1.00
C166   C     0.89785   0.20301   0.43566   0.00000  Uiso   1.00
C167   C     0.86019   0.20021   0.41609   0.00000  Uiso   1.00
C168   C     0.84312   0.15507   0.06562   0.00000  Uiso   1.00
C169   C     0.92157   0.18080   0.05959   0.00000  Uiso   1.00
C170   C     0.78994   0.16257   0.41093   0.00000  Uiso   1.00
C171   C     0.86639   0.31183   0.26802   0.00000  Uiso   1.00
C172   C     0.80658   0.16720   0.35223   0.00000  Uiso   1.00
C173   C     0.86659   0.02124   0.26781   0.00000  Uiso   1.00
C174   C     0.83324   0.04252   0.25046   0.00000  Uiso   1.00
C175   C     0.79956   0.02150   0.23356   0.00000  Uiso   1.00
C176   C     0.79945   0.31213   0.23362   0.00000  Uiso   1.00
C177   C     0.83293   0.29083   0.25072   0.00000  Uiso   1.00
C178   C     0.98211   0.13317   0.23071   0.00000  Uiso   1.00
C179   C     0.69668   0.13321   0.23062   0.00000  Uiso   1.00
C180   C     0.68458   0.20034   0.26954   0.00000  Uiso   1.00
C181   C     0.96988   0.20020   0.26921   0.00000  Uiso   1.00
C182   C     0.83336   0.08666   0.25012   0.00000  Uiso   1.00
C183   C     0.85989   0.16607   0.14818   0.00000  Uiso   1.00
C184   C     0.93069   0.19000   0.00582   0.00000  Uiso   1.00
C185   C     0.87631   0.16592   0.09011   0.00000  Uiso   1.00
C186   C     0.74701   0.14110   0.43760   0.00000  Uiso   1.00
C187   C     0.74080   0.12211   0.48739   0.00000  Uiso   1.00
C188   C     0.77919   0.12258   0.00820   0.00000  Uiso   1.00
H189   H     0.94788   0.18889   0.07817   0.00000  Uiso   1.00
H190   H     0.89237   0.03754   0.28151   0.00000  Uiso   1.00
H191   H     0.77385   0.03797   0.21972   0.00000  Uiso   1.00
H192   H     0.77370   0.29588   0.21986   0.00000  Uiso   1.00
H193   H     0.96897   0.10635   0.21513   0.00000  Uiso   1.00
H194   H     0.71962   0.10645   0.21492   0.00000  Uiso   1.00
H195   H     0.94699   0.22721   0.28347   0.00000  Uiso   1.00
H196   H     0.92708   0.22383   0.41673   0.00000  Uiso   1.00
H197   H     0.96389   0.20535   0.48350   0.00000  Uiso   1.00
H198   H     0.80745   0.14679   0.09084   0.00000  Uiso   1.00
H199   H     0.86138   0.22033   0.38292   0.00000  Uiso   1.00
H200   H     0.89204   0.29533   0.28191   0.00000  Uiso   1.00
N201   N     0.71426   0.16668   0.25002   0.00000  Uiso   1.00
N202   N     0.95239   0.16665   0.25001   0.00000  Uiso   1.00
O203   O     0.79512   0.22775   0.25001   0.00000  Uiso   1.00
O204   O     0.87157   0.22774   0.25001   0.00000  Uiso   1.00
O205   O     0.77613   0.16666   0.32681   0.00000  Uiso   1.00
O206   O     0.85258   0.16665   0.32681   0.00000  Uiso   1.00
O207   O     0.79510   0.10559   0.25000   0.00000  Uiso   1.00
O208   O     0.87154   0.10558   0.25000   0.00000  Uiso   1.00
O209   O     0.81409   0.16668   0.17319   0.00000  Uiso   1.00
O210   O     0.89053   0.16667   0.17319   0.00000  Uiso   1.00
Zn211  Zn    0.78229   0.16667   0.25000   0.00000  Uiso   1.00
Zn212  Zn    0.88438   0.16666   0.25000   0.00000  Uiso   1.00
O213   O     0.70341   0.23591   0.28406   0.00000  Uiso   1.00
C214   C     0.68119   0.24403   0.33930   0.00000  Uiso   1.00
H215   H     0.67762   0.21501   0.36352   0.00000  Uiso   1.00
H216   H     0.97870   0.25858   0.34621   0.00000  Uiso   1.00
C217   C     0.71192   0.27492   0.35745   0.00000  Uiso   1.00
H218   H     0.74823   0.26128   0.35010   0.00000  Uiso   1.00
H219   H     0.71587   0.30405   0.33379   0.00000  Uiso   1.00
C220   C     0.68960   0.28547   0.41697   0.00000  Uiso   1.00
H221   H     0.98559   0.29728   0.42623   0.00000  Uiso   1.00
H222   H     0.71117   0.30998   0.42781   0.00000  Uiso   1.00
H223   H     0.68939   0.25738   0.44142   0.00000  Uiso   1.00
O224   O     0.71038   0.14019   0.41585   0.00000  Uiso   1.00
C225   C     0.70944   0.10097   0.39144   0.00000  Uiso   1.00
H226   H     0.70630   0.07461   0.41952   0.00000  Uiso   1.00
H227   H     0.74270   0.09598   0.35641   0.00000  Uiso   1.00
C228   C     0.99925   0.10016   0.37267   0.00000  Uiso   1.00
H229   H     0.96583   0.10300   0.40805   0.00000  Uiso   1.00
H230   H     0.66732   0.12723   0.34622   0.00000  Uiso   1.00
C231   C     0.99759   0.05997   0.34231   0.00000  Uiso   1.00
H232   H     0.69751   0.05630   0.30700   0.00000  Uiso   1.00
H233   H     0.96629   0.06103   0.32810   0.00000  Uiso   1.00
H234   H     0.99372   0.03270   0.36910   0.00000  Uiso   1.00
C235   C     0.78164   0.09031   0.04740   0.00000  Uiso   1.00
H236   H     0.81485   0.07298   0.04051   0.00000  Uiso   1.00
O237   O     0.74830   0.08501   0.08914   0.00000  Uiso   1.00
C238   C     0.69444   0.10093   0.01495   0.00000  Uiso   1.00
H239   H     0.99448   0.11558   0.01537   0.00000  Uiso   1.00
O240   O     0.69295   0.06599   0.03355   0.00000  Uiso   1.00
C241   C     0.16652   0.58001   0.25023   0.00000  Uiso   1.00
C242   C     0.15142   0.48438   0.48633   0.00000  Uiso   1.00
C243   C     0.15573   0.50493   0.43791   0.00000  Uiso   1.00
C244   C     0.18610   0.49410   0.01107   0.00000  Uiso   1.00
C245   C     0.22831   0.51640   0.48285   0.00000  Uiso   1.00
C246   C     0.23119   0.53635   0.43566   0.00000  Uiso   1.00
C247   C     0.19352   0.53354   0.41609   0.00000  Uiso   1.00
C248   C     0.17645   0.48840   0.06562   0.00000  Uiso   1.00
C249   C     0.25491   0.51413   0.05959   0.00000  Uiso   1.00
C250   C     0.12327   0.49590   0.41093   0.00000  Uiso   1.00
C251   C     0.19972   0.64517   0.26802   0.00000  Uiso   1.00
C252   C     0.13991   0.50054   0.35223   0.00000  Uiso   1.00
C253   C     0.19992   0.35458   0.26781   0.00000  Uiso   1.00
C254   C     0.16657   0.37585   0.25046   0.00000  Uiso   1.00
C255   C     0.13289   0.35484   0.23356   0.00000  Uiso   1.00
C256   C     0.13279   0.64546   0.23362   0.00000  Uiso   1.00
C257   C     0.16627   0.62416   0.25072   0.00000  Uiso   1.00
C258   C     0.31544   0.46650   0.23071   0.00000  Uiso   1.00
C259   C     0.03001   0.46654   0.23062   0.00000  Uiso   1.00
C260   C     0.01792   0.53367   0.26954   0.00000  Uiso   1.00
C261   C     0.30321   0.53353   0.26921   0.00000  Uiso   1.00
C262   C     0.16669   0.41999   0.25012   0.00000  Uiso   1.00
C263   C     0.19322   0.49940   0.14818   0.00000  Uiso   1.00
C264   C     0.26402   0.52333   0.00582   0.00000  Uiso   1.00
C265   C     0.20964   0.49926   0.09011   0.00000  Uiso   1.00
C266   C     0.08034   0.47443   0.43760   0.00000  Uiso   1.00
C267   C     0.07414   0.45544   0.48739   0.00000  Uiso   1.00
C268   C     0.11252   0.45591   0.00820   0.00000  Uiso   1.00
H269   H     0.28121   0.52223   0.07817   0.00000  Uiso   1.00
H270   H     0.22570   0.37087   0.28151   0.00000  Uiso   1.00
H271   H     0.10719   0.37130   0.21972   0.00000  Uiso   1.00
H272   H     0.10703   0.62921   0.21986   0.00000  Uiso   1.00
H273   H     0.30230   0.43968   0.21513   0.00000  Uiso   1.00
H274   H     0.05296   0.43978   0.21492   0.00000  Uiso   1.00
H275   H     0.28033   0.56054   0.28347   0.00000  Uiso   1.00
H276   H     0.26042   0.55716   0.41673   0.00000  Uiso   1.00
H277   H     0.29722   0.53868   0.48350   0.00000  Uiso   1.00
H278   H     0.14078   0.48012   0.09084   0.00000  Uiso   1.00
H279   H     0.19472   0.55366   0.38292   0.00000  Uiso   1.00
H280   H     0.22537   0.62866   0.28191   0.00000  Uiso   1.00
N281   N     0.04760   0.50001   0.25002   0.00000  Uiso   1.00
N282   N     0.28573   0.49998   0.25001   0.00000  Uiso   1.00
O283   O     0.12846   0.56108   0.25001   0.00000  Uiso   1.00
O284   O     0.20490   0.56107   0.25001   0.00000  Uiso   1.00
O285   O     0.10947   0.50000   0.32681   0.00000  Uiso   1.00
O286   O     0.18591   0.49999   0.32681   0.00000  Uiso   1.00
O287   O     0.12843   0.43893   0.25000   0.00000  Uiso   1.00
O288   O     0.20488   0.43892   0.25000   0.00000  Uiso   1.00
O289   O     0.14742   0.50001   0.17319   0.00000  Uiso   1.00
O290   O     0.22387   0.50000   0.17319   0.00000  Uiso   1.00
Zn291  Zn    0.11562   0.50001   0.25000   0.00000  Uiso   1.00
Zn292  Zn    0.21771   0.49999   0.25000   0.00000  Uiso   1.00
O293   O     0.03674   0.56924   0.28406   0.00000  Uiso   1.00
C294   C     0.01452   0.57737   0.33930   0.00000  Uiso   1.00
H295   H     0.01096   0.54835   0.36352   0.00000  Uiso   1.00
H296   H     0.31203   0.59192   0.34621   0.00000  Uiso   1.00
C297   C     0.04525   0.60825   0.35745   0.00000  Uiso   1.00
H298   H     0.08156   0.59461   0.35010   0.00000  Uiso   1.00
H299   H     0.04920   0.63738   0.33379   0.00000  Uiso   1.00
C300   C     0.02293   0.61881   0.41697   0.00000  Uiso   1.00
H301   H     0.31892   0.63062   0.42623   0.00000  Uiso   1.00
H302   H     0.04451   0.64331   0.42781   0.00000  Uiso   1.00
H303   H     0.02272   0.59071   0.44142   0.00000  Uiso   1.00
O304   O     0.04371   0.47353   0.41585   0.00000  Uiso   1.00
C305   C     0.04278   0.43430   0.39144   0.00000  Uiso   1.00
H306   H     0.03963   0.40795   0.41952   0.00000  Uiso   1.00
H307   H     0.07603   0.42931   0.35641   0.00000  Uiso   1.00
C308   C     0.33258   0.43349   0.37267   0.00000  Uiso   1.00
H309   H     0.29916   0.43633   0.40805   0.00000  Uiso   1.00
H310   H     0.00065   0.46056   0.34622   0.00000  Uiso   1.00
C311   C     0.33092   0.39331   0.34231   0.00000  Uiso   1.00
H312   H     0.03084   0.38963   0.30700   0.00000  Uiso   1.00
H313   H     0.29963   0.39436   0.32810   0.00000  Uiso   1.00
H314   H     0.32706   0.36604   0.36910   0.00000  Uiso   1.00
C315   C     0.11498   0.42365   0.04740   0.00000  Uiso   1.00
H316   H     0.14818   0.40631   0.04051   0.00000  Uiso   1.00
O317   O     0.08164   0.41835   0.08914   0.00000  Uiso   1.00
C318   C     0.02777   0.43426   0.01495   0.00000  Uiso   1.00
H319   H     0.32781   0.44891   0.01537   0.00000  Uiso   1.00
O320   O     0.02628   0.39932   0.03355   0.00000  Uiso   1.00
C321   C     0.49986   0.58001   0.25023   0.00000  Uiso   1.00
C322   C     0.48476   0.48438   0.48633   0.00000  Uiso   1.00
C323   C     0.48906   0.50493   0.43791   0.00000  Uiso   1.00
C324   C     0.51944   0.49410   0.01107   0.00000  Uiso   1.00
C325   C     0.56164   0.51640   0.48285   0.00000  Uiso   1.00
C326   C     0.56452   0.53635   0.43566   0.00000  Uiso   1.00
C327   C     0.52686   0.53354   0.41609   0.00000  Uiso   1.00
C328   C     0.50979   0.48840   0.06562   0.00000  Uiso   1.00
C329   C     0.58824   0.51413   0.05959   0.00000  Uiso   1.00
C330   C     0.45660   0.49590   0.41093   0.00000  Uiso   1.00
C331   C     0.53305   0.64517   0.26802   0.00000  Uiso   1.00
C332   C     0.47324   0.50054   0.35223   0.00000  Uiso   1.00
C333   C     0.53326   0.35458   0.26781   0.00000  Uiso   1.00
C334   C     0.49990   0.37585   0.25046   0.00000  Uiso   1.00
C335   C     0.46622   0.35484   0.23356   0.00000  Uiso   1.00
C336   C     0.46612   0.64546   0.23362   0.00000  Uiso   1.00
C337   C     0.49960   0.62416   0.25072   0.00000  Uiso   1.00
C338   C     0.64878   0.46650   0.23071   0.00000  Uiso   1.00
C339   C     0.36335   0.46654   0.23062   0.00000  Uiso   1.00
C340   C     0.35125   0.53367   0.26954   0.00000  Uiso   1.00
C341   C     0.63655   0.53353   0.26921   0.00000  Uiso   1.00
C342   C     0.50002   0.41999   0.25012   0.00000  Uiso   1.00
C343   C     0.52656   0.49940   0.14818   0.00000  Uiso   1.00
C344   C     0.59735   0.52333   0.00582   0.00000  Uiso   1.00
C345   C     0.54298   0.49926   0.09011   0.00000  Uiso   1.00
C346   C     0.41368   0.47443   0.43760   0.00000  Uiso   1.00
C347   C     0.40747   0.45544   0.48739   0.00000  Uiso   1.00
C348   C     0.44586   0.45591   0.00820   0.00000  Uiso   1.00
H349   H     0.61454   0.52223   0.07817   0.00000  Uiso   1.00
H350   H     0.55903   0.37087   0.28151   0.00000  Uiso   1.00
H351   H     0.44052   0.37130   0.21972   0.00000  Uiso   1.00
H352   H     0.44036   0.62921   0.21986   0.00000  Uiso   1.00
H353   H     0.63563   0.43968   0.21513   0.00000  Uiso   1.00
H354   H     0.38629   0.43978   0.21492   0.00000  Uiso   1.00
H355   H     0.61366   0.56054   0.28347   0.00000  Uiso   1.00
H356   H     0.59375   0.55716   0.41673   0.00000  Uiso   1.00
H357   H     0.63055   0.53868   0.48350   0.00000  Uiso   1.00
H358   H     0.47412   0.48012   0.09084   0.00000  Uiso   1.00
H359   H     0.52805   0.55366   0.38292   0.00000  Uiso   1.00
H360   H     0.55870   0.62866   0.28191   0.00000  Uiso   1.00
N361   N     0.38093   0.50001   0.25002   0.00000  Uiso   1.00
N362   N     0.61906   0.49998   0.25001   0.00000  Uiso   1.00
O363   O     0.46179   0.56108   0.25001   0.00000  Uiso   1.00
O364   O     0.53823   0.56107   0.25001   0.00000  Uiso   1.00
O365   O     0.44280   0.50000   0.32681   0.00000  Uiso   1.00
O366   O     0.51924   0.49999   0.32681   0.00000  Uiso   1.00
O367   O     0.46177   0.43893   0.25000   0.00000  Uiso   1.00
O368   O     0.53821   0.43892   0.25000   0.00000  Uiso   1.00
O369   O     0.48076   0.50001   0.17319   0.00000  Uiso   1.00
O370   O     0.55720   0.50000   0.17319   0.00000  Uiso   1.00
Zn371  Zn    0.44896   0.50001   0.25000   0.00000  Uiso   1.00
Zn372  Zn    0.55104   0.49999   0.25000   0.00000  Uiso   1.00
O373   O     0.37008   0.56924   0.28406   0.00000  Uiso   1.00
C374   C     0.34785   0.57737   0.33930   0.00000  Uiso   1.00
H375   H     0.34429   0.54835   0.36352   0.00000  Uiso   1.00
H376   H     0.64536   0.59192   0.34621   0.00000  Uiso   1.00
C377   C     0.37859   0.60825   0.35745   0.00000  Uiso   1.00
H378   H     0.41489   0.59461   0.35010   0.00000  Uiso   1.00
H379   H     0.38253   0.63738   0.33379   0.00000  Uiso   1.00
C380   C     0.35627   0.61881   0.41697   0.00000  Uiso   1.00
H381   H     0.65226   0.63062   0.42623   0.00000  Uiso   1.00
H382   H     0.37784   0.64331   0.42781   0.00000  Uiso   1.00
H383   H     0.35606   0.59071   0.44142   0.00000  Uiso   1.00
O384   O     0.37704   0.47353   0.41585   0.00000  Uiso   1.00
C385   C     0.37611   0.43430   0.39144   0.00000  Uiso   1.00
H386   H     0.37297   0.40795   0.41952   0.00000  Uiso   1.00
H387   H     0.40937   0.42931   0.35641   0.00000  Uiso   1.00
C388   C     0.66591   0.43349   0.37267   0.00000  Uiso   1.00
H389   H     0.63249   0.43633   0.40805   0.00000  Uiso   1.00
H390   H     0.33399   0.46056   0.34622   0.00000  Uiso   1.00
C391   C     0.66425   0.39331   0.34231   0.00000  Uiso   1.00
H392   H     0.36417   0.38963   0.30700   0.00000  Uiso   1.00
H393   H     0.63296   0.39436   0.32810   0.00000  Uiso   1.00
H394   H     0.66039   0.36604   0.36910   0.00000  Uiso   1.00
C395   C     0.44831   0.42365   0.04740   0.00000  Uiso   1.00
H396   H     0.48152   0.40631   0.04051   0.00000  Uiso   1.00
O397   O     0.41497   0.41835   0.08914   0.00000  Uiso   1.00
C398   C     0.36110   0.43426   0.01495   0.00000  Uiso   1.00
H399   H     0.66114   0.44891   0.01537   0.00000  Uiso   1.00
O400   O     0.35961   0.39932   0.03355   0.00000  Uiso   1.00
C401   C     0.83319   0.58001   0.25023   0.00000  Uiso   1.00
C402   C     0.81809   0.48438   0.48633   0.00000  Uiso   1.00
C403   C     0.82240   0.50493   0.43791   0.00000  Uiso   1.00
C404   C     0.85277   0.49410   0.01107   0.00000  Uiso   1.00
C405   C     0.89498   0.51640   0.48285   0.00000  Uiso   1.00
C406   C     0.89785   0.53635   0.43566   0.00000  Uiso   1.00
C407   C     0.86019   0.53354   0.41609   0.00000  Uiso   1.00
C408   C     0.84312   0.48840   0.06562   0.00000  Uiso   1.00
C409   C     0.92157   0.51413   0.05959   0.00000  Uiso   1.00
C410   C     0.78994   0.49590   0.41093   0.00000  Uiso   1.00
C411   C     0.86639   0.64517   0.26802   0.00000  Uiso   1.00
C412   C     0.80658   0.50054   0.35223   0.00000  Uiso   1.00
C413   C     0.86659   0.35458   0.26781   0.00000  Uiso   1.00
C414   C     0.83324   0.37585   0.25046   0.00000  Uiso   1.00
C415   C     0.79956   0.35484   0.23356   0.00000  Uiso   1.00
C416   C     0.79945   0.64546   0.23362   0.00000  Uiso   1.00
C417   C     0.83293   0.62416   0.25072   0.00000  Uiso   1.00
C418   C     0.98211   0.46650   0.23071   0.00000  Uiso   1.00
C419   C     0.69668   0.46654   0.23062   0.00000  Uiso   1.00
C420   C     0.68458   0.53367   0.26954   0.00000  Uiso   1.00
C421   C     0.96988   0.53353   0.26921   0.00000  Uiso   1.00
C422   C     0.83336   0.41999   0.25012   0.00000  Uiso   1.00
C423   C     0.85989   0.49940   0.14818   0.00000  Uiso   1.00
C424   C     0.93069   0.52333   0.00582   0.00000  Uiso   1.00
C425   C     0.87631   0.49926   0.09011   0.00000  Uiso   1.00
C426   C     0.74701   0.47443   0.43760   0.00000  Uiso   1.00
C427   C     0.74080   0.45544   0.48739   0.00000  Uiso   1.00
C428   C     0.77919   0.45591   0.00820   0.00000  Uiso   1.00
H429   H     0.94788   0.52223   0.07817   0.00000  Uiso   1.00
H430   H     0.89237   0.37087   0.28151   0.00000  Uiso   1.00
H431   H     0.77385   0.37130   0.21972   0.00000  Uiso   1.00
H432   H     0.77370   0.62921   0.21986   0.00000  Uiso   1.00
H433   H     0.96897   0.43968   0.21513   0.00000  Uiso   1.00
H434   H     0.71962   0.43978   0.21492   0.00000  Uiso   1.00
H435   H     0.94699   0.56054   0.28347   0.00000  Uiso   1.00
H436   H     0.92708   0.55716   0.41673   0.00000  Uiso   1.00
H437   H     0.96389   0.53868   0.48350   0.00000  Uiso   1.00
H438   H     0.80745   0.48012   0.09084   0.00000  Uiso   1.00
H439   H     0.86138   0.55366   0.38292   0.00000  Uiso   1.00
H440   H     0.89204   0.62866   0.28191   0.00000  Uiso   1.00
N441   N     0.71426   0.50001   0.25002   0.00000  Uiso   1.00
N442   N     0.95239   0.49998   0.25001   0.00000  Uiso   1.00
O443   O     0.79512   0.56108   0.25001   0.00000  Uiso   1.00
O444   O     0.87157   0.56107   0.25001   0.00000  Uiso   1.00
O445   O     0.77613   0.50000   0.32681   0.00000  Uiso   1.00
O446   O     0.85258   0.49999   0.32681   0.00000  Uiso   1.00
O447   O     0.79510   0.43893   0.25000   0.00000  Uiso   1.00
O448   O     0.87154   0.43892   0.25000   0.00000  Uiso   1.00
O449   O     0.81409   0.50001   0.17319   0.00000  Uiso   1.00
O450   O     0.89053   0.50000   0.17319   0.00000  Uiso   1.00
Zn451  Zn    0.78229   0.50001   0.25000   0.00000  Uiso   1.00
Zn452  Zn    0.88438   0.49999   0.25000   0.00000  Uiso   1.00
O453   O     0.70341   0.56924   0.28406   0.00000  Uiso   1.00
C454   C     0.68119   0.57737   0.33930   0.00000  Uiso   1.00
H455   H     0.67762   0.54835   0.36352   0.00000  Uiso   1.00
H456   H     0.97870   0.59192   0.34621   0.00000  Uiso   1.00
C457   C     0.71192   0.60825   0.35745   0.00000  Uiso   1.00
H458   H     0.74823   0.59461   0.35010   0.00000  Uiso   1.00
H459   H     0.71587   0.63738   0.33379   0.00000  Uiso   1.00
C460   C     0.68960   0.61881   0.41697   0.00000  Uiso   1.00
H461   H     0.98559   0.63062   0.42623   0.00000  Uiso   1.00
H462   H     0.71117   0.64331   0.42781   0.00000  Uiso   1.00
H463   H     0.68939   0.59071   0.44142   0.00000  Uiso   1.00
O464   O     0.71038   0.47353   0.41585   0.00000  Uiso   1.00
C465   C     0.70944   0.43430   0.39144   0.00000  Uiso   1.00
H466   H     0.70630   0.40795   0.41952   0.00000  Uiso   1.00
H467   H     0.74270   0.42931   0.35641   0.00000  Uiso   1.00
C468   C     0.99925   0.43349   0.37267   0.00000  Uiso   1.00
H469   H     0.96583   0.43633   0.40805   0.00000  Uiso   1.00
H470   H     0.66732   0.46056   0.34622   0.00000  Uiso   1.00
C471   C     0.99759   0.39331   0.34231   0.00000  Uiso   1.00
H472   H     0.69751   0.38963   0.30700   0.00000  Uiso   1.00
H473   H     0.96629   0.39436   0.32810   0.00000  Uiso   1.00
H474   H     0.99372   0.36604   0.36910   0.00000  Uiso   1.00
C475   C     0.78164   0.42365   0.04740   0.00000  Uiso   1.00
H476   H     0.81485   0.40631   0.04051   0.00000  Uiso   1.00
O477   O     0.74830   0.41835   0.08914   0.00000  Uiso   1.00
C478   C     0.69444   0.43426   0.01495   0.00000  Uiso   1.00
H479   H     0.99448   0.44891   0.01537   0.00000  Uiso   1.00
O480   O     0.69295   0.39932   0.03355   0.00000  Uiso   1.00
C481   C     0.16652   0.91334   0.25023   0.00000  Uiso   1.00
C482   C     0.15142   0.81772   0.48633   0.00000  Uiso   1.00
C483   C     0.15573   0.83826   0.43791   0.00000  Uiso   1.00
C484   C     0.18610   0.82743   0.01107   0.00000  Uiso   1.00
C485   C     0.22831   0.84973   0.48285   0.00000  Uiso   1.00
C486   C     0.23119   0.86968   0.43566   0.00000  Uiso   1.00
C487   C     0.19352   0.86688   0.41609   0.00000  Uiso   1.00
C488   C     0.17645   0.82174   0.06562   0.00000  Uiso   1.00
C489   C     0.25491   0.84747   0.05959   0.00000  Uiso   1.00
C490   C     0.12327   0.82923   0.41093   0.00000  Uiso   1.00
C491   C     0.19972   0.97850   0.26802   0.00000  Uiso   1.00
C492   C     0.13991   0.83387   0.35223   0.00000  Uiso   1.00
C493   C     0.19992   0.68791   0.26781   0.00000  Uiso   1.00
C494   C     0.16657   0.70919   0.25046   0.00000  Uiso   1.00
C495   C     0.13289   0.68817   0.23356   0.00000  Uiso   1.00
C496   C     0.13279   0.97879   0.23362   0.00000  Uiso   1.00
C497   C     0.16627   0.95749   0.25072   0.00000  Uiso   1.00
C498   C     0.31544   0.79984   0.23071   0.00000  Uiso   1.00
C499   C     0.03001   0.79988   0.23062   0.00000  Uiso   1.00
C500   C     0.01792   0.86700   0.26954   0.00000  Uiso   1.00
C501   C     0.30321   0.86686   0.26921   0.00000  Uiso   1.00
C502   C     0.16669   0.75333   0.25012   0.00000  Uiso   1.00
C503   C     0.19322   0.83274   0.14818   0.00000  Uiso   1.00
C504   C     0.26402   0.85667   0.00582   0.00000  Uiso   1.00
C505   C     0.20964   0.83259   0.09011   0.00000  Uiso   1.00
C506   C     0.08034   0.80776   0.43760   0.00000  Uiso   1.00
C507   C     0.07414   0.78878   0.48739   0.00000  Uiso   1.00
C508   C     0.11252   0.78924   0.00820   0.00000  Uiso   1.00
H509   H     0.28121   0.85556   0.07817   0.00000  Uiso   1.00
H510   H     0.22570   0.70421   0.28151   0.00000  Uiso   1.00
H511   H     0.10719   0.70463   0.21972   0.00000  Uiso   1.00
H512   H     0.10703   0.96254   0.21986   0.00000  Uiso   1.00
H513   H     0.30230   0.77302   0.21513   0.00000  Uiso   1.00
H514   H     0.05296   0.77312   0.21492   0.00000  Uiso   1.00
H515   H     0.28033   0.89388   0.28347   0.00000  Uiso   1.00
H516   H     0.26042   0.89050   0.41673   0.00000  Uiso   1.00
H517   H     0.29722   0.87202   0.48350   0.00000  Uiso   1.00
H518   H     0.14078   0.81345   0.09084   0.00000  Uiso   1.00
H519   H     0.19472   0.88700   0.38292   0.00000  Uiso   1.00
H520   H     0.22537   0.96200   0.28191   0.00000  Uiso   1.00
N521   N     0.04760   0.83334   0.25002   0.00000  Uiso   1.00
N522   N     0.28573   0.83331   0.25001   0.00000  Uiso   1.00
O523   O     0.12846   0.89442   0.25001   0.00000  Uiso   1.00
O524   O     0.20490   0.89441   0.25001   0.00000  Uiso   1.00
O525   O     0.10947   0.83333   0.32681   0.00000  Uiso   1.00
O526   O     0.18591   0.83332   0.32681   0.00000  Uiso   1.00
O527   O     0.12843   0.77226   0.25000   0.00000  Uiso   1.00
O528   O     0.20488   0.77225   0.25000   0.00000  Uiso   1.00
O529   O     0.14742   0.83335   0.17319   0.00000  Uiso   1.00
O530   O     0.22387   0.83334   0.17319   0.00000  Uiso   1.00
Zn531  Zn    0.11562   0.83334   0.25000   0.00000  Uiso   1.00
Zn532  Zn    0.21771   0.83333   0.25000   0.00000  Uiso   1.00
O533   O     0.03674   0.90257   0.28406   0.00000  Uiso   1.00
C534   C     0.01452   0.91070   0.33930   0.00000  Uiso   1.00
H535   H     0.01096   0.88168   0.36352   0.00000  Uiso   1.00
H536   H     0.31203   0.92525   0.34621   0.00000  Uiso   1.00
C537   C     0.04525   0.94158   0.35745   0.00000  Uiso   1.00
H538   H     0.08156   0.92795   0.35010   0.00000  Uiso   1.00
H539   H     0.04920   0.97072   0.33379   0.00000  Uiso   1.00
C540   C     0.02293   0.95214   0.41697   0.00000  Uiso   1.00
H541   H     0.31892   0.96395   0.42623   0.00000  Uiso   1.00
H542   H     0.04451   0.97664   0.42781   0.00000  Uiso   1.00
H543   H     0.02272   0.92405   0.44142   0.00000  Uiso   1.00
O544   O     0.04371   0.80686   0.41585   0.00000  Uiso   1.00
C545   C     0.04278   0.76764   0.39144   0.00000  Uiso   1.00
H546   H     0.03963   0.74128   0.41952   0.00000  Uiso   1.00
H547   H     0.07603   0.76264   0.35641   0.00000  Uiso   1.00
C548   C     0.33258   0.76682   0.37267   0.00000  Uiso   1.00
H549   H     0.29916   0.76966   0.40805   0.00000  Uiso   1.00
H550   H     0.00065   0.79390   0.34622   0.00000  Uiso   1.00
C551   C     0.33092   0.72664   0.34231   0.00000  Uiso   1.00
H552   H     0.03084   0.72296   0.30700   0.00000  Uiso   1.00
H553   H     0.29963   0.72770   0.32810   0.00000  Uiso   1.00
H554   H     0.32706   0.69937   0.36910   0.00000  Uiso   1.00
C555   C     0.11498   0.75698   0.04740   0.00000  Uiso   1.00
H556   H     0.14818   0.73965   0.04051   0.00000  Uiso   1.00
O557   O     0.08164   0.75168   0.08914   0.00000  Uiso   1.00
C558   C     0.02777   0.76759   0.01495   0.00000  Uiso   1.00
H559   H     0.32781   0.78224   0.01537   0.00000  Uiso   1.00
O560   O     0.02628   0.73266   0.03355   0.00000  Uiso   1.00
C561   C     0.49986   0.91334   0.25023   0.00000  Uiso   1.00
C562   C     0.48476   0.81772   0.48633   0.00000  Uiso   1.00
C563   C     0.48906   0.83826   0.43791   0.00000  Uiso   1.00
C564   C     0.51944   0.82743   0.01107   0.00000  Uiso   1.00
C565   C     0.56164   0.84973   0.48285   0.00000  Uiso   1.00
C566   C     0.56452   0.86968   0.43566   0.00000  Uiso   1.00
C567   C     0.52686   0.86688   0.41609   0.00000  Uiso   1.00
C568   C     0.50979   0.82174   0.06562   0.00000  Uiso   1.00
C569   C     0.58824   0.84747   0.05959   0.00000  Uiso   1.00
C570   C     0.45660   0.82923   0.41093   0.00000  Uiso   1.00
C571   C     0.53305   0.97850   0.26802   0.00000  Uiso   1.00
C572   C     0.47324   0.83387   0.35223   0.00000  Uiso   1.00
C573   C     0.53326   0.68791   0.26781   0.00000  Uiso   1.00
C574   C     0.49990   0.70919   0.25046   0.00000  Uiso   1.00
C575   C     0.46622   0.68817   0.23356   0.00000  Uiso   1.00
C576   C     0.46612   0.97879   0.23362   0.00000  Uiso   1.00
C577   C     0.49960   0.95749   0.25072   0.00000  Uiso   1.00
C578   C     0.64878   0.79984   0.23071   0.00000  Uiso   1.00
C579   C     0.36335   0.79988   0.23062   0.00000  Uiso   1.00
C580   C     0.35125   0.86700   0.26954   0.00000  Uiso   1.00
C581   C     0.63655   0.86686   0.26921   0.00000  Uiso   1.00
C582   C     0.50002   0.75333   0.25012   0.00000  Uiso   1.00
C583   C     0.52656   0.83274   0.14818   0.00000  Uiso   1.00
C584   C     0.59735   0.85667   0.00582   0.00000  Uiso   1.00
C585   C     0.54298   0.83259   0.09011   0.00000  Uiso   1.00
C586   C     0.41368   0.80776   0.43760   0.00000  Uiso   1.00
C587   C     0.40747   0.78878   0.48739   0.00000  Uiso   1.00
C588   C     0.44586   0.78924   0.00820   0.00000  Uiso   1.00
H589   H     0.61454   0.85556   0.07817   0.00000  Uiso   1.00
H590   H     0.55903   0.70421   0.28151   0.00000  Uiso   1.00
H591   H     0.44052   0.70463   0.21972   0.00000  Uiso   1.00
H592   H     0.44036   0.96254   0.21986   0.00000  Uiso   1.00
H593   H     0.63563   0.77302   0.21513   0.00000  Uiso   1.00
H594   H     0.38629   0.77312   0.21492   0.00000  Uiso   1.00
H595   H     0.61366   0.89388   0.28347   0.00000  Uiso   1.00
H596   H     0.59375   0.89050   0.41673   0.00000  Uiso   1.00
H597   H     0.63055   0.87202   0.48350   0.00000  Uiso   1.00
H598   H     0.47412   0.81345   0.09084   0.00000  Uiso   1.00
H599   H     0.52805   0.88700   0.38292   0.00000  Uiso   1.00
H600   H     0.55870   0.96200   0.28191   0.00000  Uiso   1.00
N601   N     0.38093   0.83334   0.25002   0.00000  Uiso   1.00
N602   N     0.61906   0.83331   0.25001   0.00000  Uiso   1.00
O603   O     0.46179   0.89442   0.25001   0.00000  Uiso   1.00
O604   O     0.53823   0.89441   0.25001   0.00000  Uiso   1.00
O605   O     0.44280   0.83333   0.32681   0.00000  Uiso   1.00
O606   O     0.51924   0.83332   0.32681   0.00000  Uiso   1.00
O607   O     0.46177   0.77226   0.25000   0.00000  Uiso   1.00
O608   O     0.53821   0.77225   0.25000   0.00000  Uiso   1.00
O609   O     0.48076   0.83335   0.17319   0.00000  Uiso   1.00
O610   O     0.55720   0.83334   0.17319   0.00000  Uiso   1.00
Zn611  Zn    0.44896   0.83334   0.25000   0.00000  Uiso   1.00
Zn612  Zn    0.55104   0.83333   0.25000   0.00000  Uiso   1.00
O613   O     0.37008   0.90257   0.28406   0.00000  Uiso   1.00
C614   C     0.34785   0.91070   0.33930   0.00000  Uiso   1.00
H615   H     0.34429   0.88168   0.36352   0.00000  Uiso   1.00
H616   H     0.64536   0.92525   0.34621   0.00000  Uiso   1.00
C617   C     0.37859   0.94158   0.35745   0.00000  Uiso   1.00
H618   H     0.41489   0.92795   0.35010   0.00000  Uiso   1.00
H619   H     0.38253   0.97072   0.33379   0.00000  Uiso   1.00
C620   C     0.35627   0.95214   0.41697   0.00000  Uiso   1.00
H621   H     0.65226   0.96395   0.42623   0.00000  Uiso   1.00
H622   H     0.37784   0.97664   0.42781   0.00000  Uiso   1.00
H623   H     0.35606   0.92405   0.44142   0.00000  Uiso   1.00
O624   O     0.37704   0.80686   0.41585   0.00000  Uiso   1.00
C625   C     0.37611   0.76764   0.39144   0.00000  Uiso   1.00
H626   H     0.37297   0.74128   0.41952   0.00000  Uiso   1.00
H627   H     0.40937   0.76264   0.35641   0.00000  Uiso   1.00
C628   C     0.66591   0.76682   0.37267   0.00000  Uiso   1.00
H629   H     0.63249   0.76966   0.40805   0.00000  Uiso   1.00
H630   H     0.33399   0.79390   0.34622   0.00000  Uiso   1.00
C631   C     0.66425   0.72664   0.34231   0.00000  Uiso   1.00
H632   H     0.36417   0.72296   0.30700   0.00000  Uiso   1.00
H633   H     0.63296   0.72770   0.32810   0.00000  Uiso   1.00
H634   H     0.66039   0.69937   0.36910   0.00000  Uiso   1.00
C635   C     0.44831   0.75698   0.04740   0.00000  Uiso   1.00
H636   H     0.48152   0.73965   0.04051   0.00000  Uiso   1.00
O637   O     0.41497   0.75168   0.08914   0.00000  Uiso   1.00
C638   C     0.36110   0.76759   0.01495   0.00000  Uiso   1.00
H639   H     0.66114   0.78224   0.01537   0.00000  Uiso   1.00
O640   O     0.35961   0.73266   0.03355   0.00000  Uiso   1.00
C641   C     0.83319   0.91334   0.25023   0.00000  Uiso   1.00
C642   C     0.81809   0.81772   0.48633   0.00000  Uiso   1.00
C643   C     0.82240   0.83826   0.43791   0.00000  Uiso   1.00
C644   C     0.85277   0.82743   0.01107   0.00000  Uiso   1.00
C645   C     0.89498   0.84973   0.48285   0.00000  Uiso   1.00
C646   C     0.89785   0.86968   0.43566   0.00000  Uiso   1.00
C647   C     0.86019   0.86688   0.41609   0.00000  Uiso   1.00
C648   C     0.84312   0.82174   0.06562   0.00000  Uiso   1.00
C649   C     0.92157   0.84747   0.05959   0.00000  Uiso   1.00
C650   C     0.78994   0.82923   0.41093   0.00000  Uiso   1.00
C651   C     0.86639   0.97850   0.26802   0.00000  Uiso   1.00
C652   C     0.80658   0.83387   0.35223   0.00000  Uiso   1.00
C653   C     0.86659   0.68791   0.26781   0.00000  Uiso   1.00
C654   C     0.83324   0.70919   0.25046   0.00000  Uiso   1.00
C655   C     0.79956   0.68817   0.23356   0.00000  Uiso   1.00
C656   C     0.79945   0.97879   0.23362   0.00000  Uiso   1.00
C657   C     0.83293   0.95749   0.25072   0.00000  Uiso   1.00
C658   C     0.98211   0.79984   0.23071   0.00000  Uiso   1.00
C659   C     0.69668   0.79988   0.23062   0.00000  Uiso   1.00
C660   C     0.68458   0.86700   0.26954   0.00000  Uiso   1.00
C661   C     0.96988   0.86686   0.26921   0.00000  Uiso   1.00
C662   C     0.83336   0.75333   0.25012   0.00000  Uiso   1.00
C663   C     0.85989   0.83274   0.14818   0.00000  Uiso   1.00
C664   C     0.93069   0.85667   0.00582   0.00000  Uiso   1.00
C665   C     0.87631   0.83259   0.09011   0.00000  Uiso   1.00
C666   C     0.74701   0.80776   0.43760   0.00000  Uiso   1.00
C667   C     0.74080   0.78878   0.48739   0.00000  Uiso   1.00
C668   C     0.77919   0.78924   0.00820   0.00000  Uiso   1.00
H669   H     0.94788   0.85556   0.07817   0.00000  Uiso   1.00
H670   H     0.89237   0.70421   0.28151   0.00000  Uiso   1.00
H671   H     0.77385   0.70463   0.21972   0.00000  Uiso   1.00
H672   H     0.77370   0.96254   0.21986   0.00000  Uiso   1.00
H673   H     0.96897   0.77302   0.21513   0.00000  Uiso   1.00
H674   H     0.71962   0.77312   0.21492   0.00000  Uiso   1.00
H675   H     0.94699   0.89388   0.28347   0.00000  Uiso   1.00
H676   H     0.92708   0.89050   0.41673   0.00000  Uiso   1.00
H677   H     0.96389   0.87202   0.48350   0.00000  Uiso   1.00
H678   H     0.80745   0.81345   0.09084   0.00000  Uiso   1.00
H679   H     0.86138   0.88700   0.38292   0.00000  Uiso   1.00
H680   H     0.89204   0.96200   0.28191   0.00000  Uiso   1.00
N681   N     0.71426   0.83334   0.25002   0.00000  Uiso   1.00
N682   N     0.95239   0.83331   0.25001   0.00000  Uiso   1.00
O683   O     0.79512   0.89442   0.25001   0.00000  Uiso   1.00
O684   O     0.87157   0.89441   0.25001   0.00000  Uiso   1.00
O685   O     0.77613   0.83333   0.32681   0.00000  Uiso   1.00
O686   O     0.85258   0.83332   0.32681   0.00000  Uiso   1.00
O687   O     0.79510   0.77226   0.25000   0.00000  Uiso   1.00
O688   O     0.87154   0.77225   0.25000   0.00000  Uiso   1.00
O689   O     0.81409   0.83335   0.17319   0.00000  Uiso   1.00
O690   O     0.89053   0.83334   0.17319   0.00000  Uiso   1.00
Zn691  Zn    0.78229   0.83334   0.25000   0.00000  Uiso   1.00
Zn692  Zn    0.88438   0.83333   0.25000   0.00000  Uiso   1.00
O693   O     0.70341   0.90257   0.28406   0.00000  Uiso   1.00
C694   C     0.68119   0.91070   0.33930   0.00000  Uiso   1.00
H695   H     0.67762   0.88168   0.36352   0.00000  Uiso   1.00
H696   H     0.97870   0.92525   0.34621   0.00000  Uiso   1.00
C697   C     0.71192   0.94158   0.35745   0.00000  Uiso   1.00
H698   H     0.74823   0.92795   0.35010   0.00000  Uiso   1.00
H699   H     0.71587   0.97072   0.33379   0.00000  Uiso   1.00
C700   C     0.68960   0.95214   0.41697   0.00000  Uiso   1.00
H701   H     0.98559   0.96395   0.42623   0.00000  Uiso   1.00
H702   H     0.71117   0.97664   0.42781   0.00000  Uiso   1.00
H703   H     0.68939   0.92405   0.44142   0.00000  Uiso   1.00
O704   O     0.71038   0.80686   0.41585   0.00000  Uiso   1.00
C705   C     0.70944   0.76764   0.39144   0.00000  Uiso   1.00
H706   H     0.70630   0.74128   0.41952   0.00000  Uiso   1.00
H707   H     0.74270   0.76264   0.35641   0.00000  Uiso   1.00
C708   C     0.99925   0.76682   0.37267   0.00000  Uiso   1.00
H709   H     0.96583   0.76966   0.40805   0.00000  Uiso   1.00
H710   H     0.66732   0.79390   0.34622   0.00000  Uiso   1.00
C711   C     0.99759   0.72664   0.34231   0.00000  Uiso   1.00
H712   H     0.69751   0.72296   0.30700   0.00000  Uiso   1.00
H713   H     0.96629   0.72770   0.32810   0.00000  Uiso   1.00
H714   H     0.99372   0.69937   0.36910   0.00000  Uiso   1.00
C715   C     0.78164   0.75698   0.04740   0.00000  Uiso   1.00
H716   H     0.81485   0.73965   0.04051   0.00000  Uiso   1.00
O717   O     0.74830   0.75168   0.08914   0.00000  Uiso   1.00
C718   C     0.69444   0.76759   0.01495   0.00000  Uiso   1.00
H719   H     0.99448   0.78224   0.01537   0.00000  Uiso   1.00
O720   O     0.69295   0.73266   0.03355   0.00000  Uiso   1.00
C721   C     0.16652   0.24668   0.75023   0.00000  Uiso   1.00
C722   C     0.15142   0.15105   0.98633   0.00000  Uiso   1.00
C723   C     0.15573   0.17160   0.93791   0.00000  Uiso   1.00
C724   C     0.18610   0.16077   0.51107   0.00000  Uiso   1.00
C725   C     0.22831   0.18307   0.98285   0.00000  Uiso   1.00
C726   C     0.23119   0.20301   0.93566   0.00000  Uiso   1.00
C727   C     0.19352   0.20021   0.91609   0.00000  Uiso   1.00
C728   C     0.17645   0.15507   0.56562   0.00000  Uiso   1.00
C729   C     0.25491   0.18080   0.55959   0.00000  Uiso   1.00
C730   C     0.12327   0.16257   0.91093   0.00000  Uiso   1.00
C731   C     0.19972   0.31183   0.76802   0.00000  Uiso   1.00
C732   C     0.13991   0.16720   0.85223   0.00000  Uiso   1.00
C733   C     0.19992   0.02124   0.76781   0.00000  Uiso   1.00
C734   C     0.16657   0.04252   0.75046   0.00000  Uiso   1.00
C735   C     0.13289   0.02150   0.73356   0.00000  Uiso   1.00
C736   C     0.13279   0.31213   0.73362   0.00000  Uiso   1.00
C737   C     0.16627   0.29083   0.75072   0.00000  Uiso   1.00
C738   C     0.31544   0.13317   0.73071   0.00000  Uiso   1.00
C739   C     0.03001   0.13321   0.73062   0.00000  Uiso   1.00
C740   C     0.01792   0.20034   0.76954   0.00000  Uiso   1.00
C741   C     0.30321   0.20020   0.76921   0.00000  Uiso   1.00
C742   C     0.16669   0.08666   0.75012   0.00000  Uiso   1.00
C743   C     0.19322   0.16607   0.64818   0.00000  Uiso   1.00
C744   C     0.26402   0.19000   0.50582   0.00000  Uiso   1.00
C745   C     0.20964   0.16592   0.59011   0.00000  Uiso   1.00
C746   C     0.08034   0.14110   0.93760   0.00000  Uiso   1.00
C747   C     0.07414   0.12211   0.98739   0.00000  Uiso   1.00
C748   C     0.11252   0.12258   0.50820   0.00000  Uiso   1.00
H749   H     0.28121   0.18889   0.57817   0.00000  Uiso   1.00
H750   H     0.22570   0.03754   0.78151   0.00000  Uiso   1.00
H751   H     0.10719   0.03797   0.71972   0.00000  Uiso   1.00
H752   H     0.10703   0.29588   0.71986   0.00000  Uiso   1.00
H753   H     0.30230   0.10635   0.71513   0.00000  Uiso   1.00
H754   H     0.05296   0.10645   0.71492   0.00000  Uiso   1.00
H755   H     0.28033   0.22721   0.78347   0.00000  Uiso   1.00
H756   H     0.26042   0.22383   0.91673   0.00000  Uiso   1.00
H757   H     0.29722   0.20535   0.98350   0.00000  Uiso   1.00
H758   H     0.14078   0.14679   0.59084   0.00000  Uiso   1.00
H759   H     0.19472   0.22033   0.88292   0.00000  Uiso   1.00
H760   H     0.22537   0.29533   0.78191   0.00000  Uiso   1.00
N761   N     0.04760   0.16668   0.75002   0.00000  Uiso   1.00
N762   N     0.28573   0.16665   0.75001   0.00000  Uiso   1.00
O763   O     0.12846   0.22775   0.75001   0.00000  Uiso   1.00
O764   O     0.20490   0.22774   0.75001   0.00000  Uiso   1.00
O765   O     0.10947   0.16666   0.82681   0.00000  Uiso   1.00
O766   O     0.18591   0.16665   0.82681   0.00000  Uiso   1.00
O767   O     0.12843   0.10559   0.75000   0.00000  Uiso   1.00
O768   O     0.20488   0.10558   0.75000   0.00000  Uiso   1.00
O769   O     0.14742   0.16668   0.67319   0.00000  Uiso   1.00
O770   O     0.22387   0.16667   0.67319   0.00000  Uiso   1.00
Zn771  Zn    0.11562   0.16667   0.75000   0.00000  Uiso   1.00
Zn772  Zn    0.21771   0.16666   0.75000   0.00000  Uiso   1.00
O773   O     0.03674   0.23591   0.78406   0.00000  Uiso   1.00
C774   C     0.01452   0.24403   0.83930   0.00000  Uiso   1.00
H775   H     0.01096   0.21501   0.86352   0.00000  Uiso   1.00
H776   H     0.31203   0.25858   0.84621   0.00000  Uiso   1.00
C777   C     0.04525   0.27492   0.85745   0.00000  Uiso   1.00
H778   H     0.08156   0.26128   0.85010   0.00000  Uiso   1.00
H779   H     0.04920   0.30405   0.83379   0.00000  Uiso   1.00
C780   C     0.02293   0.28547   0.91697   0.00000  Uiso   1.00
H781   H     0.31892   0.29728   0.92623   0.00000  Uiso   1.00
H782   H     0.04451   0.30998   0.92781   0.00000  Uiso   1.00
H783   H     0.02272   0.25738   0.94142   0.00000  Uiso   1.00
O784   O     0.04371   0.14019   0.91585   0.00000  Uiso   1.00
C785   C     0.04278   0.10097   0.89144   0.00000  Uiso   1.00
H786   H     0.03963   0.07461   0.91952   0.00000  Uiso   1.00
H787   H     0.07603   0.09598   0.85641   0.00000  Uiso   1.00
C788   C     0.33258   0.10016   0.87267   0.00000  Uiso   1.00
H789   H     0.29916   0.10300   0.90805   0.00000  Uiso   1.00
H790   H     0.00065   0.12723   0.84622   0.00000  Uiso   1.00
C791   C     0.33092   0.05997   0.84231   0.00000  Uiso   1.00
H792   H     0.03084   0.05630   0.80700   0.00000  Uiso   1.00
H793   H     0.29963   0.06103   0.82810   0.00000  Uiso   1.00
H794   H     0.32706   0.03270   0.86910   0.00000  Uiso   1.00
C795   C     0.11498   0.09031   0.54740   0.00000  Uiso   1.00
H796   H     0.14818   0.07298   0.54051   0.00000  Uiso   1.00
O797   O     0.08164   0.08501   0.58914   0.00000  Uiso   1.00
C798   C     0.02777   0.10093   0.51495   0.00000  Uiso   1.00
H799   H     0.32781   0.11558   0.51537   0.00000  Uiso   1.00
O800   O     0.02628   0.06599   0.53355   0.00000  Uiso   1.00
C801   C     0.49986   0.24668   0.75023   0.00000  Uiso   1.00
C802   C     0.48476   0.15105   0.98633   0.00000  Uiso   1.00
C803   C     0.48906   0.17160   0.93791   0.00000  Uiso   1.00
C804   C     0.51944   0.16077   0.51107   0.00000  Uiso   1.00
C805   C     0.56164   0.18307   0.98285   0.00000  Uiso   1.00
C806   C     0.56452   0.20301   0.93566   0.00000  Uiso   1.00
C807   C     0.52686   0.20021   0.91609   0.00000  Uiso   1.00
C808   C     0.50979   0.15507   0.56562   0.00000  Uiso   1.00
C809   C     0.58824   0.18080   0.55959   0.00000  Uiso   1.00
C810   C     0.45660   0.16257   0.91093   0.00000  Uiso   1.00
C811   C     0.53305   0.31183   0.76802   0.00000  Uiso   1.00
C812   C     0.47324   0.16720   0.85223   0.00000  Uiso   1.00
C813   C     0.53326   0.02124   0.76781   0.00000  Uiso   1.00
C814   C     0.49990   0.04252   0.75046   0.00000  Uiso   1.00
C815   C     0.46622   0.02150   0.73356   0.00000  Uiso   1.00
C816   C     0.46612   0.31213   0.73362   0.00000  Uiso   1.00
C817   C     0.49960   0.29083   0.75072   0.00000  Uiso   1.00
C818   C     0.64878   0.13317   0.73071   0.00000  Uiso   1.00
C819   C     0.36335   0.13321   0.73062   0.00000  Uiso   1.00
C820   C     0.35125   0.20034   0.76954   0.00000  Uiso   1.00
C821   C     0.63655   0.20020   0.76921   0.00000  Uiso   1.00
C822   C     0.50002   0.08666   0.75012   0.00000  Uiso   1.00
C823   C     0.52656   0.16607   0.64818   0.00000  Uiso   1.00
C824   C     0.59735   0.19000   0.50582   0.00000  Uiso   1.00
C825   C     0.54298   0.16592   0.59011   0.00000  Uiso   1.00
C826   C     0.41368   0.14110   0.93760   0.00000  Uiso   1.00
C827   C     0.40747   0.12211   0.98739   0.00000  Uiso   1.00
C828   C     0.44586   0.12258   0.50820   0.00000  Uiso   1.00
H829   H     0.61454   0.18889   0.57817   0.00000  Uiso   1.00
H830   H     0.55903   0.03754   0.78151   0.00000  Uiso   1.00
H831   H     0.44052   0.03797   0.71972   0.00000  Uiso   1.00
H832   H     0.44036   0.29588   0.71986   0.00000  Uiso   1.00
H833   H     0.63563   0.10635   0.71513   0.00000  Uiso   1.00
H834   H     0.38629   0.10645   0.71492   0.00000  Uiso   1.00
H835   H     0.61366   0.22721   0.78347   0.00000  Uiso   1.00
H836   H     0.59375   0.22383   0.91673   0.00000  Uiso   1.00
H837   H     0.63055   0.20535   0.98350   0.00000  Uiso   1.00
H838   H     0.47412   0.14679   0.59084   0.00000  Uiso   1.00
H839   H     0.52805   0.22033   0.88292   0.00000  Uiso   1.00
H840   H     0.55870   0.29533   0.78191   0.00000  Uiso   1.00
N841   N     0.38093   0.16668   0.75002   0.00000  Uiso   1.00
N842   N     0.61906   0.16665   0.75001   0.00000  Uiso   1.00
O843   O     0.46179   0.22775   0.75001   0.00000  Uiso   1.00
O844   O     0.53823   0.22774   0.75001   0.00000  Uiso   1.00
O845   O     0.44280   0.16666   0.82681   0.00000  Uiso   1.00
O846   O     0.51924   0.16665   0.82681   0.00000  Uiso   1.00
O847   O     0.46177   0.10559   0.75000   0.00000  Uiso   1.00
O848   O     0.53821   0.10558   0.75000   0.00000  Uiso   1.00
O849   O     0.48076   0.16668   0.67319   0.00000  Uiso   1.00
O850   O     0.55720   0.16667   0.67319   0.00000  Uiso   1.00
Zn851  Zn    0.44896   0.16667   0.75000   0.00000  Uiso   1.00
Zn852  Zn    0.55104   0.16666   0.75000   0.00000  Uiso   1.00
O853   O     0.37008   0.23591   0.78406   0.00000  Uiso   1.00
C854   C     0.34785   0.24403   0.83930   0.00000  Uiso   1.00
H855   H     0.34429   0.21501   0.86352   0.00000  Uiso   1.00
H856   H     0.64536   0.25858   0.84621   0.00000  Uiso   1.00
C857   C     0.37859   0.27492   0.85745   0.00000  Uiso   1.00
H858   H     0.41489   0.26128   0.85010   0.00000  Uiso   1.00
H859   H     0.38253   0.30405   0.83379   0.00000  Uiso   1.00
C860   C     0.35627   0.28547   0.91697   0.00000  Uiso   1.00
H861   H     0.65226   0.29728   0.92623   0.00000  Uiso   1.00
H862   H     0.37784   0.30998   0.92781   0.00000  Uiso   1.00
H863   H     0.35606   0.25738   0.94142   0.00000  Uiso   1.00
O864   O     0.37704   0.14019   0.91585   0.00000  Uiso   1.00
C865   C     0.37611   0.10097   0.89144   0.00000  Uiso   1.00
H866   H     0.37297   0.07461   0.91952   0.00000  Uiso   1.00
H867   H     0.40937   0.09598   0.85641   0.00000  Uiso   1.00
C868   C     0.66591   0.10016   0.87267   0.00000  Uiso   1.00
H869   H     0.63249   0.10300   0.90805   0.00000  Uiso   1.00
H870   H     0.33399   0.12723   0.84622   0.00000  Uiso   1.00
C871   C     0.66425   0.05997   0.84231   0.00000  Uiso   1.00
H872   H     0.36417   0.05630   0.80700   0.00000  Uiso   1.00
H873   H     0.63296   0.06103   0.82810   0.00000  Uiso   1.00
H874   H     0.66039   0.03270   0.86910   0.00000  Uiso   1.00
C875   C     0.44831   0.09031   0.54740   0.00000  Uiso   1.00
H876   H     0.48152   0.07298   0.54051   0.00000  Uiso   1.00
O877   O     0.41497   0.08501   0.58914   0.00000  Uiso   1.00
C878   C     0.36110   0.10093   0.51495   0.00000  Uiso   1.00
H879   H     0.66114   0.11558   0.51537   0.00000  Uiso   1.00
O880   O     0.35961   0.06599   0.53355   0.00000  Uiso   1.00
C881   C     0.83319   0.24668   0.75023   0.00000  Uiso   1.00
C882   C     0.81809   0.15105   0.98633   0.00000  Uiso   1.00
C883   C     0.82240   0.17160   0.93791   0.00000  Uiso   1.00
C884   C     0.85277   0.16077   0.51107   0.00000  Uiso   1.00
C885   C     0.89498   0.18307   0.98285   0.00000  Uiso   1.00
C886   C     0.89785   0.20301   0.93566   0.00000  Uiso   1.00
C887   C     0.86019   0.20021   0.91609   0.00000  Uiso   1.00
C888   C     0.84312   0.15507   0.56562   0.00000  Uiso   1.00
C889   C     0.92157   0.18080   0.55959   0.00000  Uiso   1.00
C890   C     0.78994   0.16257   0.91093   0.00000  Uiso   1.00
C891   C     0.86639   0.31183   0.76802   0.00000  Uiso   1.00
C892   C     0.80658   0.16720   0.85223   0.00000  Uiso   1.00
C893   C     0.86659   0.02124   0.76781   0.00000  Uiso   1.00
C894   C     0.83324   0.04252   0.75046   0.00000  Uiso   1.00
C895   C     0.79956   0.02150   0.73356   0.00000  Uiso   1.00
C896   C     0.79945   0.31213   0.73362   0.00000  Uiso   1.00
C897   C     0.83293   0.29083   0.75072   0.00000  Uiso   1.00
C898   C     0.98211   0.13317   0.73071   0.00000  Uiso   1.00
C899   C     0.69668   0.13321   0.73062   0.00000  Uiso   1.00
C900   C     0.68458   0.20034   0.76954   0.00000  Uiso   1.00
C901   C     0.96988   0.20020   0.76921   0.00000  Uiso   1.00
C902   C     0.83336   0.08666   0.75012   0.00000  Uiso   1.00
C903   C     0.85989   0.16607   0.64818   0.00000  Uiso   1.00
C904   C     0.93069   0.19000   0.50582   0.00000  Uiso   1.00
C905   C     0.87631   0.16592   0.59011   0.00000  Uiso   1.00
C906   C     0.74701   0.14110   0.93760   0.00000  Uiso   1.00
C907   C     0.74080   0.12211   0.98739   0.00000  Uiso   1.00
C908   C     0.77919   0.12258   0.50820   0.00000  Uiso   1.00
H909   H     0.94788   0.18889   0.57817   0.00000  Uiso   1.00
H910   H     0.89237   0.03754   0.78151   0.00000  Uiso   1.00
H911   H     0.77385   0.03797   0.71972   0.00000  Uiso   1.00
H912   H     0.77370   0.29588   0.71986   0.00000  Uiso   1.00
H913   H     0.96897   0.10635   0.71513   0.00000  Uiso   1.00
H914   H     0.71962   0.10645   0.71492   0.00000  Uiso   1.00
H915   H     0.94699   0.22721   0.78347   0.00000  Uiso   1.00
H916   H     0.92708   0.22383   0.91673   0.00000  Uiso   1.00
H917   H     0.96389   0.20535   0.98350   0.00000  Uiso   1.00
H918   H     0.80745   0.14679   0.59084   0.00000  Uiso   1.00
H919   H     0.86138   0.22033   0.88292   0.00000  Uiso   1.00
H920   H     0.89204   0.29533   0.78191   0.00000  Uiso   1.00
N921   N     0.71426   0.16668   0.75002   0.00000  Uiso   1.00
N922   N     0.95239   0.16665   0.75001   0.00000  Uiso   1.00
O923   O     0.79512   0.22775   0.75001   0.00000  Uiso   1.00
O924   O     0.87157   0.22774   0.75001   0.00000  Uiso   1.00
O925   O     0.77613   0.16666   0.82681   0.00000  Uiso   1.00
O926   O     0.85258   0.16665   0.82681   0.00000  Uiso   1.00
O927   O     0.79510   0.10559   0.75000   0.00000  Uiso   1.00
O928   O     0.87154   0.10558   0.75000   0.00000  Uiso   1.00
O929   O     0.81409   0.16668   0.67319   0.00000  Uiso   1.00
O930   O     0.89053   0.16667   0.67319   0.00000  Uiso   1.00
Zn931  Zn    0.78229   0.16667   0.75000   0.00000  Uiso   1.00
Zn932  Zn    0.88438   0.16666   0.75000   0.00000  Uiso   1.00
O933   O     0.70341   0.23591   0.78406   0.00000  Uiso   1.00
C934   C     0.68119   0.24403   0.83930   0.00000  Uiso   1.00
H935   H     0.67762   0.21501   0.86352   0.00000  Uiso   1.00
H936   H     0.97870   0.25858   0.84621   0.00000  Uiso   1.00
C937   C     0.71192   0.27492   0.85745   0.00000  Uiso   1.00
H938   H     0.74823   0.26128   0.85010   0.00000  Uiso   1.00
H939   H     0.71587   0.30405   0.83379   0.00000  Uiso   1.00
C940   C     0.68960   0.28547   0.91697   0.00000  Uiso   1.00
H941   H     0.98559   0.29728   0.92623   0.00000  Uiso   1.00
H942   H     0.71117   0.30998   0.92781   0.00000  Uiso   1.00
H943   H     0.68939   0.25738   0.94142   0.00000  Uiso   1.00
O944   O     0.71038   0.14019   0.91585   0.00000  Uiso   1.00
C945   C     0.70944   0.10097   0.89144   0.00000  Uiso   1.00
H946   H     0.70630   0.07461   0.91952   0.00000  Uiso   1.00
H947   H     0.74270   0.09598   0.85641   0.00000  Uiso   1.00
C948   C     0.99925   0.10016   0.87267   0.00000  Uiso   1.00
H949   H     0.96583   0.10300   0.90805   0.00000  Uiso   1.00
H950   H     0.66732   0.12723   0.84622   0.00000  Uiso   1.00
C951   C     0.99759   0.05997   0.84231   0.00000  Uiso   1.00
H952   H     0.69751   0.05630   0.80700   0.00000  Uiso   1.00
H953   H     0.96629   0.06103   0.82810   0.00000  Uiso   1.00
H954   H     0.99372   0.03270   0.86910   0.00000  Uiso   1.00
C955   C     0.78164   0.09031   0.54740   0.00000  Uiso   1.00
H956   H     0.81485   0.07298   0.54051   0.00000  Uiso   1.00
O957   O     0.74830   0.08501   0.58914   0.00000  Uiso   1.00
C958   C     0.69444   0.10093   0.51495   0.00000  Uiso   1.00
H959   H     0.99448   0.11558   0.51537   0.00000  Uiso   1.00
O960   O     0.69295   0.06599   0.53355   0.00000  Uiso   1.00
C961   C     0.16652   0.58001   0.75023   0.00000  Uiso   1.00
C962   C     0.15142   0.48438   0.98633   0.00000  Uiso   1.00
C963   C     0.15573   0.50493   0.93791   0.00000  Uiso   1.00
C964   C     0.18610   0.49410   0.51107   0.00000  Uiso   1.00
C965   C     0.22831   0.51640   0.98285   0.00000  Uiso   1.00
C966   C     0.23119   0.53635   0.93566   0.00000  Uiso   1.00
C967   C     0.19352   0.53354   0.91609   0.00000  Uiso   1.00
C968   C     0.17645   0.48840   0.56562   0.00000  Uiso   1.00
C969   C     0.25491   0.51413   0.55959   0.00000  Uiso   1.00
C970   C     0.12327   0.49590   0.91093   0.00000  Uiso   1.00
C971   C     0.19972   0.64517   0.76802   0.00000  Uiso   1.00
C972   C     0.13991   0.50054   0.85223   0.00000  Uiso   1.00
C973   C     0.19992   0.35458   0.76781   0.00000  Uiso   1.00
C974   C     0.16657   0.37585   0.75046   0.00000  Uiso   1.00
C975   C     0.13289   0.35484   0.73356   0.00000  Uiso   1.00
C976   C     0.13279   0.64546   0.73362   0.00000  Uiso   1.00
C977   C     0.16627   0.62416   0.75072   0.00000  Uiso   1.00
C978   C     0.31544   0.46650   0.73071   0.00000  Uiso   1.00
C979   C     0.03001   0.46654   0.73062   0.00000  Uiso   1.00
C980   C     0.01792   0.53367   0.76954   0.00000  Uiso   1.00
C981   C     0.30321   0.53353   0.76921   0.00000  Uiso   1.00
C982   C     0.16669   0.41999   0.75012   0.00000  Uiso   1.00
C983   C     0.19322   0.49940   0.64818   0.00000  Uiso   1.00
C984   C     0.26402   0.52333   0.50582   0.00000  Uiso   1.00
C985   C     0.20964   0.49926   0.59011   0.00000  Uiso   1.00
C986   C     0.08034   0.47443   0.93760   0.00000  Uiso   1.00
C987   C     0.07414   0.45544   0.98739   0.00000  Uiso   1.00
C988   C     0.11252   0.45591   0.50820   0.00000  Uiso   1.00
H989   H     0.28121   0.52223   0.57817   0.00000  Uiso   1.00
H990   H     0.22570   0.37087   0.78151   0.00000  Uiso   1.00
H991   H     0.10719   0.37130   0.71972   0.00000  Uiso   1.00
H992   H     0.10703   0.62921   0.71986   0.00000  Uiso   1.00
H993   H     0.30230   0.43968   0.71513   0.00000  Uiso   1.00
H994   H     0.05296   0.43978   0.71492   0.00000  Uiso   1.00
H995   H     0.28033   0.56054   0.78347   0.00000  Uiso   1.00
H996   H     0.26042   0.55716   0.91673   0.00000  Uiso   1.00
H997   H     0.29722   0.53868   0.98350   0.00000  Uiso   1.00
H998   H     0.14078   0.48012   0.59084   0.00000  Uiso   1.00
H999   H     0.19472   0.55366   0.88292   0.00000  Uiso   1.00
H1000  H     0.22537   0.62866   0.78191   0.00000  Uiso   1.00
N1001  N     0.04760   0.50001   0.75002   0.00000  Uiso   1.00
N1002  N     0.28573   0.49998   0.75001   0.00000  Uiso   1.00
O1003  O     0.12846   0.56108   0.75001   0.00000  Uiso   1.00
O1004  O     0.20490   0.56107   0.75001   0.00000  Uiso   1.00
O1005  O     0.10947   0.50000   0.82681   0.00000  Uiso   1.00
O1006  O     0.18591   0.49999   0.82681   0.00000  Uiso   1.00
O1007  O     0.12843   0.43893   0.75000   0.00000  Uiso   1.00
O1008  O     0.20488   0.43892   0.75000   0.00000  Uiso   1.00
O1009  O     0.14742   0.50001   0.67319   0.00000  Uiso   1.00
O1010  O     0.22387   0.50000   0.67319   0.00000  Uiso   1.00
Zn1011 Zn    0.11562   0.50001   0.75000   0.00000  Uiso   1.00
Zn1012 Zn    0.21771   0.49999   0.75000   0.00000  Uiso   1.00
O1013  O     0.03674   0.56924   0.78406   0.00000  Uiso   1.00
C1014  C     0.01452   0.57737   0.83930   0.00000  Uiso   1.00
H1015  H     0.01096   0.54835   0.86352   0.00000  Uiso   1.00
H1016  H     0.31203   0.59192   0.84621   0.00000  Uiso   1.00
C1017  C     0.04525   0.60825   0.85745   0.00000  Uiso   1.00
H1018  H     0.08156   0.59461   0.85010   0.00000  Uiso   1.00
H1019  H     0.04920   0.63738   0.83379   0.00000  Uiso   1.00
C1020  C     0.02293   0.61881   0.91697   0.00000  Uiso   1.00
H1021  H     0.31892   0.63062   0.92623   0.00000  Uiso   1.00
H1022  H     0.04451   0.64331   0.92781   0.00000  Uiso   1.00
H1023  H     0.02272   0.59071   0.94142   0.00000  Uiso   1.00
O1024  O     0.04371   0.47353   0.91585   0.00000  Uiso   1.00
C1025  C     0.04278   0.43430   0.89144   0.00000  Uiso   1.00
H1026  H     0.03963   0.40795   0.91952   0.00000  Uiso   1.00
H1027  H     0.07603   0.42931   0.85641   0.00000  Uiso   1.00
C1028  C     0.33258   0.43349   0.87267   0.00000  Uiso   1.00
H1029  H     0.29916   0.43633   0.90805   0.00000  Uiso   1.00
H1030  H     0.00065   0.46056   0.84622   0.00000  Uiso   1.00
C1031  C     0.33092   0.39331   0.84231   0.00000  Uiso   1.00
H1032  H     0.03084   0.38963   0.80700   0.00000  Uiso   1.00
H1033  H     0.29963   0.39436   0.82810   0.00000  Uiso   1.00
H1034  H     0.32706   0.36604   0.86910   0.00000  Uiso   1.00
C1035  C     0.11498   0.42365   0.54740   0.00000  Uiso   1.00
H1036  H     0.14818   0.40631   0.54051   0.00000  Uiso   1.00
O1037  O     0.08164   0.41835   0.58914   0.00000  Uiso   1.00
C1038  C     0.02777   0.43426   0.51495   0.00000  Uiso   1.00
H1039  H     0.32781   0.44891   0.51537   0.00000  Uiso   1.00
O1040  O     0.02628   0.39932   0.53355   0.00000  Uiso   1.00
C1041  C     0.49986   0.58001   0.75023   0.00000  Uiso   1.00
C1042  C     0.48476   0.48438   0.98633   0.00000  Uiso   1.00
C1043  C     0.48906   0.50493   0.93791   0.00000  Uiso   1.00
C1044  C     0.51944   0.49410   0.51107   0.00000  Uiso   1.00
C1045  C     0.56164   0.51640   0.98285   0.00000  Uiso   1.00
C1046  C     0.56452   0.53635   0.93566   0.00000  Uiso   1.00
C1047  C     0.52686   0.53354   0.91609   0.00000  Uiso   1.00
C1048  C     0.50979   0.48840   0.56562   0.00000  Uiso   1.00
C1049  C     0.58824   0.51413   0.55959   0.00000  Uiso   1.00
C1050  C     0.45660   0.49590   0.91093   0.00000  Uiso   1.00
C1051  C     0.53305   0.64517   0.76802   0.00000  Uiso   1.00
C1052  C     0.47324   0.50054   0.85223   0.00000  Uiso   1.00
C1053  C     0.53326   0.35458   0.76781   0.00000  Uiso   1.00
C1054  C     0.49990   0.37585   0.75046   0.00000  Uiso   1.00
C1055  C     0.46622   0.35484   0.73356   0.00000  Uiso   1.00
C1056  C     0.46612   0.64546   0.73362   0.00000  Uiso   1.00
C1057  C     0.49960   0.62416   0.75072   0.00000  Uiso   1.00
C1058  C     0.64878   0.46650   0.73071   0.00000  Uiso   1.00
C1059  C     0.36335   0.46654   0.73062   0.00000  Uiso   1.00
C1060  C     0.35125   0.53367   0.76954   0.00000  Uiso   1.00
C1061  C     0.63655   0.53353   0.76921   0.00000  Uiso   1.00
C1062  C     0.50002   0.41999   0.75012   0.00000  Uiso   1.00
C1063  C     0.52656   0.49940   0.64818   0.00000  Uiso   1.00
C1064  C     0.59735   0.52333   0.50582   0.00000  Uiso   1.00
C1065  C     0.54298   0.49926   0.59011   0.00000  Uiso   1.00
C1066  C     0.41368   0.47443   0.93760   0.00000  Uiso   1.00
C1067  C     0.40747   0.45544   0.98739   0.00000  Uiso   1.00
C1068  C     0.44586   0.45591   0.50820   0.00000  Uiso   1.00
H1069  H     0.61454   0.52223   0.57817   0.00000  Uiso   1.00
H1070  H     0.55903   0.37087   0.78151   0.00000  Uiso   1.00
H1071  H     0.44052   0.37130   0.71972   0.00000  Uiso   1.00
H1072  H     0.44036   0.62921   0.71986   0.00000  Uiso   1.00
H1073  H     0.63563   0.43968   0.71513   0.00000  Uiso   1.00
H1074  H     0.38629   0.43978   0.71492   0.00000  Uiso   1.00
H1075  H     0.61366   0.56054   0.78347   0.00000  Uiso   1.00
H1076  H     0.59375   0.55716   0.91673   0.00000  Uiso   1.00
H1077  H     0.63055   0.53868   0.98350   0.00000  Uiso   1.00
H1078  H     0.47412   0.48012   0.59084   0.00000  Uiso   1.00
H1079  H     0.52805   0.55366   0.88292   0.00000  Uiso   1.00
H1080  H     0.55870   0.62866   0.78191   0.00000  Uiso   1.00
N1081  N     0.38093   0.50001   0.75002   0.00000  Uiso   1.00
N1082  N     0.61906   0.49998   0.75001   0.00000  Uiso   1.00
O1083  O     0.46179   0.56108   0.75001   0.00000  Uiso   1.00
O1084  O     0.53823   0.56107   0.75001   0.00000  Uiso   1.00
O1085  O     0.44280   0.50000   0.82681   0.00000  Uiso   1.00
O1086  O     0.51924   0.49999   0.82681   0.00000  Uiso   1.00
O1087  O     0.46177   0.43893   0.75000   0.00000  Uiso   1.00
O1088  O     0.53821   0.43892   0.75000   0.00000  Uiso   1.00
O1089  O     0.48076   0.50001   0.67319   0.00000  Uiso   1.00
O1090  O     0.55720   0.50000   0.67319   0.00000  Uiso   1.00
Zn1091 Zn    0.44896   0.50001   0.75000   0.00000  Uiso   1.00
Zn1092 Zn    0.55104   0.49999   0.75000   0.00000  Uiso   1.00
O1093  O     0.37008   0.56924   0.78406   0.00000  Uiso   1.00
C1094  C     0.34785   0.57737   0.83930   0.00000  Uiso   1.00
H1095  H     0.34429   0.54835   0.86352   0.00000  Uiso   1.00
H1096  H     0.64536   0.59192   0.84621   0.00000  Uiso   1.00
C1097  C     0.37859   0.60825   0.85745   0.00000  Uiso   1.00
H1098  H     0.41489   0.59461   0.85010   0.00000  Uiso   1.00
H1099  H     0.38253   0.63738   0.83379   0.00000  Uiso   1.00
C1100  C     0.35627   0.61881   0.91697   0.00000  Uiso   1.00
H1101  H     0.65226   0.63062   0.92623   0.00000  Uiso   1.00
H1102  H     0.37784   0.64331   0.92781   0.00000  Uiso   1.00
H1103  H     0.35606   0.59071   0.94142   0.00000  Uiso   1.00
O1104  O     0.37704   0.47353   0.91585   0.00000  Uiso   1.00
C1105  C     0.37611   0.43430   0.89144   0.00000  Uiso   1.00
H1106  H     0.37297   0.40795   0.91952   0.00000  Uiso   1.00
H1107  H     0.40937   0.42931   0.85641   0.00000  Uiso   1.00
C1108  C     0.66591   0.43349   0.87267   0.00000  Uiso   1.00
H1109  H     0.63249   0.43633   0.90805   0.00000  Uiso   1.00
H1110  H     0.33399   0.46056   0.84622   0.00000  Uiso   1.00
C1111  C     0.66425   0.39331   0.84231   0.00000  Uiso   1.00
H1112  H     0.36417   0.38963   0.80700   0.00000  Uiso   1.00
H1113  H     0.63296   0.39436   0.82810   0.00000  Uiso   1.00
H1114  H     0.66039   0.36604   0.86910   0.00000  Uiso   1.00
C1115  C     0.44831   0.42365   0.54740   0.00000  Uiso   1.00
H1116  H     0.48152   0.40631   0.54051   0.00000  Uiso   1.00
O1117  O     0.41497   0.41835   0.58914   0.00000  Uiso   1.00
C1118  C     0.36110   0.43426   0.51495   0.00000  Uiso   1.00
H1119  H     0.66114   0.44891   0.51537   0.00000  Uiso   1.00
O1120  O     0.35961   0.39932   0.53355   0.00000  Uiso   1.00
C1121  C     0.83319   0.58001   0.75023   0.00000  Uiso   1.00
C1122  C     0.81809   0.48438   0.98633   0.00000  Uiso   1.00
C1123  C     0.82240   0.50493   0.93791   0.00000  Uiso   1.00
C1124  C     0.85277   0.49410   0.51107   0.00000  Uiso   1.00
C1125  C     0.89498   0.51640   0.98285   0.00000  Uiso   1.00
C1126  C     0.89785   0.53635   0.93566   0.00000  Uiso   1.00
C1127  C     0.86019   0.53354   0.91609   0.00000  Uiso   1.00
C1128  C     0.84312   0.48840   0.56562   0.00000  Uiso   1.00
C1129  C     0.92157   0.51413   0.55959   0.00000  Uiso   1.00
C1130  C     0.78994   0.49590   0.91093   0.00000  Uiso   1.00
C1131  C     0.86639   0.64517   0.76802   0.00000  Uiso   1.00
C1132  C     0.80658   0.50054   0.85223   0.00000  Uiso   1.00
C1133  C     0.86659   0.35458   0.76781   0.00000  Uiso   1.00
C1134  C     0.83324   0.37585   0.75046   0.00000  Uiso   1.00
C1135  C     0.79956   0.35484   0.73356   0.00000  Uiso   1.00
C1136  C     0.79945   0.64546   0.73362   0.00000  Uiso   1.00
C1137  C     0.83293   0.62416   0.75072   0.00000  Uiso   1.00
C1138  C     0.98211   0.46650   0.73071   0.00000  Uiso   1.00
C1139  C     0.69668   0.46654   0.73062   0.00000  Uiso   1.00
C1140  C     0.68458   0.53367   0.76954   0.00000  Uiso   1.00
C1141  C     0.96988   0.53353   0.76921   0.00000  Uiso   1.00
C1142  C     0.83336   0.41999   0.75012   0.00000  Uiso   1.00
C1143  C     0.85989   0.49940   0.64818   0.00000  Uiso   1.00
C1144  C     0.93069   0.52333   0.50582   0.00000  Uiso   1.00
C1145  C     0.87631   0.49926   0.59011   0.00000  Uiso   1.00
C1146  C     0.74701   0.47443   0.93760   0.00000  Uiso   1.00
C1147  C     0.74080   0.45544   0.98739   0.00000  Uiso   1.00
C1148  C     0.77919   0.45591   0.50820   0.00000  Uiso   1.00
H1149  H     0.94788   0.52223   0.57817   0.00000  Uiso   1.00
H1150  H     0.89237   0.37087   0.78151   0.00000  Uiso   1.00
H1151  H     0.77385   0.37130   0.71972   0.00000  Uiso   1.00
H1152  H     0.77370   0.62921   0.71986   0.00000  Uiso   1.00
H1153  H     0.96897   0.43968   0.71513   0.00000  Uiso   1.00
H1154  H     0.71962   0.43978   0.71492   0.00000  Uiso   1.00
H1155  H     0.94699   0.56054   0.78347   0.00000  Uiso   1.00
H1156  H     0.92708   0.55716   0.91673   0.00000  Uiso   1.00
H1157  H     0.96389   0.53868   0.98350   0.00000  Uiso   1.00
H1158  H     0.80745   0.48012   0.59084   0.00000  Uiso   1.00
H1159  H     0.86138   0.55366   0.88292   0.00000  Uiso   1.00
H1160  H     0.89204   0.62866   0.78191   0.00000  Uiso   1.00
N1161  N     0.71426   0.50001   0.75002   0.00000  Uiso   1.00
N1162  N     0.95239   0.49998   0.75001   0.00000  Uiso   1.00
O1163  O     0.79512   0.56108   0.75001   0.00000  Uiso   1.00
O1164  O     0.87157   0.56107   0.75001   0.00000  Uiso   1.00
O1165  O     0.77613   0.50000   0.82681   0.00000  Uiso   1.00
O1166  O     0.85258   0.49999   0.82681   0.00000  Uiso   1.00
O1167  O     0.79510   0.43893   0.75000   0.00000  Uiso   1.00
O1168  O     0.87154   0.43892   0.75000   0.00000  Uiso   1.00
O1169  O     0.81409   0.50001   0.67319   0.00000  Uiso   1.00
O1170  O     0.89053   0.50000   0.67319   0.00000  Uiso   1.00
Zn1171 Zn    0.78229   0.50001   0.75000   0.00000  Uiso   1.00
Zn1172 Zn    0.88438   0.49999   0.75000   0.00000  Uiso   1.00
O1173  O     0.70341   0.56924   0.78406   0.00000  Uiso   1.00
C1174  C     0.68119   0.57737   0.83930   0.00000  Uiso   1.00
H1175  H     0.67762   0.54835   0.86352   0.00000  Uiso   1.00
H1176  H     0.97870   0.59192   0.84621   0.00000  Uiso   1.00
C1177  C     0.71192   0.60825   0.85745   0.00000  Uiso   1.00
H1178  H     0.74823   0.59461   0.85010   0.00000  Uiso   1.00
H1179  H     0.71587   0.63738   0.83379   0.00000  Uiso   1.00
C1180  C     0.68960   0.61881   0.91697   0.00000  Uiso   1.00
H1181  H     0.98559   0.63062   0.92623   0.00000  Uiso   1.00
H1182  H     0.71117   0.64331   0.92781   0.00000  Uiso   1.00
H1183  H     0.68939   0.59071   0.94142   0.00000  Uiso   1.00
O1184  O     0.71038   0.47353   0.91585   0.00000  Uiso   1.00
C1185  C     0.70944   0.43430   0.89144   0.00000  Uiso   1.00
H1186  H     0.70630   0.40795   0.91952   0.00000  Uiso   1.00
H1187  H     0.74270   0.42931   0.85641   0.00000  Uiso   1.00
C1188  C     0.99925   0.43349   0.87267   0.00000  Uiso   1.00
H1189  H     0.96583   0.43633   0.90805   0.00000  Uiso   1.00
H1190  H     0.66732   0.46056   0.84622   0.00000  Uiso   1.00
C1191  C     0.99759   0.39331   0.84231   0.00000  Uiso   1.00
H1192  H     0.69751   0.38963   0.80700   0.00000  Uiso   1.00
H1193  H     0.96629   0.39436   0.82810   0.00000  Uiso   1.00
H1194  H     0.99372   0.36604   0.86910   0.00000  Uiso   1.00
C1195  C     0.78164   0.42365   0.54740   0.00000  Uiso   1.00
H1196  H     0.81485   0.40631   0.54051   0.00000  Uiso   1.00
O1197  O     0.74830   0.41835   0.58914   0.00000  Uiso   1.00
C1198  C     0.69444   0.43426   0.51495   0.00000  Uiso   1.00
H1199  H     0.99448   0.44891   0.51537   0.00000  Uiso   1.00
O1200  O     0.69295   0.39932   0.53355   0.00000  Uiso   1.00
C1201  C     0.16652   0.91334   0.75023   0.00000  Uiso   1.00
C1202  C     0.15142   0.81772   0.98633   0.00000  Uiso   1.00
C1203  C     0.15573   0.83826   0.93791   0.00000  Uiso   1.00
C1204  C     0.18610   0.82743   0.51107   0.00000  Uiso   1.00
C1205  C     0.22831   0.84973   0.98285   0.00000  Uiso   1.00
C1206  C     0.23119   0.86968   0.93566   0.00000  Uiso   1.00
C1207  C     0.19352   0.86688   0.91609   0.00000  Uiso   1.00
C1208  C     0.17645   0.82174   0.56562   0.00000  Uiso   1.00
C1209  C     0.25491   0.84747   0.55959   0.00000  Uiso   1.00
C1210  C     0.12327   0.82923   0.91093   0.00000  Uiso   1.00
C1211  C     0.19972   0.97850   0.76802   0.00000  Uiso   1.00
C1212  C     0.13991   0.83387   0.85223   0.00000  Uiso   1.00
C1213  C     0.19992   0.68791   0.76781   0.00000  Uiso   1.00
C1214  C     0.16657   0.70919   0.75046   0.00000  Uiso   1.00
C1215  C     0.13289   0.68817   0.73356   0.00000  Uiso   1.00
C1216  C     0.13279   0.97879   0.73362   0.00000  Uiso   1.00
C1217  C     0.16627   0.95749   0.75072   0.00000  Uiso   1.00
C1218  C     0.31544   0.79984   0.73071   0.00000  Uiso   1.00
C1219  C     0.03001   0.79988   0.73062   0.00000  Uiso   1.00
C1220  C     0.01792   0.86700   0.76954   0.00000  Uiso   1.00
C1221  C     0.30321   0.86686   0.76921   0.00000  Uiso   1.00
C1222  C     0.16669   0.75333   0.75012   0.00000  Uiso   1.00
C1223  C     0.19322   0.83274   0.64818   0.00000  Uiso   1.00
C1224  C     0.26402   0.85667   0.50582   0.00000  Uiso   1.00
C1225  C     0.20964   0.83259   0.59011   0.00000  Uiso   1.00
C1226  C     0.08034   0.80776   0.93760   0.00000  Uiso   1.00
C1227  C     0.07414   0.78878   0.98739   0.00000  Uiso   1.00
C1228  C     0.11252   0.78924   0.50820   0.00000  Uiso   1.00
H1229  H     0.28121   0.85556   0.57817   0.00000  Uiso   1.00
H1230  H     0.22570   0.70421   0.78151   0.00000  Uiso   1.00
H1231  H     0.10719   0.70463   0.71972   0.00000  Uiso   1.00
H1232  H     0.10703   0.96254   0.71986   0.00000  Uiso   1.00
H1233  H     0.30230   0.77302   0.71513   0.00000  Uiso   1.00
H1234  H     0.05296   0.77312   0.71492   0.00000  Uiso   1.00
H1235  H     0.28033   0.89388   0.78347   0.00000  Uiso   1.00
H1236  H     0.26042   0.89050   0.91673   0.00000  Uiso   1.00
H1237  H     0.29722   0.87202   0.98350   0.00000  Uiso   1.00
H1238  H     0.14078   0.81345   0.59084   0.00000  Uiso   1.00
H1239  H     0.19472   0.88700   0.88292   0.00000  Uiso   1.00
H1240  H     0.22537   0.96200   0.78191   0.00000  Uiso   1.00
N1241  N     0.04760   0.83334   0.75002   0.00000  Uiso   1.00
N1242  N     0.28573   0.83331   0.75001   0.00000  Uiso   1.00
O1243  O     0.12846   0.89442   0.75001   0.00000  Uiso   1.00
O1244  O     0.20490   0.89441   0.75001   0.00000  Uiso   1.00
O1245  O     0.10947   0.83333   0.82681   0.00000  Uiso   1.00
O1246  O     0.18591   0.83332   0.82681   0.00000  Uiso   1.00
O1247  O     0.12843   0.77226   0.75000   0.00000  Uiso   1.00
O1248  O     0.20488   0.77225   0.75000   0.00000  Uiso   1.00
O1249  O     0.14742   0.83335   0.67319   0.00000  Uiso   1.00
O1250  O     0.22387   0.83334   0.67319   0.00000  Uiso   1.00
Zn1251 Zn    0.11562   0.83334   0.75000   0.00000  Uiso   1.00
Zn1252 Zn    0.21771   0.83333   0.75000   0.00000  Uiso   1.00
O1253  O     0.03674   0.90257   0.78406   0.00000  Uiso   1.00
C1254  C     0.01452   0.91070   0.83930   0.00000  Uiso   1.00
H1255  H     0.01096   0.88168   0.86352   0.00000  Uiso   1.00
H1256  H     0.31203   0.92525   0.84621   0.00000  Uiso   1.00
C1257  C     0.04525   0.94158   0.85745   0.00000  Uiso   1.00
H1258  H     0.08156   0.92795   0.85010   0.00000  Uiso   1.00
H1259  H     0.04920   0.97072   0.83379   0.00000  Uiso   1.00
C1260  C     0.02293   0.95214   0.91697   0.00000  Uiso   1.00
H1261  H     0.31892   0.96395   0.92623   0.00000  Uiso   1.00
H1262  H     0.04451   0.97664   0.92781   0.00000  Uiso   1.00
H1263  H     0.02272   0.92405   0.94142   0.00000  Uiso   1.00
O1264  O     0.04371   0.80686   0.91585   0.00000  Uiso   1.00
C1265  C     0.04278   0.76764   0.89144   0.00000  Uiso   1.00
H1266  H     0.03963   0.74128   0.91952   0.00000  Uiso   1.00
H1267  H     0.07603   0.76264   0.85641   0.00000  Uiso   1.00
C1268  C     0.33258   0.76682   0.87267   0.00000  Uiso   1.00
H1269  H     0.29916   0.76966   0.90805   0.00000  Uiso   1.00
H1270  H     0.00065   0.79390   0.84622   0.00000  Uiso   1.00
C1271  C     0.33092   0.72664   0.84231   0.00000  Uiso   1.00
H1272  H     0.03084   0.72296   0.80700   0.00000  Uiso   1.00
H1273  H     0.29963   0.72770   0.82810   0.00000  Uiso   1.00
H1274  H     0.32706   0.69937   0.86910   0.00000  Uiso   1.00
C1275  C     0.11498   0.75698   0.54740   0.00000  Uiso   1.00
H1276  H     0.14818   0.73965   0.54051   0.00000  Uiso   1.00
O1277  O     0.08164   0.75168   0.58914   0.00000  Uiso   1.00
C1278  C     0.02777   0.76759   0.51495   0.00000  Uiso   1.00
H1279  H     0.32781   0.78224   0.51537   0.00000  Uiso   1.00
O1280  O     0.02628   0.73266   0.53355   0.00000  Uiso   1.00
C1281  C     0.49986   0.91334   0.75023   0.00000  Uiso   1.00
C1282  C     0.48476   0.81772   0.98633   0.00000  Uiso   1.00
C1283  C     0.48906   0.83826   0.93791   0.00000  Uiso   1.00
C1284  C     0.51944   0.82743   0.51107   0.00000  Uiso   1.00
C1285  C     0.56164   0.84973   0.98285   0.00000  Uiso   1.00
C1286  C     0.56452   0.86968   0.93566   0.00000  Uiso   1.00
C1287  C     0.52686   0.86688   0.91609   0.00000  Uiso   1.00
C1288  C     0.50979   0.82174   0.56562   0.00000  Uiso   1.00
C1289  C     0.58824   0.84747   0.55959   0.00000  Uiso   1.00
C1290  C     0.45660   0.82923   0.91093   0.00000  Uiso   1.00
C1291  C     0.53305   0.97850   0.76802   0.00000  Uiso   1.00
C1292  C     0.47324   0.83387   0.85223   0.00000  Uiso   1.00
C1293  C     0.53326   0.68791   0.76781   0.00000  Uiso   1.00
C1294  C     0.49990   0.70919   0.75046   0.00000  Uiso   1.00
C1295  C     0.46622   0.68817   0.73356   0.00000  Uiso   1.00
C1296  C     0.46612   0.97879   0.73362   0.00000  Uiso   1.00
C1297  C     0.49960   0.95749   0.75072   0.00000  Uiso   1.00
C1298  C     0.64878   0.79984   0.73071   0.00000  Uiso   1.00
C1299  C     0.36335   0.79988   0.73062   0.00000  Uiso   1.00
C1300  C     0.35125   0.86700   0.76954   0.00000  Uiso   1.00
C1301  C     0.63655   0.86686   0.76921   0.00000  Uiso   1.00
C1302  C     0.50002   0.75333   0.75012   0.00000  Uiso   1.00
C1303  C     0.52656   0.83274   0.64818   0.00000  Uiso   1.00
C1304  C     0.59735   0.85667   0.50582   0.00000  Uiso   1.00
C1305  C     0.54298   0.83259   0.59011   0.00000  Uiso   1.00
C1306  C     0.41368   0.80776   0.93760   0.00000  Uiso   1.00
C1307  C     0.40747   0.78878   0.98739   0.00000  Uiso   1.00
C1308  C     0.44586   0.78924   0.50820   0.00000  Uiso   1.00
H1309  H     0.61454   0.85556   0.57817   0.00000  Uiso   1.00
H1310  H     0.55903   0.70421   0.78151   0.00000  Uiso   1.00
H1311  H     0.44052   0.70463   0.71972   0.00000  Uiso   1.00
H1312  H     0.44036   0.96254   0.71986   0.00000  Uiso   1.00
H1313  H     0.63563   0.77302   0.71513   0.00000  Uiso   1.00
H1314  H     0.38629   0.77312   0.71492   0.00000  Uiso   1.00
H1315  H     0.61366   0.89388   0.78347   0.00000  Uiso   1.00
H1316  H     0.59375   0.89050   0.91673   0.00000  Uiso   1.00
H1317  H     0.63055   0.87202   0.98350   0.00000  Uiso   1.00
H1318  H     0.47412   0.81345   0.59084   0.00000  Uiso   1.00
H1319  H     0.52805   0.88700   0.88292   0.00000  Uiso   1.00
H1320  H     0.55870   0.96200   0.78191   0.00000  Uiso   1.00
N1321  N     0.38093   0.83334   0.75002   0.00000  Uiso   1.00
N1322  N     0.61906   0.83331   0.75001   0.00000  Uiso   1.00
O1323  O     0.46179   0.89442   0.75001   0.00000  Uiso   1.00
O1324  O     0.53823   0.89441   0.75001   0.00000  Uiso   1.00
O1325  O     0.44280   0.83333   0.82681   0.00000  Uiso   1.00
O1326  O     0.51924   0.83332   0.82681   0.00000  Uiso   1.00
O1327  O     0.46177   0.77226   0.75000   0.00000  Uiso   1.00
O1328  O     0.53821   0.77225   0.75000   0.00000  Uiso   1.00
O1329  O     0.48076   0.83335   0.67319   0.00000  Uiso   1.00
O1330  O     0.55720   0.83334   0.67319   0.00000  Uiso   1.00
Zn1331 Zn    0.44896   0.83334   0.75000   0.00000  Uiso   1.00
Zn1332 Zn    0.55104   0.83333   0.75000   0.00000  Uiso   1.00
O1333  O     0.37008   0.90257   0.78406   0.00000  Uiso   1.00
C1334  C     0.34785   0.91070   0.83930   0.00000  Uiso   1.00
H1335  H     0.34429   0.88168   0.86352   0.00000  Uiso   1.00
H1336  H     0.64536   0.92525   0.84621   0.00000  Uiso   1.00
C1337  C     0.37859   0.94158   0.85745   0.00000  Uiso   1.00
H1338  H     0.41489   0.92795   0.85010   0.00000  Uiso   1.00
H1339  H     0.38253   0.97072   0.83379   0.00000  Uiso   1.00
C1340  C     0.35627   0.95214   0.91697   0.00000  Uiso   1.00
H1341  H     0.65226   0.96395   0.92623   0.00000  Uiso   1.00
H1342  H     0.37784   0.97664   0.92781   0.00000  Uiso   1.00
H1343  H     0.35606   0.92405   0.94142   0.00000  Uiso   1.00
O1344  O     0.37704   0.80686   0.91585   0.00000  Uiso   1.00
C1345  C     0.37611   0.76764   0.89144   0.00000  Uiso   1.00
H1346  H     0.37297   0.74128   0.91952   0.00000  Uiso   1.00
H1347  H     0.40937   0.76264   0.85641   0.00000  Uiso   1.00
C1348  C     0.66591   0.76682   0.87267   0.00000  Uiso   1.00
H1349  H     0.63249   0.76966   0.90805   0.00000  Uiso   1.00
H1350  H     0.33399   0.79390   0.84622   0.00000  Uiso   1.00
C1351  C     0.66425   0.72664   0.84231   0.00000  Uiso   1.00
H1352  H     0.36417   0.72296   0.80700   0.00000  Uiso   1.00
H1353  H     0.63296   0.72770   0.82810   0.00000  Uiso   1.00
H1354  H     0.66039   0.69937   0.86910   0.00000  Uiso   1.00
C1355  C     0.44831   0.75698   0.54740   0.00000  Uiso   1.00
H1356  H     0.48152   0.73965   0.54051   0.00000  Uiso   1.00
O1357  O     0.41497   0.75168   0.58914   0.00000  Uiso   1.00
C1358  C     0.36110   0.76759   0.51495   0.00000  Uiso   1.00
H1359  H     0.66114   0.78224   0.51537   0.00000  Uiso   1.00
O1360  O     0.35961   0.73266   0.53355   0.00000  Uiso   1.00
C1361  C     0.83319   0.91334   0.75023   0.00000  Uiso   1.00
C1362  C     0.81809   0.81772   0.98633   0.00000  Uiso   1.00
C1363  C     0.82240   0.83826   0.93791   0.00000  Uiso   1.00
C1364  C     0.85277   0.82743   0.51107   0.00000  Uiso   1.00
C1365  C     0.89498   0.84973   0.98285   0.00000  Uiso   1.00
C1366  C     0.89785   0.86968   0.93566   0.00000  Uiso   1.00
C1367  C     0.86019   0.86688   0.91609   0.00000  Uiso   1.00
C1368  C     0.84312   0.82174   0.56562   0.00000  Uiso   1.00
C1369  C     0.92157   0.84747   0.55959   0.00000  Uiso   1.00
C1370  C     0.78994   0.82923   0.91093   0.00000  Uiso   1.00
C1371  C     0.86639   0.97850   0.76802   0.00000  Uiso   1.00
C1372  C     0.80658   0.83387   0.85223   0.00000  Uiso   1.00
C1373  C     0.86659   0.68791   0.76781   0.00000  Uiso   1.00
C1374  C     0.83324   0.70919   0.75046   0.00000  Uiso   1.00
C1375  C     0.79956   0.68817   0.73356   0.00000  Uiso   1.00
C1376  C     0.79945   0.97879   0.73362   0.00000  Uiso   1.00
C1377  C     0.83293   0.95749   0.75072   0.00000  Uiso   1.00
C1378  C     0.98211   0.79984   0.73071   0.00000  Uiso   1.00
C1379  C     0.69668   0.79988   0.73062   0.00000  Uiso   1.00
C1380  C     0.68458   0.86700   0.76954   0.00000  Uiso   1.00
C1381  C     0.96988   0.86686   0.76921   0.00000  Uiso   1.00
C1382  C     0.83336   0.75333   0.75012   0.00000  Uiso   1.00
C1383  C     0.85989   0.83274   0.64818   0.00000  Uiso   1.00
C1384  C     0.93069   0.85667   0.50582   0.00000  Uiso   1.00
C1385  C     0.87631   0.83259   0.59011   0.00000  Uiso   1.00
C1386  C     0.74701   0.80776   0.93760   0.00000  Uiso   1.00
C1387  C     0.74080   0.78878   0.98739   0.00000  Uiso   1.00
C1388  C     0.77919   0.78924   0.50820   0.00000  Uiso   1.00
H1389  H     0.94788   0.85556   0.57817   0.00000  Uiso   1.00
H1390  H     0.89237   0.70421   0.78151   0.00000  Uiso   1.00
H1391  H     0.77385   0.70463   0.71972   0.00000  Uiso   1.00
H1392  H     0.77370   0.96254   0.71986   0.00000  Uiso   1.00
H1393  H     0.96897   0.77302   0.71513   0.00000  Uiso   1.00
H1394  H     0.71962   0.77312   0.71492   0.00000  Uiso   1.00
H1395  H     0.94699   0.89388   0.78347   0.00000  Uiso   1.00
H1396  H     0.92708   0.89050   0.91673   0.00000  Uiso   1.00
H1397  H     0.96389   0.87202   0.98350   0.00000  Uiso   1.00
H1398  H     0.80745   0.81345   0.59084   0.00000  Uiso   1.00
H1399  H     0.86138   0.88700   0.88292   0.00000  Uiso   1.00
H1400  H     0.89204   0.96200   0.78191   0.00000  Uiso   1.00
N1401  N     0.71426   0.83334   0.75002   0.00000  Uiso   1.00
N1402  N     0.95239   0.83331   0.75001   0.00000  Uiso   1.00
O1403  O     0.79512   0.89442   0.75001   0.00000  Uiso   1.00
O1404  O     0.87157   0.89441   0.75001   0.00000  Uiso   1.00
O1405  O     0.77613   0.83333   0.82681   0.00000  Uiso   1.00
O1406  O     0.85258   0.83332   0.82681   0.00000  Uiso   1.00
O1407  O     0.79510   0.77226   0.75000   0.00000  Uiso   1.00
O1408  O     0.87154   0.77225   0.75000   0.00000  Uiso   1.00
O1409  O     0.81409   0.83335   0.67319   0.00000  Uiso   1.00
O1410  O     0.89053   0.83334   0.67319   0.00000  Uiso   1.00
Zn1411 Zn    0.78229   0.83334   0.75000   0.00000  Uiso   1.00
Zn1412 Zn    0.88438   0.83333   0.75000   0.00000  Uiso   1.00
O1413  O     0.70341   0.90257   0.78406   0.00000  Uiso   1.00
C1414  C     0.68119   0.91070   0.83930   0.00000  Uiso   1.00
H1415  H     0.67762   0.88168   0.86352   0.00000  Uiso   1.00
H1416  H     0.97870   0.92525   0.84621   0.00000  Uiso   1.00
C1417  C     0.71192   0.94158   0.85745   0.00000  Uiso   1.00
H1418  H     0.74823   0.92795   0.85010   0.00000  Uiso   1.00
H1419  H     0.71587   0.97072   0.83379   0.00000  Uiso   1.00
C1420  C     0.68960   0.95214   0.91697   0.00000  Uiso   1.00
H1421  H     0.98559   0.96395   0.92623   0.00000  Uiso   1.00
H1422  H     0.71117   0.97664   0.92781   0.00000  Uiso   1.00
H1423  H     0.68939   0.92405   0.94142   0.00000  Uiso   1.00
O1424  O     0.71038   0.80686   0.91585   0.00000  Uiso   1.00
C1425  C     0.70944   0.76764   0.89144   0.00000  Uiso   1.00
H1426  H     0.70630   0.74128   0.91952   0.00000  Uiso   1.00
H1427  H     0.74270   0.76264   0.85641   0.00000  Uiso   1.00
C1428  C     0.99925   0.76682   0.87267   0.00000  Uiso   1.00
H1429  H     0.96583   0.76966   0.90805   0.00000  Uiso   1.00
H1430  H     0.66732   0.79390   0.84622   0.00000  Uiso   1.00
C1431  C     0.99759   0.72664   0.84231   0.00000  Uiso   1.00
H1432  H     0.69751   0.72296   0.80700   0.00000  Uiso   1.00
H1433  H     0.96629   0.72770   0.82810   0.00000  Uiso   1.00
H1434  H     0.99372   0.69937   0.86910   0.00000  Uiso   1.00
C1435  C     0.78164   0.75698   0.54740   0.00000  Uiso   1.00
H1436  H     0.81485   0.73965   0.54051   0.00000  Uiso   1.00
O1437  O     0.74830   0.75168   0.58914   0.00000  Uiso   1.00
C1438  C     0.69444   0.76759   0.51495   0.00000  Uiso   1.00
H1439  H     0.99448   0.78224   0.51537   0.00000  Uiso   1.00
O1440  O     0.69295   0.73266   0.53355   0.00000  Uiso   1.00
loop_
_geom_bond_atom_site_label_1
_geom_bond_atom_site_label_2
_geom_bond_distance
_geom_bond_site_symmetry_2
_ccdc_geom_bond_type
C1     O43     1.284   .     A
C1     O44     1.282   .     A
C1     C17     1.415   .     S
C2     C3      1.411   .     A
C2     C724    1.425   .     S
C2     C748    1.435   .     S
C3     C7      1.416   .     A
C3     C10     1.407   .     A
C4     C8      1.388   .     A
C4     C722    1.425   1_554 S
C4     C725    1.419   1_554 S
C5     C6      1.383   .     A
C5     C724    1.419   .     S
C5     C744    1.403   .     S
C6     C7      1.381   .     A
C6     H36     1.077   .     S
C7     H39     1.083   .     S
C8     C25     1.391   .     A
C8     H38     1.076   .     S
C9     C25     1.397   .     A
C9     H29     1.083   .     S
C9     C24     1.390   .     A
C10    C26     1.412   .     A
C10    C12     1.472   .     S
C11    C17     1.397   .     A
C11    H40     1.084   .     S
C11    C253    1.370   .     S
C12    O46     1.298   .     A
C12    O45     1.293   .     A
C13    C14     1.396   .     A
C13    H30     1.084   .     S
C13    C491    1.370   1_545 S
C14    C22     1.415   .     S
C14    C15     1.397   .     A
C15    H31     1.084   .     S
C15    C496    1.369   1_545 S
C16    H32     1.084   .     S
C16    C17     1.395   .     A
C16    C255    1.369   .     S
C18    N42     1.366   .     A
C18    H33     1.081   .     S
C18    C99     1.415   .     S
C19    H34     1.081   .     S
C19    N41     1.366   .     A
C19    C178    1.415   1_455 S
C20    N41     1.371   .     A
C20    O53     1.381   .     S
C20    C181    1.423   1_455 S
C21    H35     1.081   .     S
C21    N42     1.365   .     A
C21    C100    1.423   .     S
C22    O48     1.284   .     A
C22    O47     1.281   .     A
C23    O49     1.291   .     A
C23    O50     1.290   .     A
C23    C25     1.448   .     S
C24    C725    1.403   1_554 S
C24    H757    1.083   1_554 S
C26    C27     1.409   .     A
C26    O64     1.388   .     S
C27    C748    1.419   .     S
C27    C798    1.488   .     S
C28    C75     1.487   .     S
C28    C722    1.435   1_554 S
C28    C747    1.419   1_554 S
H37    C744    1.083   .     S
N41    Zn51    2.011   .     S
N42    Zn52    2.011   .     S
O43    Zn51    1.996   .     S
O44    Zn52    1.992   .     S
O45    Zn51    1.980   .     S
O46    Zn52    1.932   .     S
O47    Zn51    1.992   .     S
O48    Zn52    1.996   .     S
O49    Zn51    1.932   .     S
O50    Zn52    1.980   .     S
O53    C54     1.409   .     S
C54    H55     1.117   .     S
C54    C57     1.529   .     S
C54    H216    1.111   1_455 S
H56    C134    1.111   .     S
C57    C60     1.525   .     S
C57    H58     1.111   .     S
C57    H59     1.111   .     S
C60    H63     1.110   .     S
C60    H62     1.111   .     S
C60    H221    1.111   1_455 S
H61    C140    1.111   .     S
O64    C65     1.416   .     S
C65    H67     1.111   .     S
C65    H66     1.111   .     S
C65    C228    1.528   1_455 S
C68    H69     1.112   .     S
C68    C71     1.525   .     S
C68    C145    1.528   .     S
C68    H150    1.109   .     S
H70    C228    1.109   1_455 S
C71    H73     1.110   .     S
C71    H74     1.110   .     S
C71    H152    1.110   .     S
H72    C231    1.110   1_455 S
C75    H76     1.085   .     S
C75    O77     1.221   .     D
C78    O80     1.220   .     D
C78    C747    1.488   1_554 S
C78    H239    1.085   1_455 S
H79    C158    1.085   .     S
C81    O123    1.284   .     A
C81    O124    1.282   .     A
C81    C97     1.415   .     S
C82    C83     1.411   .     A
C82    C804    1.425   .     S
C82    C828    1.435   .     S
C83    C87     1.416   .     A
C83    C90     1.407   .     A
C84    C88     1.388   .     A
C84    C802    1.425   1_554 S
C84    C805    1.419   1_554 S
C85    C86     1.383   .     A
C85    C804    1.419   .     S
C85    C824    1.403   .     S
C86    C87     1.381   .     A
C86    H116    1.077   .     S
C87    H119    1.083   .     S
C88    C105    1.391   .     A
C88    H118    1.076   .     S
C89    C105    1.397   .     A
C89    H109    1.083   .     S
C89    C104    1.390   .     A
C90    C106    1.412   .     A
C90    C92     1.472   .     S
C91    C97     1.397   .     A
C91    H120    1.084   .     S
C91    C333    1.370   .     S
C92    O126    1.298   .     A
C92    O125    1.293   .     A
C93    C94     1.396   .     A
C93    H110    1.084   .     S
C93    C571    1.370   1_545 S
C94    C102    1.415   .     S
C94    C95     1.397   .     A
C95    H111    1.084   .     S
C95    C576    1.369   1_545 S
C96    H112    1.084   .     S
C96    C97     1.395   .     A
C96    C335    1.369   .     S
C98    N122    1.366   .     A
C98    H113    1.081   .     S
C98    C179    1.415   .     S
C99    H114    1.081   .     S
C99    N121    1.366   .     A
C100   N121    1.371   .     A
C100   O133    1.381   .     S
C101   H115    1.081   .     S
C101   N122    1.365   .     A
C101   C180    1.423   .     S
C102   O128    1.284   .     A
C102   O127    1.281   .     A
C103   O129    1.291   .     A
C103   O130    1.290   .     A
C103   C105    1.448   .     S
C104   C805    1.403   1_554 S
C104   H837    1.083   1_554 S
C106   C107    1.409   .     A
C106   O144    1.388   .     S
C107   C828    1.419   .     S
C107   C878    1.488   .     S
C108   C155    1.487   .     S
C108   C802    1.435   1_554 S
C108   C827    1.419   1_554 S
H117   C824    1.083   .     S
N121   Zn131   2.011   .     S
N122   Zn132   2.011   .     S
O123   Zn131   1.996   .     S
O124   Zn132   1.992   .     S
O125   Zn131   1.980   .     S
O126   Zn132   1.932   .     S
O127   Zn131   1.992   .     S
O128   Zn132   1.996   .     S
O129   Zn131   1.932   .     S
O130   Zn132   1.980   .     S
O133   C134    1.409   .     S
C134   H135    1.117   .     S
C134   C137    1.529   .     S
H136   C214    1.111   .     S
C137   C140    1.525   .     S
C137   H138    1.111   .     S
C137   H139    1.111   .     S
C140   H143    1.110   .     S
C140   H142    1.111   .     S
H141   C220    1.111   .     S
O144   C145    1.416   .     S
C145   H147    1.111   .     S
C145   H146    1.111   .     S
C148   H149    1.112   .     S
C148   C151    1.525   .     S
C148   C225    1.528   .     S
C148   H230    1.109   .     S
C151   H153    1.110   .     S
C151   H154    1.110   .     S
C151   H232    1.110   .     S
C155   H156    1.085   .     S
C155   O157    1.221   .     D
C158   O160    1.220   .     D
C158   C827    1.488   1_554 S
H159   C238    1.085   .     S
C161   O203    1.284   .     A
C161   O204    1.282   .     A
C161   C177    1.415   .     S
C162   C163    1.411   .     A
C162   C884    1.425   .     S
C162   C908    1.435   .     S
C163   C167    1.416   .     A
C163   C170    1.407   .     A
C164   C168    1.388   .     A
C164   C882    1.425   1_554 S
C164   C885    1.419   1_554 S
C165   C166    1.383   .     A
C165   C884    1.419   .     S
C165   C904    1.403   .     S
C166   C167    1.381   .     A
C166   H196    1.077   .     S
C167   H199    1.083   .     S
C168   C185    1.391   .     A
C168   H198    1.076   .     S
C169   C185    1.397   .     A
C169   H189    1.083   .     S
C169   C184    1.390   .     A
C170   C186    1.412   .     A
C170   C172    1.472   .     S
C171   C177    1.397   .     A
C171   H200    1.084   .     S
C171   C413    1.370   .     S
C172   O206    1.298   .     A
C172   O205    1.293   .     A
C173   C174    1.396   .     A
C173   H190    1.084   .     S
C173   C651    1.370   1_545 S
C174   C182    1.415   .     S
C174   C175    1.397   .     A
C175   H191    1.084   .     S
C175   C656    1.369   1_545 S
C176   H192    1.084   .     S
C176   C177    1.395   .     A
C176   C415    1.369   .     S
C178   N202    1.366   .     A
C178   H193    1.081   .     S
C178   C19     1.415   1_655 S
C179   H194    1.081   .     S
C179   N201    1.366   .     A
C180   N201    1.371   .     A
C180   O213    1.381   .     S
C181   H195    1.081   .     S
C181   N202    1.365   .     A
C181   C20     1.423   1_655 S
C182   O208    1.284   .     A
C182   O207    1.281   .     A
C183   O209    1.291   .     A
C183   O210    1.290   .     A
C183   C185    1.448   .     S
C184   C885    1.403   1_554 S
C184   H917    1.083   1_554 S
C186   C187    1.409   .     A
C186   O224    1.388   .     S
C187   C908    1.419   .     S
C187   C958    1.488   .     S
C188   C235    1.487   .     S
C188   C882    1.435   1_554 S
C188   C907    1.419   1_554 S
H197   C904    1.083   .     S
N201   Zn211   2.011   .     S
N202   Zn212   2.011   .     S
O203   Zn211   1.996   .     S
O204   Zn212   1.992   .     S
O205   Zn211   1.980   .     S
O206   Zn212   1.932   .     S
O207   Zn211   1.992   .     S
O208   Zn212   1.996   .     S
O209   Zn211   1.932   .     S
O210   Zn212   1.980   .     S
O213   C214    1.409   .     S
C214   H215    1.117   .     S
C214   C217    1.529   .     S
H216   C54     1.111   1_655 S
C217   C220    1.525   .     S
C217   H218    1.111   .     S
C217   H219    1.111   .     S
C220   H223    1.110   .     S
C220   H222    1.111   .     S
H221   C60     1.111   1_655 S
O224   C225    1.416   .     S
C225   H227    1.111   .     S
C225   H226    1.111   .     S
C228   H229    1.112   .     S
C228   C231    1.525   .     S
C228   C65     1.528   1_655 S
C228   H70     1.109   1_655 S
C231   H233    1.110   .     S
C231   H234    1.110   .     S
C231   H72     1.110   1_655 S
C235   H236    1.085   .     S
C235   O237    1.221   .     D
C238   O240    1.220   .     D
C238   C907    1.488   1_554 S
H239   C78     1.085   1_655 S
C241   O283    1.284   .     A
C241   O284    1.282   .     A
C241   C257    1.415   .     S
C242   C243    1.411   .     A
C242   C964    1.425   .     S
C242   C988    1.435   .     S
C243   C247    1.416   .     A
C243   C250    1.407   .     A
C244   C248    1.388   .     A
C244   C962    1.425   1_554 S
C244   C965    1.419   1_554 S
C245   C246    1.383   .     A
C245   C964    1.419   .     S
C245   C984    1.403   .     S
C246   C247    1.381   .     A
C246   H276    1.077   .     S
C247   H279    1.083   .     S
C248   C265    1.391   .     A
C248   H278    1.076   .     S
C249   C265    1.397   .     A
C249   H269    1.083   .     S
C249   C264    1.390   .     A
C250   C266    1.412   .     A
C250   C252    1.472   .     S
C251   C257    1.397   .     A
C251   H280    1.084   .     S
C251   C493    1.370   .     S
C252   O286    1.298   .     A
C252   O285    1.293   .     A
C253   C254    1.396   .     A
C253   H270    1.084   .     S
C254   C262    1.415   .     S
C254   C255    1.397   .     A
C255   H271    1.084   .     S
C256   H272    1.084   .     S
C256   C257    1.395   .     A
C256   C495    1.369   .     S
C258   N282    1.366   .     A
C258   H273    1.081   .     S
C258   C339    1.415   .     S
C259   H274    1.081   .     S
C259   N281    1.366   .     A
C259   C418    1.415   1_455 S
C260   N281    1.371   .     A
C260   O293    1.381   .     S
C260   C421    1.423   1_455 S
C261   H275    1.081   .     S
C261   N282    1.365   .     A
C261   C340    1.423   .     S
C262   O288    1.284   .     A
C262   O287    1.281   .     A
C263   O289    1.291   .     A
C263   O290    1.290   .     A
C263   C265    1.448   .     S
C264   C965    1.403   1_554 S
C264   H997    1.083   1_554 S
C266   C267    1.409   .     A
C266   O304    1.388   .     S
C267   C988    1.419   .     S
C267   C1038   1.488   .     S
C268   C315    1.487   .     S
C268   C962    1.435   1_554 S
C268   C987    1.419   1_554 S
H277   C984    1.083   .     S
N281   Zn291   2.011   .     S
N282   Zn292   2.011   .     S
O283   Zn291   1.996   .     S
O284   Zn292   1.992   .     S
O285   Zn291   1.980   .     S
O286   Zn292   1.932   .     S
O287   Zn291   1.992   .     S
O288   Zn292   1.996   .     S
O289   Zn291   1.932   .     S
O290   Zn292   1.980   .     S
O293   C294    1.409   .     S
C294   H295    1.117   .     S
C294   C297    1.529   .     S
C294   H456    1.111   1_455 S
H296   C374    1.111   .     S
C297   C300    1.525   .     S
C297   H298    1.111   .     S
C297   H299    1.111   .     S
C300   H303    1.110   .     S
C300   H302    1.111   .     S
C300   H461    1.111   1_455 S
H301   C380    1.111   .     S
O304   C305    1.416   .     S
C305   H307    1.111   .     S
C305   H306    1.111   .     S
C305   C468    1.528   1_455 S
C308   H309    1.112   .     S
C308   C311    1.525   .     S
C308   C385    1.528   .     S
C308   H390    1.109   .     S
H310   C468    1.109   1_455 S
C311   H313    1.110   .     S
C311   H314    1.110   .     S
C311   H392    1.110   .     S
H312   C471    1.110   1_455 S
C315   H316    1.085   .     S
C315   O317    1.221   .     D
C318   O320    1.220   .     D
C318   C987    1.488   1_554 S
C318   H479    1.085   1_455 S
H319   C398    1.085   .     S
C321   O363    1.284   .     A
C321   O364    1.282   .     A
C321   C337    1.415   .     S
C322   C323    1.411   .     A
C322   C1044   1.425   .     S
C322   C1068   1.435   .     S
C323   C327    1.416   .     A
C323   C330    1.407   .     A
C324   C328    1.388   .     A
C324   C1042   1.425   1_554 S
C324   C1045   1.419   1_554 S
C325   C326    1.383   .     A
C325   C1044   1.419   .     S
C325   C1064   1.403   .     S
C326   C327    1.381   .     A
C326   H356    1.077   .     S
C327   H359    1.083   .     S
C328   C345    1.391   .     A
C328   H358    1.076   .     S
C329   C345    1.397   .     A
C329   H349    1.083   .     S
C329   C344    1.390   .     A
C330   C346    1.412   .     A
C330   C332    1.472   .     S
C331   C337    1.397   .     A
C331   H360    1.084   .     S
C331   C573    1.370   .     S
C332   O366    1.298   .     A
C332   O365    1.293   .     A
C333   C334    1.396   .     A
C333   H350    1.084   .     S
C334   C342    1.415   .     S
C334   C335    1.397   .     A
C335   H351    1.084   .     S
C336   H352    1.084   .     S
C336   C337    1.395   .     A
C336   C575    1.369   .     S
C338   N362    1.366   .     A
C338   H353    1.081   .     S
C338   C419    1.415   .     S
C339   H354    1.081   .     S
C339   N361    1.366   .     A
C340   N361    1.371   .     A
C340   O373    1.381   .     S
C341   H355    1.081   .     S
C341   N362    1.365   .     A
C341   C420    1.423   .     S
C342   O368    1.284   .     A
C342   O367    1.281   .     A
C343   O369    1.291   .     A
C343   O370    1.290   .     A
C343   C345    1.448   .     S
C344   C1045   1.403   1_554 S
C344   H1077   1.083   1_554 S
C346   C347    1.409   .     A
C346   O384    1.388   .     S
C347   C1068   1.419   .     S
C347   C1118   1.488   .     S
C348   C395    1.487   .     S
C348   C1042   1.435   1_554 S
C348   C1067   1.419   1_554 S
H357   C1064   1.083   .     S
N361   Zn371   2.011   .     S
N362   Zn372   2.011   .     S
O363   Zn371   1.996   .     S
O364   Zn372   1.992   .     S
O365   Zn371   1.980   .     S
O366   Zn372   1.932   .     S
O367   Zn371   1.992   .     S
O368   Zn372   1.996   .     S
O369   Zn371   1.932   .     S
O370   Zn372   1.980   .     S
O373   C374    1.409   .     S
C374   H375    1.117   .     S
C374   C377    1.529   .     S
H376   C454    1.111   .     S
C377   C380    1.525   .     S
C377   H378    1.111   .     S
C377   H379    1.111   .     S
C380   H383    1.110   .     S
C380   H382    1.111   .     S
H381   C460    1.111   .     S
O384   C385    1.416   .     S
C385   H387    1.111   .     S
C385   H386    1.111   .     S
C388   H389    1.112   .     S
C388   C391    1.525   .     S
C388   C465    1.528   .     S
C388   H470    1.109   .     S
C391   H393    1.110   .     S
C391   H394    1.110   .     S
C391   H472    1.110   .     S
C395   H396    1.085   .     S
C395   O397    1.221   .     D
C398   O400    1.220   .     D
C398   C1067   1.488   1_554 S
H399   C478    1.085   .     S
C401   O443    1.284   .     A
C401   O444    1.282   .     A
C401   C417    1.415   .     S
C402   C403    1.411   .     A
C402   C1124   1.425   .     S
C402   C1148   1.435   .     S
C403   C407    1.416   .     A
C403   C410    1.407   .     A
C404   C408    1.388   .     A
C404   C1122   1.425   1_554 S
C404   C1125   1.419   1_554 S
C405   C406    1.383   .     A
C405   C1124   1.419   .     S
C405   C1144   1.403   .     S
C406   C407    1.381   .     A
C406   H436    1.077   .     S
C407   H439    1.083   .     S
C408   C425    1.391   .     A
C408   H438    1.076   .     S
C409   C425    1.397   .     A
C409   H429    1.083   .     S
C409   C424    1.390   .     A
C410   C426    1.412   .     A
C410   C412    1.472   .     S
C411   C417    1.397   .     A
C411   H440    1.084   .     S
C411   C653    1.370   .     S
C412   O446    1.298   .     A
C412   O445    1.293   .     A
C413   C414    1.396   .     A
C413   H430    1.084   .     S
C414   C422    1.415   .     S
C414   C415    1.397   .     A
C415   H431    1.084   .     S
C416   H432    1.084   .     S
C416   C417    1.395   .     A
C416   C655    1.369   .     S
C418   N442    1.366   .     A
C418   H433    1.081   .     S
C418   C259    1.415   1_655 S
C419   H434    1.081   .     S
C419   N441    1.366   .     A
C420   N441    1.371   .     A
C420   O453    1.381   .     S
C421   H435    1.081   .     S
C421   N442    1.365   .     A
C421   C260    1.423   1_655 S
C422   O448    1.284   .     A
C422   O447    1.281   .     A
C423   O449    1.291   .     A
C423   O450    1.290   .     A
C423   C425    1.448   .     S
C424   C1125   1.403   1_554 S
C424   H1157   1.083   1_554 S
C426   C427    1.409   .     A
C426   O464    1.388   .     S
C427   C1148   1.419   .     S
C427   C1198   1.488   .     S
C428   C475    1.487   .     S
C428   C1122   1.435   1_554 S
C428   C1147   1.419   1_554 S
H437   C1144   1.083   .     S
N441   Zn451   2.011   .     S
N442   Zn452   2.011   .     S
O443   Zn451   1.996   .     S
O444   Zn452   1.992   .     S
O445   Zn451   1.980   .     S
O446   Zn452   1.932   .     S
O447   Zn451   1.992   .     S
O448   Zn452   1.996   .     S
O449   Zn451   1.932   .     S
O450   Zn452   1.980   .     S
O453   C454    1.409   .     S
C454   H455    1.117   .     S
C454   C457    1.529   .     S
H456   C294    1.111   1_655 S
C457   C460    1.525   .     S
C457   H458    1.111   .     S
C457   H459    1.111   .     S
C460   H463    1.110   .     S
C460   H462    1.111   .     S
H461   C300    1.111   1_655 S
O464   C465    1.416   .     S
C465   H467    1.111   .     S
C465   H466    1.111   .     S
C468   H469    1.112   .     S
C468   C471    1.525   .     S
C468   C305    1.528   1_655 S
C468   H310    1.109   1_655 S
C471   H473    1.110   .     S
C471   H474    1.110   .     S
C471   H312    1.110   1_655 S
C475   H476    1.085   .     S
C475   O477    1.221   .     D
C478   O480    1.220   .     D
C478   C1147   1.488   1_554 S
H479   C318    1.085   1_655 S
C481   O523    1.284   .     A
C481   O524    1.282   .     A
C481   C497    1.415   .     S
C482   C483    1.411   .     A
C482   C1204   1.425   .     S
C482   C1228   1.435   .     S
C483   C487    1.416   .     A
C483   C490    1.407   .     A
C484   C488    1.388   .     A
C484   C1202   1.425   1_554 S
C484   C1205   1.419   1_554 S
C485   C486    1.383   .     A
C485   C1204   1.419   .     S
C485   C1224   1.403   .     S
C486   C487    1.381   .     A
C486   H516    1.077   .     S
C487   H519    1.083   .     S
C488   C505    1.391   .     A
C488   H518    1.076   .     S
C489   C505    1.397   .     A
C489   H509    1.083   .     S
C489   C504    1.390   .     A
C490   C506    1.412   .     A
C490   C492    1.472   .     S
C491   C497    1.397   .     A
C491   H520    1.084   .     S
C491   C13     1.370   1_565 S
C492   O526    1.298   .     A
C492   O525    1.293   .     A
C493   C494    1.396   .     A
C493   H510    1.084   .     S
C494   C502    1.415   .     S
C494   C495    1.397   .     A
C495   H511    1.084   .     S
C496   H512    1.084   .     S
C496   C497    1.395   .     A
C496   C15     1.369   1_565 S
C498   N522    1.366   .     A
C498   H513    1.081   .     S
C498   C579    1.415   .     S
C499   H514    1.081   .     S
C499   N521    1.366   .     A
C499   C658    1.415   1_455 S
C500   N521    1.371   .     A
C500   O533    1.381   .     S
C500   C661    1.423   1_455 S
C501   H515    1.081   .     S
C501   N522    1.365   .     A
C501   C580    1.423   .     S
C502   O528    1.284   .     A
C502   O527    1.281   .     A
C503   O529    1.291   .     A
C503   O530    1.290   .     A
C503   C505    1.448   .     S
C504   C1205   1.403   1_554 S
C504   H1237   1.083   1_554 S
C506   C507    1.409   .     A
C506   O544    1.388   .     S
C507   C1228   1.419   .     S
C507   C1278   1.488   .     S
C508   C555    1.487   .     S
C508   C1202   1.435   1_554 S
C508   C1227   1.419   1_554 S
H517   C1224   1.083   .     S
N521   Zn531   2.011   .     S
N522   Zn532   2.011   .     S
O523   Zn531   1.996   .     S
O524   Zn532   1.992   .     S
O525   Zn531   1.980   .     S
O526   Zn532   1.932   .     S
O527   Zn531   1.992   .     S
O528   Zn532   1.996   .     S
O529   Zn531   1.932   .     S
O530   Zn532   1.980   .     S
O533   C534    1.409   .     S
C534   H535    1.117   .     S
C534   C537    1.529   .     S
C534   H696    1.111   1_455 S
H536   C614    1.111   .     S
C537   C540    1.525   .     S
C537   H538    1.111   .     S
C537   H539    1.111   .     S
C540   H543    1.110   .     S
C540   H542    1.111   .     S
C540   H701    1.111   1_455 S
H541   C620    1.111   .     S
O544   C545    1.416   .     S
C545   H547    1.111   .     S
C545   H546    1.111   .     S
C545   C708    1.528   1_455 S
C548   H549    1.112   .     S
C548   C551    1.525   .     S
C548   C625    1.528   .     S
C548   H630    1.109   .     S
H550   C708    1.109   1_455 S
C551   H553    1.110   .     S
C551   H554    1.110   .     S
C551   H632    1.110   .     S
H552   C711    1.110   1_455 S
C555   H556    1.085   .     S
C555   O557    1.221   .     D
C558   O560    1.220   .     D
C558   C1227   1.488   1_554 S
C558   H719    1.085   1_455 S
H559   C638    1.085   .     S
C561   O603    1.284   .     A
C561   O604    1.282   .     A
C561   C577    1.415   .     S
C562   C563    1.411   .     A
C562   C1284   1.425   .     S
C562   C1308   1.435   .     S
C563   C567    1.416   .     A
C563   C570    1.407   .     A
C564   C568    1.388   .     A
C564   C1282   1.425   1_554 S
C564   C1285   1.419   1_554 S
C565   C566    1.383   .     A
C565   C1284   1.419   .     S
C565   C1304   1.403   .     S
C566   C567    1.381   .     A
C566   H596    1.077   .     S
C567   H599    1.083   .     S
C568   C585    1.391   .     A
C568   H598    1.076   .     S
C569   C585    1.397   .     A
C569   H589    1.083   .     S
C569   C584    1.390   .     A
C570   C586    1.412   .     A
C570   C572    1.472   .     S
C571   C577    1.397   .     A
C571   H600    1.084   .     S
C571   C93     1.370   1_565 S
C572   O606    1.298   .     A
C572   O605    1.293   .     A
C573   C574    1.396   .     A
C573   H590    1.084   .     S
C574   C582    1.415   .     S
C574   C575    1.397   .     A
C575   H591    1.084   .     S
C576   H592    1.084   .     S
C576   C577    1.395   .     A
C576   C95     1.369   1_565 S
C578   N602    1.366   .     A
C578   H593    1.081   .     S
C578   C659    1.415   .     S
C579   H594    1.081   .     S
C579   N601    1.366   .     A
C580   N601    1.371   .     A
C580   O613    1.381   .     S
C581   H595    1.081   .     S
C581   N602    1.365   .     A
C581   C660    1.423   .     S
C582   O608    1.284   .     A
C582   O607    1.281   .     A
C583   O609    1.291   .     A
C583   O610    1.290   .     A
C583   C585    1.448   .     S
C584   C1285   1.403   1_554 S
C584   H1317   1.083   1_554 S
C586   C587    1.409   .     A
C586   O624    1.388   .     S
C587   C1308   1.419   .     S
C587   C1358   1.488   .     S
C588   C635    1.487   .     S
C588   C1282   1.435   1_554 S
C588   C1307   1.419   1_554 S
H597   C1304   1.083   .     S
N601   Zn611   2.011   .     S
N602   Zn612   2.011   .     S
O603   Zn611   1.996   .     S
O604   Zn612   1.992   .     S
O605   Zn611   1.980   .     S
O606   Zn612   1.932   .     S
O607   Zn611   1.992   .     S
O608   Zn612   1.996   .     S
O609   Zn611   1.932   .     S
O610   Zn612   1.980   .     S
O613   C614    1.409   .     S
C614   H615    1.117   .     S
C614   C617    1.529   .     S
H616   C694    1.111   .     S
C617   C620    1.525   .     S
C617   H618    1.111   .     S
C617   H619    1.111   .     S
C620   H623    1.110   .     S
C620   H622    1.111   .     S
H621   C700    1.111   .     S
O624   C625    1.416   .     S
C625   H627    1.111   .     S
C625   H626    1.111   .     S
C628   H629    1.112   .     S
C628   C631    1.525   .     S
C628   C705    1.528   .     S
C628   H710    1.109   .     S
C631   H633    1.110   .     S
C631   H634    1.110   .     S
C631   H712    1.110   .     S
C635   H636    1.085   .     S
C635   O637    1.221   .     D
C638   O640    1.220   .     D
C638   C1307   1.488   1_554 S
H639   C718    1.085   .     S
C641   O683    1.284   .     A
C641   O684    1.282   .     A
C641   C657    1.415   .     S
C642   C643    1.411   .     A
C642   C1364   1.425   .     S
C642   C1388   1.435   .     S
C643   C647    1.416   .     A
C643   C650    1.407   .     A
C644   C648    1.388   .     A
C644   C1362   1.425   1_554 S
C644   C1365   1.419   1_554 S
C645   C646    1.383   .     A
C645   C1364   1.419   .     S
C645   C1384   1.403   .     S
C646   C647    1.381   .     A
C646   H676    1.077   .     S
C647   H679    1.083   .     S
C648   C665    1.391   .     A
C648   H678    1.076   .     S
C649   C665    1.397   .     A
C649   H669    1.083   .     S
C649   C664    1.390   .     A
C650   C666    1.412   .     A
C650   C652    1.472   .     S
C651   C657    1.397   .     A
C651   H680    1.084   .     S
C651   C173    1.370   1_565 S
C652   O686    1.298   .     A
C652   O685    1.293   .     A
C653   C654    1.396   .     A
C653   H670    1.084   .     S
C654   C662    1.415   .     S
C654   C655    1.397   .     A
C655   H671    1.084   .     S
C656   H672    1.084   .     S
C656   C657    1.395   .     A
C656   C175    1.369   1_565 S
C658   N682    1.366   .     A
C658   H673    1.081   .     S
C658   C499    1.415   1_655 S
C659   H674    1.081   .     S
C659   N681    1.366   .     A
C660   N681    1.371   .     A
C660   O693    1.381   .     S
C661   H675    1.081   .     S
C661   N682    1.365   .     A
C661   C500    1.423   1_655 S
C662   O688    1.284   .     A
C662   O687    1.281   .     A
C663   O689    1.291   .     A
C663   O690    1.290   .     A
C663   C665    1.448   .     S
C664   C1365   1.403   1_554 S
C664   H1397   1.083   1_554 S
C666   C667    1.409   .     A
C666   O704    1.388   .     S
C667   C1388   1.419   .     S
C667   C1438   1.488   .     S
C668   C715    1.487   .     S
C668   C1362   1.435   1_554 S
C668   C1387   1.419   1_554 S
H677   C1384   1.083   .     S
N681   Zn691   2.011   .     S
N682   Zn692   2.011   .     S
O683   Zn691   1.996   .     S
O684   Zn692   1.992   .     S
O685   Zn691   1.980   .     S
O686   Zn692   1.932   .     S
O687   Zn691   1.992   .     S
O688   Zn692   1.996   .     S
O689   Zn691   1.932   .     S
O690   Zn692   1.980   .     S
O693   C694    1.409   .     S
C694   H695    1.117   .     S
C694   C697    1.529   .     S
H696   C534    1.111   1_655 S
C697   C700    1.525   .     S
C697   H698    1.111   .     S
C697   H699    1.111   .     S
C700   H703    1.110   .     S
C700   H702    1.111   .     S
H701   C540    1.111   1_655 S
O704   C705    1.416   .     S
C705   H707    1.111   .     S
C705   H706    1.111   .     S
C708   H709    1.112   .     S
C708   C711    1.525   .     S
C708   C545    1.528   1_655 S
C708   H550    1.109   1_655 S
C711   H713    1.110   .     S
C711   H714    1.110   .     S
C711   H552    1.110   1_655 S
C715   H716    1.085   .     S
C715   O717    1.221   .     D
C718   O720    1.220   .     D
C718   C1387   1.488   1_554 S
H719   C558    1.085   1_655 S
C721   O763    1.284   .     A
C721   O764    1.282   .     A
C721   C737    1.415   .     S
C722   C723    1.411   .     A
C722   C4      1.425   1_556 S
C722   C28     1.435   1_556 S
C723   C727    1.416   .     A
C723   C730    1.407   .     A
C724   C728    1.388   .     A
C725   C726    1.383   .     A
C725   C4      1.419   1_556 S
C725   C24     1.403   1_556 S
C726   C727    1.381   .     A
C726   H756    1.077   .     S
C727   H759    1.083   .     S
C728   C745    1.391   .     A
C728   H758    1.076   .     S
C729   C745    1.397   .     A
C729   H749    1.083   .     S
C729   C744    1.390   .     A
C730   C746    1.412   .     A
C730   C732    1.472   .     S
C731   C737    1.397   .     A
C731   H760    1.084   .     S
C731   C973    1.370   .     S
C732   O766    1.298   .     A
C732   O765    1.293   .     A
C733   C734    1.396   .     A
C733   H750    1.084   .     S
C733   C1211   1.370   1_545 S
C734   C742    1.415   .     S
C734   C735    1.397   .     A
C735   H751    1.084   .     S
C735   C1216   1.369   1_545 S
C736   H752    1.084   .     S
C736   C737    1.395   .     A
C736   C975    1.369   .     S
C738   N762    1.366   .     A
C738   H753    1.081   .     S
C738   C819    1.415   .     S
C739   H754    1.081   .     S
C739   N761    1.366   .     A
C739   C898    1.415   1_455 S
C740   N761    1.371   .     A
C740   O773    1.381   .     S
C740   C901    1.423   1_455 S
C741   H755    1.081   .     S
C741   N762    1.365   .     A
C741   C820    1.423   .     S
C742   O768    1.284   .     A
C742   O767    1.281   .     A
C743   O769    1.291   .     A
C743   O770    1.290   .     A
C743   C745    1.448   .     S
C746   C747    1.409   .     A
C746   O784    1.388   .     S
C747   C28     1.419   1_556 S
C747   C78     1.488   1_556 S
C748   C795    1.487   .     S
H757   C24     1.083   1_556 S
N761   Zn771   2.011   .     S
N762   Zn772   2.011   .     S
O763   Zn771   1.996   .     S
O764   Zn772   1.992   .     S
O765   Zn771   1.980   .     S
O766   Zn772   1.932   .     S
O767   Zn771   1.992   .     S
O768   Zn772   1.996   .     S
O769   Zn771   1.932   .     S
O770   Zn772   1.980   .     S
O773   C774    1.409   .     S
C774   H775    1.117   .     S
C774   C777    1.529   .     S
C774   H936    1.111   1_455 S
H776   C854    1.111   .     S
C777   C780    1.525   .     S
C777   H778    1.111   .     S
C777   H779    1.111   .     S
C780   H783    1.110   .     S
C780   H782    1.111   .     S
C780   H941    1.111   1_455 S
H781   C860    1.111   .     S
O784   C785    1.416   .     S
C785   H787    1.111   .     S
C785   H786    1.111   .     S
C785   C948    1.528   1_455 S
C788   H789    1.112   .     S
C788   C791    1.525   .     S
C788   C865    1.528   .     S
C788   H870    1.109   .     S
H790   C948    1.109   1_455 S
C791   H793    1.110   .     S
C791   H794    1.110   .     S
C791   H872    1.110   .     S
H792   C951    1.110   1_455 S
C795   H796    1.085   .     S
C795   O797    1.221   .     D
C798   O800    1.220   .     D
C798   H959    1.085   1_455 S
H799   C878    1.085   .     S
C801   O843    1.284   .     A
C801   O844    1.282   .     A
C801   C817    1.415   .     S
C802   C803    1.411   .     A
C802   C84     1.425   1_556 S
C802   C108    1.435   1_556 S
C803   C807    1.416   .     A
C803   C810    1.407   .     A
C804   C808    1.388   .     A
C805   C806    1.383   .     A
C805   C84     1.419   1_556 S
C805   C104    1.403   1_556 S
C806   C807    1.381   .     A
C806   H836    1.077   .     S
C807   H839    1.083   .     S
C808   C825    1.391   .     A
C808   H838    1.076   .     S
C809   C825    1.397   .     A
C809   H829    1.083   .     S
C809   C824    1.390   .     A
C810   C826    1.412   .     A
C810   C812    1.472   .     S
C811   C817    1.397   .     A
C811   H840    1.084   .     S
C811   C1053   1.370   .     S
C812   O846    1.298   .     A
C812   O845    1.293   .     A
C813   C814    1.396   .     A
C813   H830    1.084   .     S
C813   C1291   1.370   1_545 S
C814   C822    1.415   .     S
C814   C815    1.397   .     A
C815   H831    1.084   .     S
C815   C1296   1.369   1_545 S
C816   H832    1.084   .     S
C816   C817    1.395   .     A
C816   C1055   1.369   .     S
C818   N842    1.366   .     A
C818   H833    1.081   .     S
C818   C899    1.415   .     S
C819   H834    1.081   .     S
C819   N841    1.366   .     A
C820   N841    1.371   .     A
C820   O853    1.381   .     S
C821   H835    1.081   .     S
C821   N842    1.365   .     A
C821   C900    1.423   .     S
C822   O848    1.284   .     A
C822   O847    1.281   .     A
C823   O849    1.291   .     A
C823   O850    1.290   .     A
C823   C825    1.448   .     S
C826   C827    1.409   .     A
C826   O864    1.388   .     S
C827   C108    1.419   1_556 S
C827   C158    1.488   1_556 S
C828   C875    1.487   .     S
H837   C104    1.083   1_556 S
N841   Zn851   2.011   .     S
N842   Zn852   2.011   .     S
O843   Zn851   1.996   .     S
O844   Zn852   1.992   .     S
O845   Zn851   1.980   .     S
O846   Zn852   1.932   .     S
O847   Zn851   1.992   .     S
O848   Zn852   1.996   .     S
O849   Zn851   1.932   .     S
O850   Zn852   1.980   .     S
O853   C854    1.409   .     S
C854   H855    1.117   .     S
C854   C857    1.529   .     S
H856   C934    1.111   .     S
C857   C860    1.525   .     S
C857   H858    1.111   .     S
C857   H859    1.111   .     S
C860   H863    1.110   .     S
C860   H862    1.111   .     S
H861   C940    1.111   .     S
O864   C865    1.416   .     S
C865   H867    1.111   .     S
C865   H866    1.111   .     S
C868   H869    1.112   .     S
C868   C871    1.525   .     S
C868   C945    1.528   .     S
C868   H950    1.109   .     S
C871   H873    1.110   .     S
C871   H874    1.110   .     S
C871   H952    1.110   .     S
C875   H876    1.085   .     S
C875   O877    1.221   .     D
C878   O880    1.220   .     D
H879   C958    1.085   .     S
C881   O923    1.284   .     A
C881   O924    1.282   .     A
C881   C897    1.415   .     S
C882   C883    1.411   .     A
C882   C164    1.425   1_556 S
C882   C188    1.435   1_556 S
C883   C887    1.416   .     A
C883   C890    1.407   .     A
C884   C888    1.388   .     A
C885   C886    1.383   .     A
C885   C164    1.419   1_556 S
C885   C184    1.403   1_556 S
C886   C887    1.381   .     A
C886   H916    1.077   .     S
C887   H919    1.083   .     S
C888   C905    1.391   .     A
C888   H918    1.076   .     S
C889   C905    1.397   .     A
C889   H909    1.083   .     S
C889   C904    1.390   .     A
C890   C906    1.412   .     A
C890   C892    1.472   .     S
C891   C897    1.397   .     A
C891   H920    1.084   .     S
C891   C1133   1.370   .     S
C892   O926    1.298   .     A
C892   O925    1.293   .     A
C893   C894    1.396   .     A
C893   H910    1.084   .     S
C893   C1371   1.370   1_545 S
C894   C902    1.415   .     S
C894   C895    1.397   .     A
C895   H911    1.084   .     S
C895   C1376   1.369   1_545 S
C896   H912    1.084   .     S
C896   C897    1.395   .     A
C896   C1135   1.369   .     S
C898   N922    1.366   .     A
C898   H913    1.081   .     S
C898   C739    1.415   1_655 S
C899   H914    1.081   .     S
C899   N921    1.366   .     A
C900   N921    1.371   .     A
C900   O933    1.381   .     S
C901   H915    1.081   .     S
C901   N922    1.365   .     A
C901   C740    1.423   1_655 S
C902   O928    1.284   .     A
C902   O927    1.281   .     A
C903   O929    1.291   .     A
C903   O930    1.290   .     A
C903   C905    1.448   .     S
C906   C907    1.409   .     A
C906   O944    1.388   .     S
C907   C188    1.419   1_556 S
C907   C238    1.488   1_556 S
C908   C955    1.487   .     S
H917   C184    1.083   1_556 S
N921   Zn931   2.011   .     S
N922   Zn932   2.011   .     S
O923   Zn931   1.996   .     S
O924   Zn932   1.992   .     S
O925   Zn931   1.980   .     S
O926   Zn932   1.932   .     S
O927   Zn931   1.992   .     S
O928   Zn932   1.996   .     S
O929   Zn931   1.932   .     S
O930   Zn932   1.980   .     S
O933   C934    1.409   .     S
C934   H935    1.117   .     S
C934   C937    1.529   .     S
H936   C774    1.111   1_655 S
C937   C940    1.525   .     S
C937   H938    1.111   .     S
C937   H939    1.111   .     S
C940   H943    1.110   .     S
C940   H942    1.111   .     S
H941   C780    1.111   1_655 S
O944   C945    1.416   .     S
C945   H947    1.111   .     S
C945   H946    1.111   .     S
C948   H949    1.112   .     S
C948   C951    1.525   .     S
C948   C785    1.528   1_655 S
C948   H790    1.109   1_655 S
C951   H953    1.110   .     S
C951   H954    1.110   .     S
C951   H792    1.110   1_655 S
C955   H956    1.085   .     S
C955   O957    1.221   .     D
C958   O960    1.220   .     D
H959   C798    1.085   1_655 S
C961   O1003   1.284   .     A
C961   O1004   1.282   .     A
C961   C977    1.415   .     S
C962   C963    1.411   .     A
C962   C244    1.425   1_556 S
C962   C268    1.435   1_556 S
C963   C967    1.416   .     A
C963   C970    1.407   .     A
C964   C968    1.388   .     A
C965   C966    1.383   .     A
C965   C244    1.419   1_556 S
C965   C264    1.403   1_556 S
C966   C967    1.381   .     A
C966   H996    1.077   .     S
C967   H999    1.083   .     S
C968   C985    1.391   .     A
C968   H998    1.076   .     S
C969   C985    1.397   .     A
C969   H989    1.083   .     S
C969   C984    1.390   .     A
C970   C986    1.412   .     A
C970   C972    1.472   .     S
C971   C977    1.397   .     A
C971   H1000   1.084   .     S
C971   C1213   1.370   .     S
C972   O1006   1.298   .     A
C972   O1005   1.293   .     A
C973   C974    1.396   .     A
C973   H990    1.084   .     S
C974   C982    1.415   .     S
C974   C975    1.397   .     A
C975   H991    1.084   .     S
C976   H992    1.084   .     S
C976   C977    1.395   .     A
C976   C1215   1.369   .     S
C978   N1002   1.366   .     A
C978   H993    1.081   .     S
C978   C1059   1.415   .     S
C979   H994    1.081   .     S
C979   N1001   1.366   .     A
C979   C1138   1.415   1_455 S
C980   N1001   1.371   .     A
C980   O1013   1.381   .     S
C980   C1141   1.423   1_455 S
C981   H995    1.081   .     S
C981   N1002   1.365   .     A
C981   C1060   1.423   .     S
C982   O1008   1.284   .     A
C982   O1007   1.281   .     A
C983   O1009   1.291   .     A
C983   O1010   1.290   .     A
C983   C985    1.448   .     S
C986   C987    1.409   .     A
C986   O1024   1.388   .     S
C987   C268    1.419   1_556 S
C987   C318    1.488   1_556 S
C988   C1035   1.487   .     S
H997   C264    1.083   1_556 S
N1001  Zn1011  2.011   .     S
N1002  Zn1012  2.011   .     S
O1003  Zn1011  1.996   .     S
O1004  Zn1012  1.992   .     S
O1005  Zn1011  1.980   .     S
O1006  Zn1012  1.932   .     S
O1007  Zn1011  1.992   .     S
O1008  Zn1012  1.996   .     S
O1009  Zn1011  1.932   .     S
O1010  Zn1012  1.980   .     S
O1013  C1014   1.409   .     S
C1014  H1015   1.117   .     S
C1014  C1017   1.529   .     S
C1014  H1176   1.111   1_455 S
H1016  C1094   1.111   .     S
C1017  C1020   1.525   .     S
C1017  H1018   1.111   .     S
C1017  H1019   1.111   .     S
C1020  H1023   1.110   .     S
C1020  H1022   1.111   .     S
C1020  H1181   1.111   1_455 S
H1021  C1100   1.111   .     S
O1024  C1025   1.416   .     S
C1025  H1027   1.111   .     S
C1025  H1026   1.111   .     S
C1025  C1188   1.528   1_455 S
C1028  H1029   1.112   .     S
C1028  C1031   1.525   .     S
C1028  C1105   1.528   .     S
C1028  H1110   1.109   .     S
H1030  C1188   1.109   1_455 S
C1031  H1033   1.110   .     S
C1031  H1034   1.110   .     S
C1031  H1112   1.110   .     S
H1032  C1191   1.110   1_455 S
C1035  H1036   1.085   .     S
C1035  O1037   1.221   .     D
C1038  O1040   1.220   .     D
C1038  H1199   1.085   1_455 S
H1039  C1118   1.085   .     S
C1041  O1083   1.284   .     A
C1041  O1084   1.282   .     A
C1041  C1057   1.415   .     S
C1042  C1043   1.411   .     A
C1042  C324    1.425   1_556 S
C1042  C348    1.435   1_556 S
C1043  C1047   1.416   .     A
C1043  C1050   1.407   .     A
C1044  C1048   1.388   .     A
C1045  C1046   1.383   .     A
C1045  C324    1.419   1_556 S
C1045  C344    1.403   1_556 S
C1046  C1047   1.381   .     A
C1046  H1076   1.077   .     S
C1047  H1079   1.083   .     S
C1048  C1065   1.391   .     A
C1048  H1078   1.076   .     S
C1049  C1065   1.397   .     A
C1049  H1069   1.083   .     S
C1049  C1064   1.390   .     A
C1050  C1066   1.412   .     A
C1050  C1052   1.472   .     S
C1051  C1057   1.397   .     A
C1051  H1080   1.084   .     S
C1051  C1293   1.370   .     S
C1052  O1086   1.298   .     A
C1052  O1085   1.293   .     A
C1053  C1054   1.396   .     A
C1053  H1070   1.084   .     S
C1054  C1062   1.415   .     S
C1054  C1055   1.397   .     A
C1055  H1071   1.084   .     S
C1056  H1072   1.084   .     S
C1056  C1057   1.395   .     A
C1056  C1295   1.369   .     S
C1058  N1082   1.366   .     A
C1058  H1073   1.081   .     S
C1058  C1139   1.415   .     S
C1059  H1074   1.081   .     S
C1059  N1081   1.366   .     A
C1060  N1081   1.371   .     A
C1060  O1093   1.381   .     S
C1061  H1075   1.081   .     S
C1061  N1082   1.365   .     A
C1061  C1140   1.423   .     S
C1062  O1088   1.284   .     A
C1062  O1087   1.281   .     A
C1063  O1089   1.291   .     A
C1063  O1090   1.290   .     A
C1063  C1065   1.448   .     S
C1066  C1067   1.409   .     A
C1066  O1104   1.388   .     S
C1067  C348    1.419   1_556 S
C1067  C398    1.488   1_556 S
C1068  C1115   1.487   .     S
H1077  C344    1.083   1_556 S
N1081  Zn1091  2.011   .     S
N1082  Zn1092  2.011   .     S
O1083  Zn1091  1.996   .     S
O1084  Zn1092  1.992   .     S
O1085  Zn1091  1.980   .     S
O1086  Zn1092  1.932   .     S
O1087  Zn1091  1.992   .     S
O1088  Zn1092  1.996   .     S
O1089  Zn1091  1.932   .     S
O1090  Zn1092  1.980   .     S
O1093  C1094   1.409   .     S
C1094  H1095   1.117   .     S
C1094  C1097   1.529   .     S
H1096  C1174   1.111   .     S
C1097  C1100   1.525   .     S
C1097  H1098   1.111   .     S
C1097  H1099   1.111   .     S
C1100  H1103   1.110   .     S
C1100  H1102   1.111   .     S
H1101  C1180   1.111   .     S
O1104  C1105   1.416   .     S
C1105  H1107   1.111   .     S
C1105  H1106   1.111   .     S
C1108  H1109   1.112   .     S
C1108  C1111   1.525   .     S
C1108  C1185   1.528   .     S
C1108  H1190   1.109   .     S
C1111  H1113   1.110   .     S
C1111  H1114   1.110   .     S
C1111  H1192   1.110   .     S
C1115  H1116   1.085   .     S
C1115  O1117   1.221   .     D
C1118  O1120   1.220   .     D
H1119  C1198   1.085   .     S
C1121  O1163   1.284   .     A
C1121  O1164   1.282   .     A
C1121  C1137   1.415   .     S
C1122  C1123   1.411   .     A
C1122  C404    1.425   1_556 S
C1122  C428    1.435   1_556 S
C1123  C1127   1.416   .     A
C1123  C1130   1.407   .     A
C1124  C1128   1.388   .     A
C1125  C1126   1.383   .     A
C1125  C404    1.419   1_556 S
C1125  C424    1.403   1_556 S
C1126  C1127   1.381   .     A
C1126  H1156   1.077   .     S
C1127  H1159   1.083   .     S
C1128  C1145   1.391   .     A
C1128  H1158   1.076   .     S
C1129  C1145   1.397   .     A
C1129  H1149   1.083   .     S
C1129  C1144   1.390   .     A
C1130  C1146   1.412   .     A
C1130  C1132   1.472   .     S
C1131  C1137   1.397   .     A
C1131  H1160   1.084   .     S
C1131  C1373   1.370   .     S
C1132  O1166   1.298   .     A
C1132  O1165   1.293   .     A
C1133  C1134   1.396   .     A
C1133  H1150   1.084   .     S
C1134  C1142   1.415   .     S
C1134  C1135   1.397   .     A
C1135  H1151   1.084   .     S
C1136  H1152   1.084   .     S
C1136  C1137   1.395   .     A
C1136  C1375   1.369   .     S
C1138  N1162   1.366   .     A
C1138  H1153   1.081   .     S
C1138  C979    1.415   1_655 S
C1139  H1154   1.081   .     S
C1139  N1161   1.366   .     A
C1140  N1161   1.371   .     A
C1140  O1173   1.381   .     S
C1141  H1155   1.081   .     S
C1141  N1162   1.365   .     A
C1141  C980    1.423   1_655 S
C1142  O1168   1.284   .     A
C1142  O1167   1.281   .     A
C1143  O1169   1.291   .     A
C1143  O1170   1.290   .     A
C1143  C1145   1.448   .     S
C1146  C1147   1.409   .     A
C1146  O1184   1.388   .     S
C1147  C428    1.419   1_556 S
C1147  C478    1.488   1_556 S
C1148  C1195   1.487   .     S
H1157  C424    1.083   1_556 S
N1161  Zn1171  2.011   .     S
N1162  Zn1172  2.011   .     S
O1163  Zn1171  1.996   .     S
O1164  Zn1172  1.992   .     S
O1165  Zn1171  1.980   .     S
O1166  Zn1172  1.932   .     S
O1167  Zn1171  1.992   .     S
O1168  Zn1172  1.996   .     S
O1169  Zn1171  1.932   .     S
O1170  Zn1172  1.980   .     S
O1173  C1174   1.409   .     S
C1174  H1175   1.117   .     S
C1174  C1177   1.529   .     S
H1176  C1014   1.111   1_655 S
C1177  C1180   1.525   .     S
C1177  H1178   1.111   .     S
C1177  H1179   1.111   .     S
C1180  H1183   1.110   .     S
C1180  H1182   1.111   .     S
H1181  C1020   1.111   1_655 S
O1184  C1185   1.416   .     S
C1185  H1187   1.111   .     S
C1185  H1186   1.111   .     S
C1188  H1189   1.112   .     S
C1188  C1191   1.525   .     S
C1188  C1025   1.528   1_655 S
C1188  H1030   1.109   1_655 S
C1191  H1193   1.110   .     S
C1191  H1194   1.110   .     S
C1191  H1032   1.110   1_655 S
C1195  H1196   1.085   .     S
C1195  O1197   1.221   .     D
C1198  O1200   1.220   .     D
H1199  C1038   1.085   1_655 S
C1201  O1243   1.284   .     A
C1201  O1244   1.282   .     A
C1201  C1217   1.415   .     S
C1202  C1203   1.411   .     A
C1202  C484    1.425   1_556 S
C1202  C508    1.435   1_556 S
C1203  C1207   1.416   .     A
C1203  C1210   1.407   .     A
C1204  C1208   1.388   .     A
C1205  C1206   1.383   .     A
C1205  C484    1.419   1_556 S
C1205  C504    1.403   1_556 S
C1206  C1207   1.381   .     A
C1206  H1236   1.077   .     S
C1207  H1239   1.083   .     S
C1208  C1225   1.391   .     A
C1208  H1238   1.076   .     S
C1209  C1225   1.397   .     A
C1209  H1229   1.083   .     S
C1209  C1224   1.390   .     A
C1210  C1226   1.412   .     A
C1210  C1212   1.472   .     S
C1211  C1217   1.397   .     A
C1211  H1240   1.084   .     S
C1211  C733    1.370   1_565 S
C1212  O1246   1.298   .     A
C1212  O1245   1.293   .     A
C1213  C1214   1.396   .     A
C1213  H1230   1.084   .     S
C1214  C1222   1.415   .     S
C1214  C1215   1.397   .     A
C1215  H1231   1.084   .     S
C1216  H1232   1.084   .     S
C1216  C1217   1.395   .     A
C1216  C735    1.369   1_565 S
C1218  N1242   1.366   .     A
C1218  H1233   1.081   .     S
C1218  C1299   1.415   .     S
C1219  H1234   1.081   .     S
C1219  N1241   1.366   .     A
C1219  C1378   1.415   1_455 S
C1220  N1241   1.371   .     A
C1220  O1253   1.381   .     S
C1220  C1381   1.423   1_455 S
C1221  H1235   1.081   .     S
C1221  N1242   1.365   .     A
C1221  C1300   1.423   .     S
C1222  O1248   1.284   .     A
C1222  O1247   1.281   .     A
C1223  O1249   1.291   .     A
C1223  O1250   1.290   .     A
C1223  C1225   1.448   .     S
C1226  C1227   1.409   .     A
C1226  O1264   1.388   .     S
C1227  C508    1.419   1_556 S
C1227  C558    1.488   1_556 S
C1228  C1275   1.487   .     S
H1237  C504    1.083   1_556 S
N1241  Zn1251  2.011   .     S
N1242  Zn1252  2.011   .     S
O1243  Zn1251  1.996   .     S
O1244  Zn1252  1.992   .     S
O1245  Zn1251  1.980   .     S
O1246  Zn1252  1.932   .     S
O1247  Zn1251  1.992   .     S
O1248  Zn1252  1.996   .     S
O1249  Zn1251  1.932   .     S
O1250  Zn1252  1.980   .     S
O1253  C1254   1.409   .     S
C1254  H1255   1.117   .     S
C1254  C1257   1.529   .     S
C1254  H1416   1.111   1_455 S
H1256  C1334   1.111   .     S
C1257  C1260   1.525   .     S
C1257  H1258   1.111   .     S
C1257  H1259   1.111   .     S
C1260  H1263   1.110   .     S
C1260  H1262   1.111   .     S
C1260  H1421   1.111   1_455 S
H1261  C1340   1.111   .     S
O1264  C1265   1.416   .     S
C1265  H1267   1.111   .     S
C1265  H1266   1.111   .     S
C1265  C1428   1.528   1_455 S
C1268  H1269   1.112   .     S
C1268  C1271   1.525   .     S
C1268  C1345   1.528   .     S
C1268  H1350   1.109   .     S
H1270  C1428   1.109   1_455 S
C1271  H1273   1.110   .     S
C1271  H1274   1.110   .     S
C1271  H1352   1.110   .     S
H1272  C1431   1.110   1_455 S
C1275  H1276   1.085   .     S
C1275  O1277   1.221   .     D
C1278  O1280   1.220   .     D
C1278  H1439   1.085   1_455 S
H1279  C1358   1.085   .     S
C1281  O1323   1.284   .     A
C1281  O1324   1.282   .     A
C1281  C1297   1.415   .     S
C1282  C1283   1.411   .     A
C1282  C564    1.425   1_556 S
C1282  C588    1.435   1_556 S
C1283  C1287   1.416   .     A
C1283  C1290   1.407   .     A
C1284  C1288   1.388   .     A
C1285  C1286   1.383   .     A
C1285  C564    1.419   1_556 S
C1285  C584    1.403   1_556 S
C1286  C1287   1.381   .     A
C1286  H1316   1.077   .     S
C1287  H1319   1.083   .     S
C1288  C1305   1.391   .     A
C1288  H1318   1.076   .     S
C1289  C1305   1.397   .     A
C1289  H1309   1.083   .     S
C1289  C1304   1.390   .     A
C1290  C1306   1.412   .     A
C1290  C1292   1.472   .     S
C1291  C1297   1.397   .     A
C1291  H1320   1.084   .     S
C1291  C813    1.370   1_565 S
C1292  O1326   1.298   .     A
C1292  O1325   1.293   .     A
C1293  C1294   1.396   .     A
C1293  H1310   1.084   .     S
C1294  C1302   1.415   .     S
C1294  C1295   1.397   .     A
C1295  H1311   1.084   .     S
C1296  H1312   1.084   .     S
C1296  C1297   1.395   .     A
C1296  C815    1.369   1_565 S
C1298  N1322   1.366   .     A
C1298  H1313   1.081   .     S
C1298  C1379   1.415   .     S
C1299  H1314   1.081   .     S
C1299  N1321   1.366   .     A
C1300  N1321   1.371   .     A
C1300  O1333   1.381   .     S
C1301  H1315   1.081   .     S
C1301  N1322   1.365   .     A
C1301  C1380   1.423   .     S
C1302  O1328   1.284   .     A
C1302  O1327   1.281   .     A
C1303  O1329   1.291   .     A
C1303  O1330   1.290   .     A
C1303  C1305   1.448   .     S
C1306  C1307   1.409   .     A
C1306  O1344   1.388   .     S
C1307  C588    1.419   1_556 S
C1307  C638    1.488   1_556 S
C1308  C1355   1.487   .     S
H1317  C584    1.083   1_556 S
N1321  Zn1331  2.011   .     S
N1322  Zn1332  2.011   .     S
O1323  Zn1331  1.996   .     S
O1324  Zn1332  1.992   .     S
O1325  Zn1331  1.980   .     S
O1326  Zn1332  1.932   .     S
O1327  Zn1331  1.992   .     S
O1328  Zn1332  1.996   .     S
O1329  Zn1331  1.932   .     S
O1330  Zn1332  1.980   .     S
O1333  C1334   1.409   .     S
C1334  H1335   1.117   .     S
C1334  C1337   1.529   .     S
H1336  C1414   1.111   .     S
C1337  C1340   1.525   .     S
C1337  H1338   1.111   .     S
C1337  H1339   1.111   .     S
C1340  H1343   1.110   .     S
C1340  H1342   1.111   .     S
H1341  C1420   1.111   .     S
O1344  C1345   1.416   .     S
C1345  H1347   1.111   .     S
C1345  H1346   1.111   .     S
C1348  H1349   1.112   .     S
C1348  C1351   1.525   .     S
C1348  C1425   1.528   .     S
C1348  H1430   1.109   .     S
C1351  H1353   1.110   .     S
C1351  H1354   1.110   .     S
C1351  H1432   1.110   .     S
C1355  H1356   1.085   .     S
C1355  O1357   1.221   .     D
C1358  O1360   1.220   .     D
H1359  C1438   1.085   .     S
C1361  O1403   1.284   .     A
C1361  O1404   1.282   .     A
C1361  C1377   1.415   .     S
C1362  C1363   1.411   .     A
C1362  C644    1.425   1_556 S
C1362  C668    1.435   1_556 S
C1363  C1367   1.416   .     A
C1363  C1370   1.407   .     A
C1364  C1368   1.388   .     A
C1365  C1366   1.383   .     A
C1365  C644    1.419   1_556 S
C1365  C664    1.403   1_556 S
C1366  C1367   1.381   .     A
C1366  H1396   1.077   .     S
C1367  H1399   1.083   .     S
C1368  C1385   1.391   .     A
C1368  H1398   1.076   .     S
C1369  C1385   1.397   .     A
C1369  H1389   1.083   .     S
C1369  C1384   1.390   .     A
C1370  C1386   1.412   .     A
C1370  C1372   1.472   .     S
C1371  C1377   1.397   .     A
C1371  H1400   1.084   .     S
C1371  C893    1.370   1_565 S
C1372  O1406   1.298   .     A
C1372  O1405   1.293   .     A
C1373  C1374   1.396   .     A
C1373  H1390   1.084   .     S
C1374  C1382   1.415   .     S
C1374  C1375   1.397   .     A
C1375  H1391   1.084   .     S
C1376  H1392   1.084   .     S
C1376  C1377   1.395   .     A
C1376  C895    1.369   1_565 S
C1378  N1402   1.366   .     A
C1378  H1393   1.081   .     S
C1378  C1219   1.415   1_655 S
C1379  H1394   1.081   .     S
C1379  N1401   1.366   .     A
C1380  N1401   1.371   .     A
C1380  O1413   1.381   .     S
C1381  H1395   1.081   .     S
C1381  N1402   1.365   .     A
C1381  C1220   1.423   1_655 S
C1382  O1408   1.284   .     A
C1382  O1407   1.281   .     A
C1383  O1409   1.291   .     A
C1383  O1410   1.290   .     A
C1383  C1385   1.448   .     S
C1386  C1387   1.409   .     A
C1386  O1424   1.388   .     S
C1387  C668    1.419   1_556 S
C1387  C718    1.488   1_556 S
C1388  C1435   1.487   .     S
H1397  C664    1.083   1_556 S
N1401  Zn1411  2.011   .     S
N1402  Zn1412  2.011   .     S
O1403  Zn1411  1.996   .     S
O1404  Zn1412  1.992   .     S
O1405  Zn1411  1.980   .     S
O1406  Zn1412  1.932   .     S
O1407  Zn1411  1.992   .     S
O1408  Zn1412  1.996   .     S
O1409  Zn1411  1.932   .     S
O1410  Zn1412  1.980   .     S
O1413  C1414   1.409   .     S
C1414  H1415   1.117   .     S
C1414  C1417   1.529   .     S
H1416  C1254   1.111   1_655 S
C1417  C1420   1.525   .     S
C1417  H1418   1.111   .     S
C1417  H1419   1.111   .     S
C1420  H1423   1.110   .     S
C1420  H1422   1.111   .     S
H1421  C1260   1.111   1_655 S
O1424  C1425   1.416   .     S
C1425  H1427   1.111   .     S
C1425  H1426   1.111   .     S
C1428  H1429   1.112   .     S
C1428  C1431   1.525   .     S
C1428  C1265   1.528   1_655 S
C1428  H1270   1.109   1_655 S
C1431  H1433   1.110   .     S
C1431  H1434   1.110   .     S
C1431  H1272   1.110   1_655 S
C1435  H1436   1.085   .     S
C1435  O1437   1.221   .     D
C1438  O1440   1.220   .     D
H1439  C1278   1.085   1_655 S
