data_str_m3_o1_o2_pcu_sym.23
_audit_creation_date              2020-01-03
_audit_creation_method            'Materials Studio'
_symmetry_space_group_name_H-M    'P1'
_symmetry_Int_Tables_number       1
_symmetry_cell_setting            triclinic
loop_
_symmetry_equiv_pos_as_xyz
  x,y,z
_cell_length_a                    31.9750
_cell_length_b                    29.9238
_cell_length_c                    30.1709
_cell_angle_alpha                 89.6311
_cell_angle_beta                  94.2760
_cell_angle_gamma                 90.0345
loop_
_atom_site_label
_atom_site_type_symbol
_atom_site_fract_x
_atom_site_fract_y
_atom_site_fract_z
_atom_site_U_iso_or_equiv
_atom_site_adp_type
_atom_site_occupancy
C1     C     0.08678   0.16664   0.24965   0.00000  Uiso   1.00
C2     C     0.31013   0.20013   0.22671   0.00000  Uiso   1.00
C3     C     0.31366   0.13345   0.27376   0.00000  Uiso   1.00
C4     C     0.01967   0.19988   0.22624   0.00000  Uiso   1.00
C5     C     0.15623   0.20893   0.04471   0.00000  Uiso   1.00
C6     C     0.17710   0.12441   0.45529   0.00000  Uiso   1.00
C7     C     0.18934   0.20286   0.45583   0.00000  Uiso   1.00
C8     C     0.14400   0.13047   0.04417   0.00000  Uiso   1.00
C9     C     0.16221   0.20896   0.09083   0.00000  Uiso   1.00
C10    C     0.17112   0.12437   0.40917   0.00000  Uiso   1.00
C11    C     0.18340   0.20511   0.40979   0.00000  Uiso   1.00
C12    C     0.24655   0.16669   0.25035   0.00000  Uiso   1.00
C13    C     0.14993   0.12822   0.09021   0.00000  Uiso   1.00
C14    C     0.16112   0.16765   0.11455   0.00000  Uiso   1.00
C15    C     0.17222   0.16568   0.38545   0.00000  Uiso   1.00
C16    C     0.15812   0.16825   0.02224   0.00000  Uiso   1.00
C17    C     0.17522   0.16508   0.47776   0.00000  Uiso   1.00
C18    C     0.29074   0.16680   0.25036   0.00000  Uiso   1.00
C19    C     0.04259   0.16654   0.24964   0.00000  Uiso   1.00
C20    C     0.22898   0.04719   0.30573   0.00000  Uiso   1.00
C21    C     0.10435   0.28615   0.19427   0.00000  Uiso   1.00
C22    C     0.09810   0.04898   0.20471   0.00000  Uiso   1.00
C23    C     0.16588   0.16685   0.16354   0.00000  Uiso   1.00
C24    C     0.23523   0.28435   0.29529   0.00000  Uiso   1.00
C25    C     0.16746   0.16648   0.33646   0.00000  Uiso   1.00
C26    C     0.19682   0.02367   0.27514   0.00000  Uiso   1.00
C27    C     0.13651   0.30966   0.22487   0.00000  Uiso   1.00
C28    C     0.13563   0.02417   0.22614   0.00000  Uiso   1.00
C29    C     0.19771   0.30916   0.27386   0.00000  Uiso   1.00
C30    C     0.02321   0.13320   0.27329   0.00000  Uiso   1.00
Cl31   Cl    0.13573   0.25751   0.01697   0.00000  Uiso   1.00
Cl32   Cl    0.19760   0.07582   0.48303   0.00000  Uiso   1.00
Cl33   Cl    0.22395   0.24135   0.48407   0.00000  Uiso   1.00
Cl34   Cl    0.10938   0.09198   0.01593   0.00000  Uiso   1.00
Cl35   Cl    0.17421   0.26144   0.11557   0.00000  Uiso   1.00
Cl36   Cl    0.15912   0.07190   0.38443   0.00000  Uiso   1.00
Cl37   Cl    0.18801   0.25890   0.38616   0.00000  Uiso   1.00
Cl38   Cl    0.14532   0.07444   0.11384   0.00000  Uiso   1.00
H39    H     0.04120   0.10766   0.29183   0.00000  Uiso   1.00
H40    H     0.10525   0.29948   0.15996   0.00000  Uiso   1.00
H41    H     0.10741   0.08079   0.19016   0.00000  Uiso   1.00
H42    H     0.08132   0.03157   0.17655   0.00000  Uiso   1.00
H43    H     0.07518   0.05464   0.22994   0.00000  Uiso   1.00
H44    H     0.22593   0.25254   0.30984   0.00000  Uiso   1.00
H45    H     0.25816   0.27869   0.27006   0.00000  Uiso   1.00
H46    H     0.25201   0.30176   0.32345   0.00000  Uiso   1.00
H47    H     0.29213   0.22567   0.20817   0.00000  Uiso   1.00
H48    H     0.29856   0.10835   0.29291   0.00000  Uiso   1.00
H49    H     0.03478   0.22498   0.20709   0.00000  Uiso   1.00
H50    H     0.22344   0.08276   0.30929   0.00000  Uiso   1.00
H51    H     0.22808   0.03385   0.34004   0.00000  Uiso   1.00
H52    H     0.26067   0.04214   0.29396   0.00000  Uiso   1.00
H53    H     0.10990   0.25058   0.19071   0.00000  Uiso   1.00
H54    H     0.07266   0.29119   0.20605   0.00000  Uiso   1.00
N55    N     0.16667   0.28573   0.25000   0.00000  Uiso   1.00
N56    N     0.16667   0.04760   0.25000   0.00000  Uiso   1.00
O57    O     0.10559   0.20487   0.25000   0.00000  Uiso   1.00
O58    O     0.22774   0.12846   0.25001   0.00000  Uiso   1.00
O59    O     0.22774   0.20487   0.25001   0.00000  Uiso   1.00
O60    O     0.10559   0.12846   0.25000   0.00000  Uiso   1.00
O61    O     0.16666   0.20489   0.18453   0.00000  Uiso   1.00
O62    O     0.16667   0.12845   0.31547   0.00000  Uiso   1.00
O63    O     0.16667   0.20489   0.31547   0.00000  Uiso   1.00
O64    O     0.16666   0.12845   0.18453   0.00000  Uiso   1.00
Zn65   Zn    0.16667   0.21771   0.25000   0.00000  Uiso   1.00
Zn66   Zn    0.16667   0.11563   0.25000   0.00000  Uiso   1.00
C67    C     0.42012   0.16664   0.24965   0.00000  Uiso   1.00
C68    C     0.64346   0.20013   0.22671   0.00000  Uiso   1.00
C69    C     0.64699   0.13345   0.27376   0.00000  Uiso   1.00
C70    C     0.35301   0.19988   0.22624   0.00000  Uiso   1.00
C71    C     0.48957   0.20893   0.04471   0.00000  Uiso   1.00
C72    C     0.51043   0.12441   0.45529   0.00000  Uiso   1.00
C73    C     0.52267   0.20286   0.45583   0.00000  Uiso   1.00
C74    C     0.47733   0.13047   0.04417   0.00000  Uiso   1.00
C75    C     0.49555   0.20896   0.09083   0.00000  Uiso   1.00
C76    C     0.50446   0.12437   0.40917   0.00000  Uiso   1.00
C77    C     0.51674   0.20511   0.40979   0.00000  Uiso   1.00
C78    C     0.57988   0.16669   0.25035   0.00000  Uiso   1.00
C79    C     0.48326   0.12822   0.09021   0.00000  Uiso   1.00
C80    C     0.49445   0.16765   0.11455   0.00000  Uiso   1.00
C81    C     0.50555   0.16568   0.38545   0.00000  Uiso   1.00
C82    C     0.49145   0.16825   0.02224   0.00000  Uiso   1.00
C83    C     0.50855   0.16508   0.47776   0.00000  Uiso   1.00
C84    C     0.62408   0.16680   0.25036   0.00000  Uiso   1.00
C85    C     0.37592   0.16654   0.24964   0.00000  Uiso   1.00
C86    C     0.56231   0.04719   0.30573   0.00000  Uiso   1.00
C87    C     0.43769   0.28615   0.19427   0.00000  Uiso   1.00
C88    C     0.43143   0.04898   0.20471   0.00000  Uiso   1.00
C89    C     0.49921   0.16685   0.16354   0.00000  Uiso   1.00
C90    C     0.56857   0.28435   0.29529   0.00000  Uiso   1.00
C91    C     0.50079   0.16648   0.33646   0.00000  Uiso   1.00
C92    C     0.53015   0.02367   0.27514   0.00000  Uiso   1.00
C93    C     0.46985   0.30966   0.22487   0.00000  Uiso   1.00
C94    C     0.46896   0.02417   0.22614   0.00000  Uiso   1.00
C95    C     0.53104   0.30916   0.27386   0.00000  Uiso   1.00
C96    C     0.35654   0.13320   0.27329   0.00000  Uiso   1.00
Cl97   Cl    0.46906   0.25751   0.01697   0.00000  Uiso   1.00
Cl98   Cl    0.53094   0.07582   0.48303   0.00000  Uiso   1.00
Cl99   Cl    0.55728   0.24135   0.48407   0.00000  Uiso   1.00
Cl100  Cl    0.44272   0.09198   0.01593   0.00000  Uiso   1.00
Cl101  Cl    0.50755   0.26144   0.11557   0.00000  Uiso   1.00
Cl102  Cl    0.49245   0.07190   0.38443   0.00000  Uiso   1.00
Cl103  Cl    0.52135   0.25890   0.38616   0.00000  Uiso   1.00
Cl104  Cl    0.47865   0.07444   0.11384   0.00000  Uiso   1.00
H105   H     0.37453   0.10766   0.29183   0.00000  Uiso   1.00
H106   H     0.43859   0.29948   0.15996   0.00000  Uiso   1.00
H107   H     0.44074   0.08079   0.19016   0.00000  Uiso   1.00
H108   H     0.41465   0.03157   0.17655   0.00000  Uiso   1.00
H109   H     0.40851   0.05464   0.22994   0.00000  Uiso   1.00
H110   H     0.55926   0.25254   0.30984   0.00000  Uiso   1.00
H111   H     0.59149   0.27869   0.27006   0.00000  Uiso   1.00
H112   H     0.58535   0.30176   0.32345   0.00000  Uiso   1.00
H113   H     0.62547   0.22567   0.20817   0.00000  Uiso   1.00
H114   H     0.63189   0.10835   0.29291   0.00000  Uiso   1.00
H115   H     0.36811   0.22498   0.20709   0.00000  Uiso   1.00
H116   H     0.55677   0.08276   0.30929   0.00000  Uiso   1.00
H117   H     0.56142   0.03385   0.34004   0.00000  Uiso   1.00
H118   H     0.59400   0.04214   0.29396   0.00000  Uiso   1.00
H119   H     0.44323   0.25058   0.19071   0.00000  Uiso   1.00
H120   H     0.40600   0.29119   0.20605   0.00000  Uiso   1.00
N121   N     0.50000   0.28573   0.25000   0.00000  Uiso   1.00
N122   N     0.50000   0.04760   0.25000   0.00000  Uiso   1.00
O123   O     0.43892   0.20487   0.25000   0.00000  Uiso   1.00
O124   O     0.56108   0.12846   0.25001   0.00000  Uiso   1.00
O125   O     0.56108   0.20487   0.25001   0.00000  Uiso   1.00
O126   O     0.43892   0.12846   0.25000   0.00000  Uiso   1.00
O127   O     0.50000   0.20489   0.18453   0.00000  Uiso   1.00
O128   O     0.50000   0.12845   0.31547   0.00000  Uiso   1.00
O129   O     0.50000   0.20489   0.31547   0.00000  Uiso   1.00
O130   O     0.50000   0.12845   0.18453   0.00000  Uiso   1.00
Zn131  Zn    0.50000   0.21771   0.25000   0.00000  Uiso   1.00
Zn132  Zn    0.50000   0.11563   0.25000   0.00000  Uiso   1.00
C133   C     0.75345   0.16664   0.24965   0.00000  Uiso   1.00
C134   C     0.97680   0.20013   0.22671   0.00000  Uiso   1.00
C135   C     0.98033   0.13345   0.27376   0.00000  Uiso   1.00
C136   C     0.68634   0.19988   0.22624   0.00000  Uiso   1.00
C137   C     0.82290   0.20893   0.04471   0.00000  Uiso   1.00
C138   C     0.84377   0.12441   0.45529   0.00000  Uiso   1.00
C139   C     0.85600   0.20286   0.45583   0.00000  Uiso   1.00
C140   C     0.81066   0.13047   0.04417   0.00000  Uiso   1.00
C141   C     0.82888   0.20896   0.09083   0.00000  Uiso   1.00
C142   C     0.83779   0.12437   0.40917   0.00000  Uiso   1.00
C143   C     0.85007   0.20511   0.40979   0.00000  Uiso   1.00
C144   C     0.91322   0.16669   0.25035   0.00000  Uiso   1.00
C145   C     0.81660   0.12822   0.09021   0.00000  Uiso   1.00
C146   C     0.82778   0.16765   0.11455   0.00000  Uiso   1.00
C147   C     0.83888   0.16568   0.38545   0.00000  Uiso   1.00
C148   C     0.82478   0.16825   0.02224   0.00000  Uiso   1.00
C149   C     0.84189   0.16508   0.47776   0.00000  Uiso   1.00
C150   C     0.95741   0.16680   0.25036   0.00000  Uiso   1.00
C151   C     0.70926   0.16654   0.24964   0.00000  Uiso   1.00
C152   C     0.89565   0.04719   0.30573   0.00000  Uiso   1.00
C153   C     0.77102   0.28615   0.19427   0.00000  Uiso   1.00
C154   C     0.76477   0.04898   0.20471   0.00000  Uiso   1.00
C155   C     0.83255   0.16685   0.16354   0.00000  Uiso   1.00
C156   C     0.90190   0.28435   0.29529   0.00000  Uiso   1.00
C157   C     0.83412   0.16648   0.33646   0.00000  Uiso   1.00
C158   C     0.86349   0.02367   0.27514   0.00000  Uiso   1.00
C159   C     0.80318   0.30966   0.22487   0.00000  Uiso   1.00
C160   C     0.80229   0.02417   0.22614   0.00000  Uiso   1.00
C161   C     0.86437   0.30916   0.27386   0.00000  Uiso   1.00
C162   C     0.68987   0.13320   0.27329   0.00000  Uiso   1.00
Cl163  Cl    0.80240   0.25751   0.01697   0.00000  Uiso   1.00
Cl164  Cl    0.86427   0.07582   0.48303   0.00000  Uiso   1.00
Cl165  Cl    0.89062   0.24135   0.48407   0.00000  Uiso   1.00
Cl166  Cl    0.77605   0.09198   0.01593   0.00000  Uiso   1.00
Cl167  Cl    0.84088   0.26144   0.11557   0.00000  Uiso   1.00
Cl168  Cl    0.82579   0.07190   0.38443   0.00000  Uiso   1.00
Cl169  Cl    0.85468   0.25890   0.38616   0.00000  Uiso   1.00
Cl170  Cl    0.81199   0.07444   0.11384   0.00000  Uiso   1.00
H171   H     0.70787   0.10766   0.29183   0.00000  Uiso   1.00
H172   H     0.77192   0.29948   0.15996   0.00000  Uiso   1.00
H173   H     0.77407   0.08079   0.19016   0.00000  Uiso   1.00
H174   H     0.74799   0.03157   0.17655   0.00000  Uiso   1.00
H175   H     0.74184   0.05464   0.22994   0.00000  Uiso   1.00
H176   H     0.89259   0.25254   0.30984   0.00000  Uiso   1.00
H177   H     0.92482   0.27869   0.27006   0.00000  Uiso   1.00
H178   H     0.91868   0.30176   0.32345   0.00000  Uiso   1.00
H179   H     0.95880   0.22567   0.20817   0.00000  Uiso   1.00
H180   H     0.96522   0.10835   0.29291   0.00000  Uiso   1.00
H181   H     0.70144   0.22498   0.20709   0.00000  Uiso   1.00
H182   H     0.89010   0.08276   0.30929   0.00000  Uiso   1.00
H183   H     0.89475   0.03385   0.34004   0.00000  Uiso   1.00
H184   H     0.92734   0.04214   0.29396   0.00000  Uiso   1.00
H185   H     0.77656   0.25058   0.19071   0.00000  Uiso   1.00
H186   H     0.73933   0.29119   0.20605   0.00000  Uiso   1.00
N187   N     0.83333   0.28573   0.25000   0.00000  Uiso   1.00
N188   N     0.83333   0.04760   0.25000   0.00000  Uiso   1.00
O189   O     0.77226   0.20487   0.25000   0.00000  Uiso   1.00
O190   O     0.89441   0.12846   0.25001   0.00000  Uiso   1.00
O191   O     0.89441   0.20487   0.25001   0.00000  Uiso   1.00
O192   O     0.77226   0.12846   0.25000   0.00000  Uiso   1.00
O193   O     0.83333   0.20489   0.18453   0.00000  Uiso   1.00
O194   O     0.83334   0.12845   0.31547   0.00000  Uiso   1.00
O195   O     0.83334   0.20489   0.31547   0.00000  Uiso   1.00
O196   O     0.83333   0.12845   0.18453   0.00000  Uiso   1.00
Zn197  Zn    0.83333   0.21771   0.25000   0.00000  Uiso   1.00
Zn198  Zn    0.83333   0.11563   0.25000   0.00000  Uiso   1.00
C199   C     0.08678   0.49998   0.24965   0.00000  Uiso   1.00
C200   C     0.31013   0.53346   0.22671   0.00000  Uiso   1.00
C201   C     0.31366   0.46679   0.27376   0.00000  Uiso   1.00
C202   C     0.01967   0.53321   0.22624   0.00000  Uiso   1.00
C203   C     0.15623   0.54226   0.04471   0.00000  Uiso   1.00
C204   C     0.17710   0.45774   0.45529   0.00000  Uiso   1.00
C205   C     0.18934   0.53619   0.45583   0.00000  Uiso   1.00
C206   C     0.14400   0.46381   0.04417   0.00000  Uiso   1.00
C207   C     0.16221   0.54229   0.09083   0.00000  Uiso   1.00
C208   C     0.17112   0.45771   0.40917   0.00000  Uiso   1.00
C209   C     0.18340   0.53845   0.40979   0.00000  Uiso   1.00
C210   C     0.24655   0.50002   0.25035   0.00000  Uiso   1.00
C211   C     0.14993   0.46156   0.09021   0.00000  Uiso   1.00
C212   C     0.16112   0.50098   0.11455   0.00000  Uiso   1.00
C213   C     0.17222   0.49902   0.38545   0.00000  Uiso   1.00
C214   C     0.15812   0.50159   0.02224   0.00000  Uiso   1.00
C215   C     0.17522   0.49842   0.47776   0.00000  Uiso   1.00
C216   C     0.29074   0.50013   0.25036   0.00000  Uiso   1.00
C217   C     0.04259   0.49987   0.24964   0.00000  Uiso   1.00
C218   C     0.22898   0.38052   0.30573   0.00000  Uiso   1.00
C219   C     0.10435   0.61948   0.19427   0.00000  Uiso   1.00
C220   C     0.09810   0.38232   0.20471   0.00000  Uiso   1.00
C221   C     0.16588   0.50019   0.16354   0.00000  Uiso   1.00
C222   C     0.23523   0.61768   0.29529   0.00000  Uiso   1.00
C223   C     0.16746   0.49981   0.33646   0.00000  Uiso   1.00
C224   C     0.19682   0.35701   0.27514   0.00000  Uiso   1.00
C225   C     0.13651   0.64300   0.22487   0.00000  Uiso   1.00
C226   C     0.13563   0.35750   0.22614   0.00000  Uiso   1.00
C227   C     0.19771   0.64250   0.27386   0.00000  Uiso   1.00
C228   C     0.02321   0.46654   0.27329   0.00000  Uiso   1.00
Cl229  Cl    0.13573   0.59084   0.01697   0.00000  Uiso   1.00
Cl230  Cl    0.19760   0.40916   0.48303   0.00000  Uiso   1.00
Cl231  Cl    0.22395   0.57468   0.48407   0.00000  Uiso   1.00
Cl232  Cl    0.10938   0.42532   0.01593   0.00000  Uiso   1.00
Cl233  Cl    0.17421   0.59477   0.11557   0.00000  Uiso   1.00
Cl234  Cl    0.15912   0.40523   0.38443   0.00000  Uiso   1.00
Cl235  Cl    0.18801   0.59223   0.38616   0.00000  Uiso   1.00
Cl236  Cl    0.14532   0.40777   0.11384   0.00000  Uiso   1.00
H237   H     0.04120   0.44100   0.29183   0.00000  Uiso   1.00
H238   H     0.10525   0.63282   0.15996   0.00000  Uiso   1.00
H239   H     0.10741   0.41413   0.19016   0.00000  Uiso   1.00
H240   H     0.08132   0.36491   0.17655   0.00000  Uiso   1.00
H241   H     0.07518   0.38798   0.22994   0.00000  Uiso   1.00
H242   H     0.22593   0.58587   0.30984   0.00000  Uiso   1.00
H243   H     0.25816   0.61202   0.27006   0.00000  Uiso   1.00
H244   H     0.25201   0.63509   0.32345   0.00000  Uiso   1.00
H245   H     0.29213   0.55900   0.20817   0.00000  Uiso   1.00
H246   H     0.29856   0.44168   0.29291   0.00000  Uiso   1.00
H247   H     0.03478   0.55832   0.20709   0.00000  Uiso   1.00
H248   H     0.22344   0.41609   0.30929   0.00000  Uiso   1.00
H249   H     0.22808   0.36718   0.34004   0.00000  Uiso   1.00
H250   H     0.26067   0.37548   0.29396   0.00000  Uiso   1.00
H251   H     0.10990   0.58391   0.19071   0.00000  Uiso   1.00
H252   H     0.07266   0.62452   0.20605   0.00000  Uiso   1.00
N253   N     0.16667   0.61907   0.25000   0.00000  Uiso   1.00
N254   N     0.16667   0.38093   0.25000   0.00000  Uiso   1.00
O255   O     0.10559   0.53821   0.25000   0.00000  Uiso   1.00
O256   O     0.22774   0.46179   0.25001   0.00000  Uiso   1.00
O257   O     0.22774   0.53821   0.25001   0.00000  Uiso   1.00
O258   O     0.10559   0.46179   0.25000   0.00000  Uiso   1.00
O259   O     0.16666   0.53822   0.18453   0.00000  Uiso   1.00
O260   O     0.16667   0.46178   0.31547   0.00000  Uiso   1.00
O261   O     0.16667   0.53822   0.31547   0.00000  Uiso   1.00
O262   O     0.16666   0.46178   0.18453   0.00000  Uiso   1.00
Zn263  Zn    0.16667   0.55104   0.25000   0.00000  Uiso   1.00
Zn264  Zn    0.16667   0.44896   0.25000   0.00000  Uiso   1.00
C265   C     0.42012   0.49998   0.24965   0.00000  Uiso   1.00
C266   C     0.64346   0.53346   0.22671   0.00000  Uiso   1.00
C267   C     0.64699   0.46679   0.27376   0.00000  Uiso   1.00
C268   C     0.35301   0.53321   0.22624   0.00000  Uiso   1.00
C269   C     0.48957   0.54226   0.04471   0.00000  Uiso   1.00
C270   C     0.51043   0.45774   0.45529   0.00000  Uiso   1.00
C271   C     0.52267   0.53619   0.45583   0.00000  Uiso   1.00
C272   C     0.47733   0.46381   0.04417   0.00000  Uiso   1.00
C273   C     0.49555   0.54229   0.09083   0.00000  Uiso   1.00
C274   C     0.50446   0.45771   0.40917   0.00000  Uiso   1.00
C275   C     0.51674   0.53845   0.40979   0.00000  Uiso   1.00
C276   C     0.57988   0.50002   0.25035   0.00000  Uiso   1.00
C277   C     0.48326   0.46156   0.09021   0.00000  Uiso   1.00
C278   C     0.49445   0.50098   0.11455   0.00000  Uiso   1.00
C279   C     0.50555   0.49902   0.38545   0.00000  Uiso   1.00
C280   C     0.49145   0.50159   0.02224   0.00000  Uiso   1.00
C281   C     0.50855   0.49842   0.47776   0.00000  Uiso   1.00
C282   C     0.62408   0.50013   0.25036   0.00000  Uiso   1.00
C283   C     0.37592   0.49987   0.24964   0.00000  Uiso   1.00
C284   C     0.56231   0.38052   0.30573   0.00000  Uiso   1.00
C285   C     0.43769   0.61948   0.19427   0.00000  Uiso   1.00
C286   C     0.43143   0.38232   0.20471   0.00000  Uiso   1.00
C287   C     0.49921   0.50019   0.16354   0.00000  Uiso   1.00
C288   C     0.56857   0.61768   0.29529   0.00000  Uiso   1.00
C289   C     0.50079   0.49981   0.33646   0.00000  Uiso   1.00
C290   C     0.53015   0.35701   0.27514   0.00000  Uiso   1.00
C291   C     0.46985   0.64300   0.22487   0.00000  Uiso   1.00
C292   C     0.46896   0.35750   0.22614   0.00000  Uiso   1.00
C293   C     0.53104   0.64250   0.27386   0.00000  Uiso   1.00
C294   C     0.35654   0.46654   0.27329   0.00000  Uiso   1.00
Cl295  Cl    0.46906   0.59084   0.01697   0.00000  Uiso   1.00
Cl296  Cl    0.53094   0.40916   0.48303   0.00000  Uiso   1.00
Cl297  Cl    0.55728   0.57468   0.48407   0.00000  Uiso   1.00
Cl298  Cl    0.44272   0.42532   0.01593   0.00000  Uiso   1.00
Cl299  Cl    0.50755   0.59477   0.11557   0.00000  Uiso   1.00
Cl300  Cl    0.49245   0.40523   0.38443   0.00000  Uiso   1.00
Cl301  Cl    0.52135   0.59223   0.38616   0.00000  Uiso   1.00
Cl302  Cl    0.47865   0.40777   0.11384   0.00000  Uiso   1.00
H303   H     0.37453   0.44100   0.29183   0.00000  Uiso   1.00
H304   H     0.43859   0.63282   0.15996   0.00000  Uiso   1.00
H305   H     0.44074   0.41413   0.19016   0.00000  Uiso   1.00
H306   H     0.41465   0.36491   0.17655   0.00000  Uiso   1.00
H307   H     0.40851   0.38798   0.22994   0.00000  Uiso   1.00
H308   H     0.55926   0.58587   0.30984   0.00000  Uiso   1.00
H309   H     0.59149   0.61202   0.27006   0.00000  Uiso   1.00
H310   H     0.58535   0.63509   0.32345   0.00000  Uiso   1.00
H311   H     0.62547   0.55900   0.20817   0.00000  Uiso   1.00
H312   H     0.63189   0.44168   0.29291   0.00000  Uiso   1.00
H313   H     0.36811   0.55832   0.20709   0.00000  Uiso   1.00
H314   H     0.55677   0.41609   0.30929   0.00000  Uiso   1.00
H315   H     0.56142   0.36718   0.34004   0.00000  Uiso   1.00
H316   H     0.59400   0.37548   0.29396   0.00000  Uiso   1.00
H317   H     0.44323   0.58391   0.19071   0.00000  Uiso   1.00
H318   H     0.40600   0.62452   0.20605   0.00000  Uiso   1.00
N319   N     0.50000   0.61907   0.25000   0.00000  Uiso   1.00
N320   N     0.50000   0.38093   0.25000   0.00000  Uiso   1.00
O321   O     0.43892   0.53821   0.25000   0.00000  Uiso   1.00
O322   O     0.56108   0.46179   0.25001   0.00000  Uiso   1.00
O323   O     0.56108   0.53821   0.25001   0.00000  Uiso   1.00
O324   O     0.43892   0.46179   0.25000   0.00000  Uiso   1.00
O325   O     0.50000   0.53822   0.18453   0.00000  Uiso   1.00
O326   O     0.50000   0.46178   0.31547   0.00000  Uiso   1.00
O327   O     0.50000   0.53822   0.31547   0.00000  Uiso   1.00
O328   O     0.50000   0.46178   0.18453   0.00000  Uiso   1.00
Zn329  Zn    0.50000   0.55104   0.25000   0.00000  Uiso   1.00
Zn330  Zn    0.50000   0.44896   0.25000   0.00000  Uiso   1.00
C331   C     0.75345   0.49998   0.24965   0.00000  Uiso   1.00
C332   C     0.97680   0.53346   0.22671   0.00000  Uiso   1.00
C333   C     0.98033   0.46679   0.27376   0.00000  Uiso   1.00
C334   C     0.68634   0.53321   0.22624   0.00000  Uiso   1.00
C335   C     0.82290   0.54226   0.04471   0.00000  Uiso   1.00
C336   C     0.84377   0.45774   0.45529   0.00000  Uiso   1.00
C337   C     0.85600   0.53619   0.45583   0.00000  Uiso   1.00
C338   C     0.81066   0.46381   0.04417   0.00000  Uiso   1.00
C339   C     0.82888   0.54229   0.09083   0.00000  Uiso   1.00
C340   C     0.83779   0.45771   0.40917   0.00000  Uiso   1.00
C341   C     0.85007   0.53845   0.40979   0.00000  Uiso   1.00
C342   C     0.91322   0.50002   0.25035   0.00000  Uiso   1.00
C343   C     0.81660   0.46156   0.09021   0.00000  Uiso   1.00
C344   C     0.82778   0.50098   0.11455   0.00000  Uiso   1.00
C345   C     0.83888   0.49902   0.38545   0.00000  Uiso   1.00
C346   C     0.82478   0.50159   0.02224   0.00000  Uiso   1.00
C347   C     0.84189   0.49842   0.47776   0.00000  Uiso   1.00
C348   C     0.95741   0.50013   0.25036   0.00000  Uiso   1.00
C349   C     0.70926   0.49987   0.24964   0.00000  Uiso   1.00
C350   C     0.89565   0.38052   0.30573   0.00000  Uiso   1.00
C351   C     0.77102   0.61948   0.19427   0.00000  Uiso   1.00
C352   C     0.76477   0.38232   0.20471   0.00000  Uiso   1.00
C353   C     0.83255   0.50019   0.16354   0.00000  Uiso   1.00
C354   C     0.90190   0.61768   0.29529   0.00000  Uiso   1.00
C355   C     0.83412   0.49981   0.33646   0.00000  Uiso   1.00
C356   C     0.86349   0.35701   0.27514   0.00000  Uiso   1.00
C357   C     0.80318   0.64300   0.22487   0.00000  Uiso   1.00
C358   C     0.80229   0.35750   0.22614   0.00000  Uiso   1.00
C359   C     0.86437   0.64250   0.27386   0.00000  Uiso   1.00
C360   C     0.68987   0.46654   0.27329   0.00000  Uiso   1.00
Cl361  Cl    0.80240   0.59084   0.01697   0.00000  Uiso   1.00
Cl362  Cl    0.86427   0.40916   0.48303   0.00000  Uiso   1.00
Cl363  Cl    0.89062   0.57468   0.48407   0.00000  Uiso   1.00
Cl364  Cl    0.77605   0.42532   0.01593   0.00000  Uiso   1.00
Cl365  Cl    0.84088   0.59477   0.11557   0.00000  Uiso   1.00
Cl366  Cl    0.82579   0.40523   0.38443   0.00000  Uiso   1.00
Cl367  Cl    0.85468   0.59223   0.38616   0.00000  Uiso   1.00
Cl368  Cl    0.81199   0.40777   0.11384   0.00000  Uiso   1.00
H369   H     0.70787   0.44100   0.29183   0.00000  Uiso   1.00
H370   H     0.77192   0.63282   0.15996   0.00000  Uiso   1.00
H371   H     0.77407   0.41413   0.19016   0.00000  Uiso   1.00
H372   H     0.74799   0.36491   0.17655   0.00000  Uiso   1.00
H373   H     0.74184   0.38798   0.22994   0.00000  Uiso   1.00
H374   H     0.89259   0.58587   0.30984   0.00000  Uiso   1.00
H375   H     0.92482   0.61202   0.27006   0.00000  Uiso   1.00
H376   H     0.91868   0.63509   0.32345   0.00000  Uiso   1.00
H377   H     0.95880   0.55900   0.20817   0.00000  Uiso   1.00
H378   H     0.96522   0.44168   0.29291   0.00000  Uiso   1.00
H379   H     0.70144   0.55832   0.20709   0.00000  Uiso   1.00
H380   H     0.89010   0.41609   0.30929   0.00000  Uiso   1.00
H381   H     0.89475   0.36718   0.34004   0.00000  Uiso   1.00
H382   H     0.92734   0.37548   0.29396   0.00000  Uiso   1.00
H383   H     0.77656   0.58391   0.19071   0.00000  Uiso   1.00
H384   H     0.73933   0.62452   0.20605   0.00000  Uiso   1.00
N385   N     0.83333   0.61907   0.25000   0.00000  Uiso   1.00
N386   N     0.83333   0.38093   0.25000   0.00000  Uiso   1.00
O387   O     0.77226   0.53821   0.25000   0.00000  Uiso   1.00
O388   O     0.89441   0.46179   0.25001   0.00000  Uiso   1.00
O389   O     0.89441   0.53821   0.25001   0.00000  Uiso   1.00
O390   O     0.77226   0.46179   0.25000   0.00000  Uiso   1.00
O391   O     0.83333   0.53822   0.18453   0.00000  Uiso   1.00
O392   O     0.83334   0.46178   0.31547   0.00000  Uiso   1.00
O393   O     0.83334   0.53822   0.31547   0.00000  Uiso   1.00
O394   O     0.83333   0.46178   0.18453   0.00000  Uiso   1.00
Zn395  Zn    0.83333   0.55104   0.25000   0.00000  Uiso   1.00
Zn396  Zn    0.83333   0.44896   0.25000   0.00000  Uiso   1.00
C397   C     0.08678   0.83331   0.24965   0.00000  Uiso   1.00
C398   C     0.31013   0.86680   0.22671   0.00000  Uiso   1.00
C399   C     0.31366   0.80012   0.27376   0.00000  Uiso   1.00
C400   C     0.01967   0.86655   0.22624   0.00000  Uiso   1.00
C401   C     0.15623   0.87559   0.04471   0.00000  Uiso   1.00
C402   C     0.17710   0.79107   0.45529   0.00000  Uiso   1.00
C403   C     0.18934   0.86953   0.45583   0.00000  Uiso   1.00
C404   C     0.14400   0.79714   0.04417   0.00000  Uiso   1.00
C405   C     0.16221   0.87563   0.09083   0.00000  Uiso   1.00
C406   C     0.17112   0.79104   0.40917   0.00000  Uiso   1.00
C407   C     0.18340   0.87178   0.40979   0.00000  Uiso   1.00
C408   C     0.24655   0.83336   0.25035   0.00000  Uiso   1.00
C409   C     0.14993   0.79489   0.09021   0.00000  Uiso   1.00
C410   C     0.16112   0.83432   0.11455   0.00000  Uiso   1.00
C411   C     0.17222   0.83235   0.38545   0.00000  Uiso   1.00
C412   C     0.15812   0.83492   0.02224   0.00000  Uiso   1.00
C413   C     0.17522   0.83175   0.47776   0.00000  Uiso   1.00
C414   C     0.29074   0.83346   0.25036   0.00000  Uiso   1.00
C415   C     0.04259   0.83320   0.24964   0.00000  Uiso   1.00
C416   C     0.22898   0.71385   0.30573   0.00000  Uiso   1.00
C417   C     0.10435   0.95281   0.19427   0.00000  Uiso   1.00
C418   C     0.09810   0.71565   0.20471   0.00000  Uiso   1.00
C419   C     0.16588   0.83352   0.16354   0.00000  Uiso   1.00
C420   C     0.23523   0.95102   0.29529   0.00000  Uiso   1.00
C421   C     0.16746   0.83315   0.33646   0.00000  Uiso   1.00
C422   C     0.19682   0.69034   0.27514   0.00000  Uiso   1.00
C423   C     0.13651   0.97633   0.22487   0.00000  Uiso   1.00
C424   C     0.13563   0.69084   0.22614   0.00000  Uiso   1.00
C425   C     0.19771   0.97583   0.27386   0.00000  Uiso   1.00
C426   C     0.02321   0.79987   0.27329   0.00000  Uiso   1.00
Cl427  Cl    0.13573   0.92418   0.01697   0.00000  Uiso   1.00
Cl428  Cl    0.19760   0.74249   0.48303   0.00000  Uiso   1.00
Cl429  Cl    0.22395   0.90802   0.48407   0.00000  Uiso   1.00
Cl430  Cl    0.10938   0.75865   0.01593   0.00000  Uiso   1.00
Cl431  Cl    0.17421   0.92810   0.11557   0.00000  Uiso   1.00
Cl432  Cl    0.15912   0.73856   0.38443   0.00000  Uiso   1.00
Cl433  Cl    0.18801   0.92556   0.38616   0.00000  Uiso   1.00
Cl434  Cl    0.14532   0.74110   0.11384   0.00000  Uiso   1.00
H435   H     0.04120   0.77433   0.29183   0.00000  Uiso   1.00
H436   H     0.10525   0.96615   0.15996   0.00000  Uiso   1.00
H437   H     0.10741   0.74746   0.19016   0.00000  Uiso   1.00
H438   H     0.08132   0.69824   0.17655   0.00000  Uiso   1.00
H439   H     0.07518   0.72131   0.22994   0.00000  Uiso   1.00
H440   H     0.22593   0.91921   0.30984   0.00000  Uiso   1.00
H441   H     0.25816   0.94536   0.27006   0.00000  Uiso   1.00
H442   H     0.25201   0.96843   0.32345   0.00000  Uiso   1.00
H443   H     0.29213   0.89234   0.20817   0.00000  Uiso   1.00
H444   H     0.29856   0.77502   0.29291   0.00000  Uiso   1.00
H445   H     0.03478   0.89165   0.20709   0.00000  Uiso   1.00
H446   H     0.22344   0.74942   0.30929   0.00000  Uiso   1.00
H447   H     0.22808   0.70052   0.34004   0.00000  Uiso   1.00
H448   H     0.26067   0.70881   0.29396   0.00000  Uiso   1.00
H449   H     0.10990   0.91724   0.19071   0.00000  Uiso   1.00
H450   H     0.07266   0.95786   0.20605   0.00000  Uiso   1.00
N451   N     0.16667   0.95240   0.25000   0.00000  Uiso   1.00
N452   N     0.16667   0.71427   0.25000   0.00000  Uiso   1.00
O453   O     0.10559   0.87154   0.25000   0.00000  Uiso   1.00
O454   O     0.22774   0.79513   0.25001   0.00000  Uiso   1.00
O455   O     0.22774   0.87154   0.25001   0.00000  Uiso   1.00
O456   O     0.10559   0.79513   0.25000   0.00000  Uiso   1.00
O457   O     0.16666   0.87155   0.18453   0.00000  Uiso   1.00
O458   O     0.16667   0.79511   0.31547   0.00000  Uiso   1.00
O459   O     0.16667   0.87155   0.31547   0.00000  Uiso   1.00
O460   O     0.16666   0.79511   0.18453   0.00000  Uiso   1.00
Zn461  Zn    0.16667   0.88437   0.25000   0.00000  Uiso   1.00
Zn462  Zn    0.16667   0.78229   0.25000   0.00000  Uiso   1.00
C463   C     0.42012   0.83331   0.24965   0.00000  Uiso   1.00
C464   C     0.64346   0.86680   0.22671   0.00000  Uiso   1.00
C465   C     0.64699   0.80012   0.27376   0.00000  Uiso   1.00
C466   C     0.35301   0.86655   0.22624   0.00000  Uiso   1.00
C467   C     0.48957   0.87559   0.04471   0.00000  Uiso   1.00
C468   C     0.51043   0.79107   0.45529   0.00000  Uiso   1.00
C469   C     0.52267   0.86953   0.45583   0.00000  Uiso   1.00
C470   C     0.47733   0.79714   0.04417   0.00000  Uiso   1.00
C471   C     0.49555   0.87563   0.09083   0.00000  Uiso   1.00
C472   C     0.50446   0.79104   0.40917   0.00000  Uiso   1.00
C473   C     0.51674   0.87178   0.40979   0.00000  Uiso   1.00
C474   C     0.57988   0.83336   0.25035   0.00000  Uiso   1.00
C475   C     0.48326   0.79489   0.09021   0.00000  Uiso   1.00
C476   C     0.49445   0.83432   0.11455   0.00000  Uiso   1.00
C477   C     0.50555   0.83235   0.38545   0.00000  Uiso   1.00
C478   C     0.49145   0.83492   0.02224   0.00000  Uiso   1.00
C479   C     0.50855   0.83175   0.47776   0.00000  Uiso   1.00
C480   C     0.62408   0.83346   0.25036   0.00000  Uiso   1.00
C481   C     0.37592   0.83320   0.24964   0.00000  Uiso   1.00
C482   C     0.56231   0.71385   0.30573   0.00000  Uiso   1.00
C483   C     0.43769   0.95281   0.19427   0.00000  Uiso   1.00
C484   C     0.43143   0.71565   0.20471   0.00000  Uiso   1.00
C485   C     0.49921   0.83352   0.16354   0.00000  Uiso   1.00
C486   C     0.56857   0.95102   0.29529   0.00000  Uiso   1.00
C487   C     0.50079   0.83315   0.33646   0.00000  Uiso   1.00
C488   C     0.53015   0.69034   0.27514   0.00000  Uiso   1.00
C489   C     0.46985   0.97633   0.22487   0.00000  Uiso   1.00
C490   C     0.46896   0.69084   0.22614   0.00000  Uiso   1.00
C491   C     0.53104   0.97583   0.27386   0.00000  Uiso   1.00
C492   C     0.35654   0.79987   0.27329   0.00000  Uiso   1.00
Cl493  Cl    0.46906   0.92418   0.01697   0.00000  Uiso   1.00
Cl494  Cl    0.53094   0.74249   0.48303   0.00000  Uiso   1.00
Cl495  Cl    0.55728   0.90802   0.48407   0.00000  Uiso   1.00
Cl496  Cl    0.44272   0.75865   0.01593   0.00000  Uiso   1.00
Cl497  Cl    0.50755   0.92810   0.11557   0.00000  Uiso   1.00
Cl498  Cl    0.49245   0.73856   0.38443   0.00000  Uiso   1.00
Cl499  Cl    0.52135   0.92556   0.38616   0.00000  Uiso   1.00
Cl500  Cl    0.47865   0.74110   0.11384   0.00000  Uiso   1.00
H501   H     0.37453   0.77433   0.29183   0.00000  Uiso   1.00
H502   H     0.43859   0.96615   0.15996   0.00000  Uiso   1.00
H503   H     0.44074   0.74746   0.19016   0.00000  Uiso   1.00
H504   H     0.41465   0.69824   0.17655   0.00000  Uiso   1.00
H505   H     0.40851   0.72131   0.22994   0.00000  Uiso   1.00
H506   H     0.55926   0.91921   0.30984   0.00000  Uiso   1.00
H507   H     0.59149   0.94536   0.27006   0.00000  Uiso   1.00
H508   H     0.58535   0.96843   0.32345   0.00000  Uiso   1.00
H509   H     0.62547   0.89234   0.20817   0.00000  Uiso   1.00
H510   H     0.63189   0.77502   0.29291   0.00000  Uiso   1.00
H511   H     0.36811   0.89165   0.20709   0.00000  Uiso   1.00
H512   H     0.55677   0.74942   0.30929   0.00000  Uiso   1.00
H513   H     0.56142   0.70052   0.34004   0.00000  Uiso   1.00
H514   H     0.59400   0.70881   0.29396   0.00000  Uiso   1.00
H515   H     0.44323   0.91724   0.19071   0.00000  Uiso   1.00
H516   H     0.40600   0.95786   0.20605   0.00000  Uiso   1.00
N517   N     0.50000   0.95240   0.25000   0.00000  Uiso   1.00
N518   N     0.50000   0.71427   0.25000   0.00000  Uiso   1.00
O519   O     0.43892   0.87154   0.25000   0.00000  Uiso   1.00
O520   O     0.56108   0.79513   0.25001   0.00000  Uiso   1.00
O521   O     0.56108   0.87154   0.25001   0.00000  Uiso   1.00
O522   O     0.43892   0.79513   0.25000   0.00000  Uiso   1.00
O523   O     0.50000   0.87155   0.18453   0.00000  Uiso   1.00
O524   O     0.50000   0.79511   0.31547   0.00000  Uiso   1.00
O525   O     0.50000   0.87155   0.31547   0.00000  Uiso   1.00
O526   O     0.50000   0.79511   0.18453   0.00000  Uiso   1.00
Zn527  Zn    0.50000   0.88437   0.25000   0.00000  Uiso   1.00
Zn528  Zn    0.50000   0.78229   0.25000   0.00000  Uiso   1.00
C529   C     0.75345   0.83331   0.24965   0.00000  Uiso   1.00
C530   C     0.97680   0.86680   0.22671   0.00000  Uiso   1.00
C531   C     0.98033   0.80012   0.27376   0.00000  Uiso   1.00
C532   C     0.68634   0.86655   0.22624   0.00000  Uiso   1.00
C533   C     0.82290   0.87559   0.04471   0.00000  Uiso   1.00
C534   C     0.84377   0.79107   0.45529   0.00000  Uiso   1.00
C535   C     0.85600   0.86953   0.45583   0.00000  Uiso   1.00
C536   C     0.81066   0.79714   0.04417   0.00000  Uiso   1.00
C537   C     0.82888   0.87563   0.09083   0.00000  Uiso   1.00
C538   C     0.83779   0.79104   0.40917   0.00000  Uiso   1.00
C539   C     0.85007   0.87178   0.40979   0.00000  Uiso   1.00
C540   C     0.91322   0.83336   0.25035   0.00000  Uiso   1.00
C541   C     0.81660   0.79489   0.09021   0.00000  Uiso   1.00
C542   C     0.82778   0.83432   0.11455   0.00000  Uiso   1.00
C543   C     0.83888   0.83235   0.38545   0.00000  Uiso   1.00
C544   C     0.82478   0.83492   0.02224   0.00000  Uiso   1.00
C545   C     0.84189   0.83175   0.47776   0.00000  Uiso   1.00
C546   C     0.95741   0.83346   0.25036   0.00000  Uiso   1.00
C547   C     0.70926   0.83320   0.24964   0.00000  Uiso   1.00
C548   C     0.89565   0.71385   0.30573   0.00000  Uiso   1.00
C549   C     0.77102   0.95281   0.19427   0.00000  Uiso   1.00
C550   C     0.76477   0.71565   0.20471   0.00000  Uiso   1.00
C551   C     0.83255   0.83352   0.16354   0.00000  Uiso   1.00
C552   C     0.90190   0.95102   0.29529   0.00000  Uiso   1.00
C553   C     0.83412   0.83315   0.33646   0.00000  Uiso   1.00
C554   C     0.86349   0.69034   0.27514   0.00000  Uiso   1.00
C555   C     0.80318   0.97633   0.22487   0.00000  Uiso   1.00
C556   C     0.80229   0.69084   0.22614   0.00000  Uiso   1.00
C557   C     0.86437   0.97583   0.27386   0.00000  Uiso   1.00
C558   C     0.68987   0.79987   0.27329   0.00000  Uiso   1.00
Cl559  Cl    0.80240   0.92418   0.01697   0.00000  Uiso   1.00
Cl560  Cl    0.86427   0.74249   0.48303   0.00000  Uiso   1.00
Cl561  Cl    0.89062   0.90802   0.48407   0.00000  Uiso   1.00
Cl562  Cl    0.77605   0.75865   0.01593   0.00000  Uiso   1.00
Cl563  Cl    0.84088   0.92810   0.11557   0.00000  Uiso   1.00
Cl564  Cl    0.82579   0.73856   0.38443   0.00000  Uiso   1.00
Cl565  Cl    0.85468   0.92556   0.38616   0.00000  Uiso   1.00
Cl566  Cl    0.81199   0.74110   0.11384   0.00000  Uiso   1.00
H567   H     0.70787   0.77433   0.29183   0.00000  Uiso   1.00
H568   H     0.77192   0.96615   0.15996   0.00000  Uiso   1.00
H569   H     0.77407   0.74746   0.19016   0.00000  Uiso   1.00
H570   H     0.74799   0.69824   0.17655   0.00000  Uiso   1.00
H571   H     0.74184   0.72131   0.22994   0.00000  Uiso   1.00
H572   H     0.89259   0.91921   0.30984   0.00000  Uiso   1.00
H573   H     0.92482   0.94536   0.27006   0.00000  Uiso   1.00
H574   H     0.91868   0.96843   0.32345   0.00000  Uiso   1.00
H575   H     0.95880   0.89234   0.20817   0.00000  Uiso   1.00
H576   H     0.96522   0.77502   0.29291   0.00000  Uiso   1.00
H577   H     0.70144   0.89165   0.20709   0.00000  Uiso   1.00
H578   H     0.89010   0.74942   0.30929   0.00000  Uiso   1.00
H579   H     0.89475   0.70052   0.34004   0.00000  Uiso   1.00
H580   H     0.92734   0.70881   0.29396   0.00000  Uiso   1.00
H581   H     0.77656   0.91724   0.19071   0.00000  Uiso   1.00
H582   H     0.73933   0.95786   0.20605   0.00000  Uiso   1.00
N583   N     0.83333   0.95240   0.25000   0.00000  Uiso   1.00
N584   N     0.83333   0.71427   0.25000   0.00000  Uiso   1.00
O585   O     0.77226   0.87154   0.25000   0.00000  Uiso   1.00
O586   O     0.89441   0.79513   0.25001   0.00000  Uiso   1.00
O587   O     0.89441   0.87154   0.25001   0.00000  Uiso   1.00
O588   O     0.77226   0.79513   0.25000   0.00000  Uiso   1.00
O589   O     0.83333   0.87155   0.18453   0.00000  Uiso   1.00
O590   O     0.83334   0.79511   0.31547   0.00000  Uiso   1.00
O591   O     0.83334   0.87155   0.31547   0.00000  Uiso   1.00
O592   O     0.83333   0.79511   0.18453   0.00000  Uiso   1.00
Zn593  Zn    0.83333   0.88437   0.25000   0.00000  Uiso   1.00
Zn594  Zn    0.83333   0.78229   0.25000   0.00000  Uiso   1.00
C595   C     0.08678   0.16664   0.74965   0.00000  Uiso   1.00
C596   C     0.31013   0.20013   0.72671   0.00000  Uiso   1.00
C597   C     0.31366   0.13345   0.77376   0.00000  Uiso   1.00
C598   C     0.01967   0.19988   0.72624   0.00000  Uiso   1.00
C599   C     0.15623   0.20893   0.54471   0.00000  Uiso   1.00
C600   C     0.17710   0.12441   0.95529   0.00000  Uiso   1.00
C601   C     0.18934   0.20286   0.95583   0.00000  Uiso   1.00
C602   C     0.14400   0.13047   0.54417   0.00000  Uiso   1.00
C603   C     0.16221   0.20896   0.59083   0.00000  Uiso   1.00
C604   C     0.17112   0.12437   0.90917   0.00000  Uiso   1.00
C605   C     0.18340   0.20511   0.90979   0.00000  Uiso   1.00
C606   C     0.24655   0.16669   0.75035   0.00000  Uiso   1.00
C607   C     0.14993   0.12822   0.59021   0.00000  Uiso   1.00
C608   C     0.16112   0.16765   0.61455   0.00000  Uiso   1.00
C609   C     0.17222   0.16568   0.88545   0.00000  Uiso   1.00
C610   C     0.15812   0.16825   0.52224   0.00000  Uiso   1.00
C611   C     0.17522   0.16508   0.97776   0.00000  Uiso   1.00
C612   C     0.29074   0.16680   0.75036   0.00000  Uiso   1.00
C613   C     0.04259   0.16654   0.74964   0.00000  Uiso   1.00
C614   C     0.22898   0.04719   0.80573   0.00000  Uiso   1.00
C615   C     0.10435   0.28615   0.69427   0.00000  Uiso   1.00
C616   C     0.09810   0.04898   0.70471   0.00000  Uiso   1.00
C617   C     0.16588   0.16685   0.66354   0.00000  Uiso   1.00
C618   C     0.23523   0.28435   0.79529   0.00000  Uiso   1.00
C619   C     0.16746   0.16648   0.83646   0.00000  Uiso   1.00
C620   C     0.19682   0.02367   0.77514   0.00000  Uiso   1.00
C621   C     0.13651   0.30966   0.72487   0.00000  Uiso   1.00
C622   C     0.13563   0.02417   0.72614   0.00000  Uiso   1.00
C623   C     0.19771   0.30916   0.77386   0.00000  Uiso   1.00
C624   C     0.02321   0.13320   0.77329   0.00000  Uiso   1.00
Cl625  Cl    0.13573   0.25751   0.51697   0.00000  Uiso   1.00
Cl626  Cl    0.19760   0.07582   0.98303   0.00000  Uiso   1.00
Cl627  Cl    0.22395   0.24135   0.98407   0.00000  Uiso   1.00
Cl628  Cl    0.10938   0.09198   0.51593   0.00000  Uiso   1.00
Cl629  Cl    0.17421   0.26144   0.61557   0.00000  Uiso   1.00
Cl630  Cl    0.15912   0.07190   0.88443   0.00000  Uiso   1.00
Cl631  Cl    0.18801   0.25890   0.88616   0.00000  Uiso   1.00
Cl632  Cl    0.14532   0.07444   0.61384   0.00000  Uiso   1.00
H633   H     0.04120   0.10766   0.79183   0.00000  Uiso   1.00
H634   H     0.10525   0.29948   0.65996   0.00000  Uiso   1.00
H635   H     0.10741   0.08079   0.69016   0.00000  Uiso   1.00
H636   H     0.08132   0.03157   0.67655   0.00000  Uiso   1.00
H637   H     0.07518   0.05464   0.72994   0.00000  Uiso   1.00
H638   H     0.22593   0.25254   0.80984   0.00000  Uiso   1.00
H639   H     0.25816   0.27869   0.77006   0.00000  Uiso   1.00
H640   H     0.25201   0.30176   0.82345   0.00000  Uiso   1.00
H641   H     0.29213   0.22567   0.70817   0.00000  Uiso   1.00
H642   H     0.29856   0.10835   0.79291   0.00000  Uiso   1.00
H643   H     0.03478   0.22498   0.70709   0.00000  Uiso   1.00
H644   H     0.22344   0.08276   0.80929   0.00000  Uiso   1.00
H645   H     0.22808   0.03385   0.84004   0.00000  Uiso   1.00
H646   H     0.26067   0.04214   0.79396   0.00000  Uiso   1.00
H647   H     0.10990   0.25058   0.69071   0.00000  Uiso   1.00
H648   H     0.07266   0.29119   0.70605   0.00000  Uiso   1.00
N649   N     0.16667   0.28573   0.75000   0.00000  Uiso   1.00
N650   N     0.16667   0.04760   0.75000   0.00000  Uiso   1.00
O651   O     0.10559   0.20487   0.75000   0.00000  Uiso   1.00
O652   O     0.22774   0.12846   0.75001   0.00000  Uiso   1.00
O653   O     0.22774   0.20487   0.75001   0.00000  Uiso   1.00
O654   O     0.10559   0.12846   0.75000   0.00000  Uiso   1.00
O655   O     0.16666   0.20489   0.68453   0.00000  Uiso   1.00
O656   O     0.16667   0.12845   0.81547   0.00000  Uiso   1.00
O657   O     0.16667   0.20489   0.81547   0.00000  Uiso   1.00
O658   O     0.16666   0.12845   0.68453   0.00000  Uiso   1.00
Zn659  Zn    0.16667   0.21771   0.75000   0.00000  Uiso   1.00
Zn660  Zn    0.16667   0.11563   0.75000   0.00000  Uiso   1.00
C661   C     0.42012   0.16664   0.74965   0.00000  Uiso   1.00
C662   C     0.64346   0.20013   0.72671   0.00000  Uiso   1.00
C663   C     0.64699   0.13345   0.77376   0.00000  Uiso   1.00
C664   C     0.35301   0.19988   0.72624   0.00000  Uiso   1.00
C665   C     0.48957   0.20893   0.54471   0.00000  Uiso   1.00
C666   C     0.51043   0.12441   0.95529   0.00000  Uiso   1.00
C667   C     0.52267   0.20286   0.95583   0.00000  Uiso   1.00
C668   C     0.47733   0.13047   0.54417   0.00000  Uiso   1.00
C669   C     0.49555   0.20896   0.59083   0.00000  Uiso   1.00
C670   C     0.50446   0.12437   0.90917   0.00000  Uiso   1.00
C671   C     0.51674   0.20511   0.90979   0.00000  Uiso   1.00
C672   C     0.57988   0.16669   0.75035   0.00000  Uiso   1.00
C673   C     0.48326   0.12822   0.59021   0.00000  Uiso   1.00
C674   C     0.49445   0.16765   0.61455   0.00000  Uiso   1.00
C675   C     0.50555   0.16568   0.88545   0.00000  Uiso   1.00
C676   C     0.49145   0.16825   0.52224   0.00000  Uiso   1.00
C677   C     0.50855   0.16508   0.97776   0.00000  Uiso   1.00
C678   C     0.62408   0.16680   0.75036   0.00000  Uiso   1.00
C679   C     0.37592   0.16654   0.74964   0.00000  Uiso   1.00
C680   C     0.56231   0.04719   0.80573   0.00000  Uiso   1.00
C681   C     0.43769   0.28615   0.69427   0.00000  Uiso   1.00
C682   C     0.43143   0.04898   0.70471   0.00000  Uiso   1.00
C683   C     0.49921   0.16685   0.66354   0.00000  Uiso   1.00
C684   C     0.56857   0.28435   0.79529   0.00000  Uiso   1.00
C685   C     0.50079   0.16648   0.83646   0.00000  Uiso   1.00
C686   C     0.53015   0.02367   0.77514   0.00000  Uiso   1.00
C687   C     0.46985   0.30966   0.72487   0.00000  Uiso   1.00
C688   C     0.46896   0.02417   0.72614   0.00000  Uiso   1.00
C689   C     0.53104   0.30916   0.77386   0.00000  Uiso   1.00
C690   C     0.35654   0.13320   0.77329   0.00000  Uiso   1.00
Cl691  Cl    0.46906   0.25751   0.51697   0.00000  Uiso   1.00
Cl692  Cl    0.53094   0.07582   0.98303   0.00000  Uiso   1.00
Cl693  Cl    0.55728   0.24135   0.98407   0.00000  Uiso   1.00
Cl694  Cl    0.44272   0.09198   0.51593   0.00000  Uiso   1.00
Cl695  Cl    0.50755   0.26144   0.61557   0.00000  Uiso   1.00
Cl696  Cl    0.49245   0.07190   0.88443   0.00000  Uiso   1.00
Cl697  Cl    0.52135   0.25890   0.88616   0.00000  Uiso   1.00
Cl698  Cl    0.47865   0.07444   0.61384   0.00000  Uiso   1.00
H699   H     0.37453   0.10766   0.79183   0.00000  Uiso   1.00
H700   H     0.43859   0.29948   0.65996   0.00000  Uiso   1.00
H701   H     0.44074   0.08079   0.69016   0.00000  Uiso   1.00
H702   H     0.41465   0.03157   0.67655   0.00000  Uiso   1.00
H703   H     0.40851   0.05464   0.72994   0.00000  Uiso   1.00
H704   H     0.55926   0.25254   0.80984   0.00000  Uiso   1.00
H705   H     0.59149   0.27869   0.77006   0.00000  Uiso   1.00
H706   H     0.58535   0.30176   0.82345   0.00000  Uiso   1.00
H707   H     0.62547   0.22567   0.70817   0.00000  Uiso   1.00
H708   H     0.63189   0.10835   0.79291   0.00000  Uiso   1.00
H709   H     0.36811   0.22498   0.70709   0.00000  Uiso   1.00
H710   H     0.55677   0.08276   0.80929   0.00000  Uiso   1.00
H711   H     0.56142   0.03385   0.84004   0.00000  Uiso   1.00
H712   H     0.59400   0.04214   0.79396   0.00000  Uiso   1.00
H713   H     0.44323   0.25058   0.69071   0.00000  Uiso   1.00
H714   H     0.40600   0.29119   0.70605   0.00000  Uiso   1.00
N715   N     0.50000   0.28573   0.75000   0.00000  Uiso   1.00
N716   N     0.50000   0.04760   0.75000   0.00000  Uiso   1.00
O717   O     0.43892   0.20487   0.75000   0.00000  Uiso   1.00
O718   O     0.56108   0.12846   0.75001   0.00000  Uiso   1.00
O719   O     0.56108   0.20487   0.75001   0.00000  Uiso   1.00
O720   O     0.43892   0.12846   0.75000   0.00000  Uiso   1.00
O721   O     0.50000   0.20489   0.68453   0.00000  Uiso   1.00
O722   O     0.50000   0.12845   0.81547   0.00000  Uiso   1.00
O723   O     0.50000   0.20489   0.81547   0.00000  Uiso   1.00
O724   O     0.50000   0.12845   0.68453   0.00000  Uiso   1.00
Zn725  Zn    0.50000   0.21771   0.75000   0.00000  Uiso   1.00
Zn726  Zn    0.50000   0.11563   0.75000   0.00000  Uiso   1.00
C727   C     0.75345   0.16664   0.74965   0.00000  Uiso   1.00
C728   C     0.97680   0.20013   0.72671   0.00000  Uiso   1.00
C729   C     0.98033   0.13345   0.77376   0.00000  Uiso   1.00
C730   C     0.68634   0.19988   0.72624   0.00000  Uiso   1.00
C731   C     0.82290   0.20893   0.54471   0.00000  Uiso   1.00
C732   C     0.84377   0.12441   0.95529   0.00000  Uiso   1.00
C733   C     0.85600   0.20286   0.95583   0.00000  Uiso   1.00
C734   C     0.81066   0.13047   0.54417   0.00000  Uiso   1.00
C735   C     0.82888   0.20896   0.59083   0.00000  Uiso   1.00
C736   C     0.83779   0.12437   0.90917   0.00000  Uiso   1.00
C737   C     0.85007   0.20511   0.90979   0.00000  Uiso   1.00
C738   C     0.91322   0.16669   0.75035   0.00000  Uiso   1.00
C739   C     0.81660   0.12822   0.59021   0.00000  Uiso   1.00
C740   C     0.82778   0.16765   0.61455   0.00000  Uiso   1.00
C741   C     0.83888   0.16568   0.88545   0.00000  Uiso   1.00
C742   C     0.82478   0.16825   0.52224   0.00000  Uiso   1.00
C743   C     0.84189   0.16508   0.97776   0.00000  Uiso   1.00
C744   C     0.95741   0.16680   0.75036   0.00000  Uiso   1.00
C745   C     0.70926   0.16654   0.74964   0.00000  Uiso   1.00
C746   C     0.89565   0.04719   0.80573   0.00000  Uiso   1.00
C747   C     0.77102   0.28615   0.69427   0.00000  Uiso   1.00
C748   C     0.76477   0.04898   0.70471   0.00000  Uiso   1.00
C749   C     0.83255   0.16685   0.66354   0.00000  Uiso   1.00
C750   C     0.90190   0.28435   0.79529   0.00000  Uiso   1.00
C751   C     0.83412   0.16648   0.83646   0.00000  Uiso   1.00
C752   C     0.86349   0.02367   0.77514   0.00000  Uiso   1.00
C753   C     0.80318   0.30966   0.72487   0.00000  Uiso   1.00
C754   C     0.80229   0.02417   0.72614   0.00000  Uiso   1.00
C755   C     0.86437   0.30916   0.77386   0.00000  Uiso   1.00
C756   C     0.68987   0.13320   0.77329   0.00000  Uiso   1.00
Cl757  Cl    0.80240   0.25751   0.51697   0.00000  Uiso   1.00
Cl758  Cl    0.86427   0.07582   0.98303   0.00000  Uiso   1.00
Cl759  Cl    0.89062   0.24135   0.98407   0.00000  Uiso   1.00
Cl760  Cl    0.77605   0.09198   0.51593   0.00000  Uiso   1.00
Cl761  Cl    0.84088   0.26144   0.61557   0.00000  Uiso   1.00
Cl762  Cl    0.82579   0.07190   0.88443   0.00000  Uiso   1.00
Cl763  Cl    0.85468   0.25890   0.88616   0.00000  Uiso   1.00
Cl764  Cl    0.81199   0.07444   0.61384   0.00000  Uiso   1.00
H765   H     0.70787   0.10766   0.79183   0.00000  Uiso   1.00
H766   H     0.77192   0.29948   0.65996   0.00000  Uiso   1.00
H767   H     0.77407   0.08079   0.69016   0.00000  Uiso   1.00
H768   H     0.74799   0.03157   0.67655   0.00000  Uiso   1.00
H769   H     0.74184   0.05464   0.72994   0.00000  Uiso   1.00
H770   H     0.89259   0.25254   0.80984   0.00000  Uiso   1.00
H771   H     0.92482   0.27869   0.77006   0.00000  Uiso   1.00
H772   H     0.91868   0.30176   0.82345   0.00000  Uiso   1.00
H773   H     0.95880   0.22567   0.70817   0.00000  Uiso   1.00
H774   H     0.96522   0.10835   0.79291   0.00000  Uiso   1.00
H775   H     0.70144   0.22498   0.70709   0.00000  Uiso   1.00
H776   H     0.89010   0.08276   0.80929   0.00000  Uiso   1.00
H777   H     0.89475   0.03385   0.84004   0.00000  Uiso   1.00
H778   H     0.92734   0.04214   0.79396   0.00000  Uiso   1.00
H779   H     0.77656   0.25058   0.69071   0.00000  Uiso   1.00
H780   H     0.73933   0.29119   0.70605   0.00000  Uiso   1.00
N781   N     0.83333   0.28573   0.75000   0.00000  Uiso   1.00
N782   N     0.83333   0.04760   0.75000   0.00000  Uiso   1.00
O783   O     0.77226   0.20487   0.75000   0.00000  Uiso   1.00
O784   O     0.89441   0.12846   0.75001   0.00000  Uiso   1.00
O785   O     0.89441   0.20487   0.75001   0.00000  Uiso   1.00
O786   O     0.77226   0.12846   0.75000   0.00000  Uiso   1.00
O787   O     0.83333   0.20489   0.68453   0.00000  Uiso   1.00
O788   O     0.83334   0.12845   0.81547   0.00000  Uiso   1.00
O789   O     0.83334   0.20489   0.81547   0.00000  Uiso   1.00
O790   O     0.83333   0.12845   0.68453   0.00000  Uiso   1.00
Zn791  Zn    0.83333   0.21771   0.75000   0.00000  Uiso   1.00
Zn792  Zn    0.83333   0.11563   0.75000   0.00000  Uiso   1.00
C793   C     0.08678   0.49998   0.74965   0.00000  Uiso   1.00
C794   C     0.31013   0.53346   0.72671   0.00000  Uiso   1.00
C795   C     0.31366   0.46679   0.77376   0.00000  Uiso   1.00
C796   C     0.01967   0.53321   0.72624   0.00000  Uiso   1.00
C797   C     0.15623   0.54226   0.54471   0.00000  Uiso   1.00
C798   C     0.17710   0.45774   0.95529   0.00000  Uiso   1.00
C799   C     0.18934   0.53619   0.95583   0.00000  Uiso   1.00
C800   C     0.14400   0.46381   0.54417   0.00000  Uiso   1.00
C801   C     0.16221   0.54229   0.59083   0.00000  Uiso   1.00
C802   C     0.17112   0.45771   0.90917   0.00000  Uiso   1.00
C803   C     0.18340   0.53845   0.90979   0.00000  Uiso   1.00
C804   C     0.24655   0.50002   0.75035   0.00000  Uiso   1.00
C805   C     0.14993   0.46156   0.59021   0.00000  Uiso   1.00
C806   C     0.16112   0.50098   0.61455   0.00000  Uiso   1.00
C807   C     0.17222   0.49902   0.88545   0.00000  Uiso   1.00
C808   C     0.15812   0.50159   0.52224   0.00000  Uiso   1.00
C809   C     0.17522   0.49842   0.97776   0.00000  Uiso   1.00
C810   C     0.29074   0.50013   0.75036   0.00000  Uiso   1.00
C811   C     0.04259   0.49987   0.74964   0.00000  Uiso   1.00
C812   C     0.22898   0.38052   0.80573   0.00000  Uiso   1.00
C813   C     0.10435   0.61948   0.69427   0.00000  Uiso   1.00
C814   C     0.09810   0.38232   0.70471   0.00000  Uiso   1.00
C815   C     0.16588   0.50019   0.66354   0.00000  Uiso   1.00
C816   C     0.23523   0.61768   0.79529   0.00000  Uiso   1.00
C817   C     0.16746   0.49981   0.83646   0.00000  Uiso   1.00
C818   C     0.19682   0.35701   0.77514   0.00000  Uiso   1.00
C819   C     0.13651   0.64300   0.72487   0.00000  Uiso   1.00
C820   C     0.13563   0.35750   0.72614   0.00000  Uiso   1.00
C821   C     0.19771   0.64250   0.77386   0.00000  Uiso   1.00
C822   C     0.02321   0.46654   0.77329   0.00000  Uiso   1.00
Cl823  Cl    0.13573   0.59084   0.51697   0.00000  Uiso   1.00
Cl824  Cl    0.19760   0.40916   0.98303   0.00000  Uiso   1.00
Cl825  Cl    0.22395   0.57468   0.98407   0.00000  Uiso   1.00
Cl826  Cl    0.10938   0.42532   0.51593   0.00000  Uiso   1.00
Cl827  Cl    0.17421   0.59477   0.61557   0.00000  Uiso   1.00
Cl828  Cl    0.15912   0.40523   0.88443   0.00000  Uiso   1.00
Cl829  Cl    0.18801   0.59223   0.88616   0.00000  Uiso   1.00
Cl830  Cl    0.14532   0.40777   0.61384   0.00000  Uiso   1.00
H831   H     0.04120   0.44100   0.79183   0.00000  Uiso   1.00
H832   H     0.10525   0.63282   0.65996   0.00000  Uiso   1.00
H833   H     0.10741   0.41413   0.69016   0.00000  Uiso   1.00
H834   H     0.08132   0.36491   0.67655   0.00000  Uiso   1.00
H835   H     0.07518   0.38798   0.72994   0.00000  Uiso   1.00
H836   H     0.22593   0.58587   0.80984   0.00000  Uiso   1.00
H837   H     0.25816   0.61202   0.77006   0.00000  Uiso   1.00
H838   H     0.25201   0.63509   0.82345   0.00000  Uiso   1.00
H839   H     0.29213   0.55900   0.70817   0.00000  Uiso   1.00
H840   H     0.29856   0.44168   0.79291   0.00000  Uiso   1.00
H841   H     0.03478   0.55832   0.70709   0.00000  Uiso   1.00
H842   H     0.22344   0.41609   0.80929   0.00000  Uiso   1.00
H843   H     0.22808   0.36718   0.84004   0.00000  Uiso   1.00
H844   H     0.26067   0.37548   0.79396   0.00000  Uiso   1.00
H845   H     0.10990   0.58391   0.69071   0.00000  Uiso   1.00
H846   H     0.07266   0.62452   0.70605   0.00000  Uiso   1.00
N847   N     0.16667   0.61907   0.75000   0.00000  Uiso   1.00
N848   N     0.16667   0.38093   0.75000   0.00000  Uiso   1.00
O849   O     0.10559   0.53821   0.75000   0.00000  Uiso   1.00
O850   O     0.22774   0.46179   0.75001   0.00000  Uiso   1.00
O851   O     0.22774   0.53821   0.75001   0.00000  Uiso   1.00
O852   O     0.10559   0.46179   0.75000   0.00000  Uiso   1.00
O853   O     0.16666   0.53822   0.68453   0.00000  Uiso   1.00
O854   O     0.16667   0.46178   0.81547   0.00000  Uiso   1.00
O855   O     0.16667   0.53822   0.81547   0.00000  Uiso   1.00
O856   O     0.16666   0.46178   0.68453   0.00000  Uiso   1.00
Zn857  Zn    0.16667   0.55104   0.75000   0.00000  Uiso   1.00
Zn858  Zn    0.16667   0.44896   0.75000   0.00000  Uiso   1.00
C859   C     0.42012   0.49998   0.74965   0.00000  Uiso   1.00
C860   C     0.64346   0.53346   0.72671   0.00000  Uiso   1.00
C861   C     0.64699   0.46679   0.77376   0.00000  Uiso   1.00
C862   C     0.35301   0.53321   0.72624   0.00000  Uiso   1.00
C863   C     0.48957   0.54226   0.54471   0.00000  Uiso   1.00
C864   C     0.51043   0.45774   0.95529   0.00000  Uiso   1.00
C865   C     0.52267   0.53619   0.95583   0.00000  Uiso   1.00
C866   C     0.47733   0.46381   0.54417   0.00000  Uiso   1.00
C867   C     0.49555   0.54229   0.59083   0.00000  Uiso   1.00
C868   C     0.50446   0.45771   0.90917   0.00000  Uiso   1.00
C869   C     0.51674   0.53845   0.90979   0.00000  Uiso   1.00
C870   C     0.57988   0.50002   0.75035   0.00000  Uiso   1.00
C871   C     0.48326   0.46156   0.59021   0.00000  Uiso   1.00
C872   C     0.49445   0.50098   0.61455   0.00000  Uiso   1.00
C873   C     0.50555   0.49902   0.88545   0.00000  Uiso   1.00
C874   C     0.49145   0.50159   0.52224   0.00000  Uiso   1.00
C875   C     0.50855   0.49842   0.97776   0.00000  Uiso   1.00
C876   C     0.62408   0.50013   0.75036   0.00000  Uiso   1.00
C877   C     0.37592   0.49987   0.74964   0.00000  Uiso   1.00
C878   C     0.56231   0.38052   0.80573   0.00000  Uiso   1.00
C879   C     0.43769   0.61948   0.69427   0.00000  Uiso   1.00
C880   C     0.43143   0.38232   0.70471   0.00000  Uiso   1.00
C881   C     0.49921   0.50019   0.66354   0.00000  Uiso   1.00
C882   C     0.56857   0.61768   0.79529   0.00000  Uiso   1.00
C883   C     0.50079   0.49981   0.83646   0.00000  Uiso   1.00
C884   C     0.53015   0.35701   0.77514   0.00000  Uiso   1.00
C885   C     0.46985   0.64300   0.72487   0.00000  Uiso   1.00
C886   C     0.46896   0.35750   0.72614   0.00000  Uiso   1.00
C887   C     0.53104   0.64250   0.77386   0.00000  Uiso   1.00
C888   C     0.35654   0.46654   0.77329   0.00000  Uiso   1.00
Cl889  Cl    0.46906   0.59084   0.51697   0.00000  Uiso   1.00
Cl890  Cl    0.53094   0.40916   0.98303   0.00000  Uiso   1.00
Cl891  Cl    0.55728   0.57468   0.98407   0.00000  Uiso   1.00
Cl892  Cl    0.44272   0.42532   0.51593   0.00000  Uiso   1.00
Cl893  Cl    0.50755   0.59477   0.61557   0.00000  Uiso   1.00
Cl894  Cl    0.49245   0.40523   0.88443   0.00000  Uiso   1.00
Cl895  Cl    0.52135   0.59223   0.88616   0.00000  Uiso   1.00
Cl896  Cl    0.47865   0.40777   0.61384   0.00000  Uiso   1.00
H897   H     0.37453   0.44100   0.79183   0.00000  Uiso   1.00
H898   H     0.43859   0.63282   0.65996   0.00000  Uiso   1.00
H899   H     0.44074   0.41413   0.69016   0.00000  Uiso   1.00
H900   H     0.41465   0.36491   0.67655   0.00000  Uiso   1.00
H901   H     0.40851   0.38798   0.72994   0.00000  Uiso   1.00
H902   H     0.55926   0.58587   0.80984   0.00000  Uiso   1.00
H903   H     0.59149   0.61202   0.77006   0.00000  Uiso   1.00
H904   H     0.58535   0.63509   0.82345   0.00000  Uiso   1.00
H905   H     0.62547   0.55900   0.70817   0.00000  Uiso   1.00
H906   H     0.63189   0.44168   0.79291   0.00000  Uiso   1.00
H907   H     0.36811   0.55832   0.70709   0.00000  Uiso   1.00
H908   H     0.55677   0.41609   0.80929   0.00000  Uiso   1.00
H909   H     0.56142   0.36718   0.84004   0.00000  Uiso   1.00
H910   H     0.59400   0.37548   0.79396   0.00000  Uiso   1.00
H911   H     0.44323   0.58391   0.69071   0.00000  Uiso   1.00
H912   H     0.40600   0.62452   0.70605   0.00000  Uiso   1.00
N913   N     0.50000   0.61907   0.75000   0.00000  Uiso   1.00
N914   N     0.50000   0.38093   0.75000   0.00000  Uiso   1.00
O915   O     0.43892   0.53821   0.75000   0.00000  Uiso   1.00
O916   O     0.56108   0.46179   0.75001   0.00000  Uiso   1.00
O917   O     0.56108   0.53821   0.75001   0.00000  Uiso   1.00
O918   O     0.43892   0.46179   0.75000   0.00000  Uiso   1.00
O919   O     0.50000   0.53822   0.68453   0.00000  Uiso   1.00
O920   O     0.50000   0.46178   0.81547   0.00000  Uiso   1.00
O921   O     0.50000   0.53822   0.81547   0.00000  Uiso   1.00
O922   O     0.50000   0.46178   0.68453   0.00000  Uiso   1.00
Zn923  Zn    0.50000   0.55104   0.75000   0.00000  Uiso   1.00
Zn924  Zn    0.50000   0.44896   0.75000   0.00000  Uiso   1.00
C925   C     0.75345   0.49998   0.74965   0.00000  Uiso   1.00
C926   C     0.97680   0.53346   0.72671   0.00000  Uiso   1.00
C927   C     0.98033   0.46679   0.77376   0.00000  Uiso   1.00
C928   C     0.68634   0.53321   0.72624   0.00000  Uiso   1.00
C929   C     0.82290   0.54226   0.54471   0.00000  Uiso   1.00
C930   C     0.84377   0.45774   0.95529   0.00000  Uiso   1.00
C931   C     0.85600   0.53619   0.95583   0.00000  Uiso   1.00
C932   C     0.81066   0.46381   0.54417   0.00000  Uiso   1.00
C933   C     0.82888   0.54229   0.59083   0.00000  Uiso   1.00
C934   C     0.83779   0.45771   0.90917   0.00000  Uiso   1.00
C935   C     0.85007   0.53845   0.90979   0.00000  Uiso   1.00
C936   C     0.91322   0.50002   0.75035   0.00000  Uiso   1.00
C937   C     0.81660   0.46156   0.59021   0.00000  Uiso   1.00
C938   C     0.82778   0.50098   0.61455   0.00000  Uiso   1.00
C939   C     0.83888   0.49902   0.88545   0.00000  Uiso   1.00
C940   C     0.82478   0.50159   0.52224   0.00000  Uiso   1.00
C941   C     0.84189   0.49842   0.97776   0.00000  Uiso   1.00
C942   C     0.95741   0.50013   0.75036   0.00000  Uiso   1.00
C943   C     0.70926   0.49987   0.74964   0.00000  Uiso   1.00
C944   C     0.89565   0.38052   0.80573   0.00000  Uiso   1.00
C945   C     0.77102   0.61948   0.69427   0.00000  Uiso   1.00
C946   C     0.76477   0.38232   0.70471   0.00000  Uiso   1.00
C947   C     0.83255   0.50019   0.66354   0.00000  Uiso   1.00
C948   C     0.90190   0.61768   0.79529   0.00000  Uiso   1.00
C949   C     0.83412   0.49981   0.83646   0.00000  Uiso   1.00
C950   C     0.86349   0.35701   0.77514   0.00000  Uiso   1.00
C951   C     0.80318   0.64300   0.72487   0.00000  Uiso   1.00
C952   C     0.80229   0.35750   0.72614   0.00000  Uiso   1.00
C953   C     0.86437   0.64250   0.77386   0.00000  Uiso   1.00
C954   C     0.68987   0.46654   0.77329   0.00000  Uiso   1.00
Cl955  Cl    0.80240   0.59084   0.51697   0.00000  Uiso   1.00
Cl956  Cl    0.86427   0.40916   0.98303   0.00000  Uiso   1.00
Cl957  Cl    0.89062   0.57468   0.98407   0.00000  Uiso   1.00
Cl958  Cl    0.77605   0.42532   0.51593   0.00000  Uiso   1.00
Cl959  Cl    0.84088   0.59477   0.61557   0.00000  Uiso   1.00
Cl960  Cl    0.82579   0.40523   0.88443   0.00000  Uiso   1.00
Cl961  Cl    0.85468   0.59223   0.88616   0.00000  Uiso   1.00
Cl962  Cl    0.81199   0.40777   0.61384   0.00000  Uiso   1.00
H963   H     0.70787   0.44100   0.79183   0.00000  Uiso   1.00
H964   H     0.77192   0.63282   0.65996   0.00000  Uiso   1.00
H965   H     0.77407   0.41413   0.69016   0.00000  Uiso   1.00
H966   H     0.74799   0.36491   0.67655   0.00000  Uiso   1.00
H967   H     0.74184   0.38798   0.72994   0.00000  Uiso   1.00
H968   H     0.89259   0.58587   0.80984   0.00000  Uiso   1.00
H969   H     0.92482   0.61202   0.77006   0.00000  Uiso   1.00
H970   H     0.91868   0.63509   0.82345   0.00000  Uiso   1.00
H971   H     0.95880   0.55900   0.70817   0.00000  Uiso   1.00
H972   H     0.96522   0.44168   0.79291   0.00000  Uiso   1.00
H973   H     0.70144   0.55832   0.70709   0.00000  Uiso   1.00
H974   H     0.89010   0.41609   0.80929   0.00000  Uiso   1.00
H975   H     0.89475   0.36718   0.84004   0.00000  Uiso   1.00
H976   H     0.92734   0.37548   0.79396   0.00000  Uiso   1.00
H977   H     0.77656   0.58391   0.69071   0.00000  Uiso   1.00
H978   H     0.73933   0.62452   0.70605   0.00000  Uiso   1.00
N979   N     0.83333   0.61907   0.75000   0.00000  Uiso   1.00
N980   N     0.83333   0.38093   0.75000   0.00000  Uiso   1.00
O981   O     0.77226   0.53821   0.75000   0.00000  Uiso   1.00
O982   O     0.89441   0.46179   0.75001   0.00000  Uiso   1.00
O983   O     0.89441   0.53821   0.75001   0.00000  Uiso   1.00
O984   O     0.77226   0.46179   0.75000   0.00000  Uiso   1.00
O985   O     0.83333   0.53822   0.68453   0.00000  Uiso   1.00
O986   O     0.83334   0.46178   0.81547   0.00000  Uiso   1.00
O987   O     0.83334   0.53822   0.81547   0.00000  Uiso   1.00
O988   O     0.83333   0.46178   0.68453   0.00000  Uiso   1.00
Zn989  Zn    0.83333   0.55104   0.75000   0.00000  Uiso   1.00
Zn990  Zn    0.83333   0.44896   0.75000   0.00000  Uiso   1.00
C991   C     0.08678   0.83331   0.74965   0.00000  Uiso   1.00
C992   C     0.31013   0.86680   0.72671   0.00000  Uiso   1.00
C993   C     0.31366   0.80012   0.77376   0.00000  Uiso   1.00
C994   C     0.01967   0.86655   0.72624   0.00000  Uiso   1.00
C995   C     0.15623   0.87559   0.54471   0.00000  Uiso   1.00
C996   C     0.17710   0.79107   0.95529   0.00000  Uiso   1.00
C997   C     0.18934   0.86953   0.95583   0.00000  Uiso   1.00
C998   C     0.14400   0.79714   0.54417   0.00000  Uiso   1.00
C999   C     0.16221   0.87563   0.59083   0.00000  Uiso   1.00
C1000  C     0.17112   0.79104   0.90917   0.00000  Uiso   1.00
C1001  C     0.18340   0.87178   0.90979   0.00000  Uiso   1.00
C1002  C     0.24655   0.83336   0.75035   0.00000  Uiso   1.00
C1003  C     0.14993   0.79489   0.59021   0.00000  Uiso   1.00
C1004  C     0.16112   0.83432   0.61455   0.00000  Uiso   1.00
C1005  C     0.17222   0.83235   0.88545   0.00000  Uiso   1.00
C1006  C     0.15812   0.83492   0.52224   0.00000  Uiso   1.00
C1007  C     0.17522   0.83175   0.97776   0.00000  Uiso   1.00
C1008  C     0.29074   0.83346   0.75036   0.00000  Uiso   1.00
C1009  C     0.04259   0.83320   0.74964   0.00000  Uiso   1.00
C1010  C     0.22898   0.71385   0.80573   0.00000  Uiso   1.00
C1011  C     0.10435   0.95281   0.69427   0.00000  Uiso   1.00
C1012  C     0.09810   0.71565   0.70471   0.00000  Uiso   1.00
C1013  C     0.16588   0.83352   0.66354   0.00000  Uiso   1.00
C1014  C     0.23523   0.95102   0.79529   0.00000  Uiso   1.00
C1015  C     0.16746   0.83315   0.83646   0.00000  Uiso   1.00
C1016  C     0.19682   0.69034   0.77514   0.00000  Uiso   1.00
C1017  C     0.13651   0.97633   0.72487   0.00000  Uiso   1.00
C1018  C     0.13563   0.69084   0.72614   0.00000  Uiso   1.00
C1019  C     0.19771   0.97583   0.77386   0.00000  Uiso   1.00
C1020  C     0.02321   0.79987   0.77329   0.00000  Uiso   1.00
Cl1021 Cl    0.13573   0.92418   0.51697   0.00000  Uiso   1.00
Cl1022 Cl    0.19760   0.74249   0.98303   0.00000  Uiso   1.00
Cl1023 Cl    0.22395   0.90802   0.98407   0.00000  Uiso   1.00
Cl1024 Cl    0.10938   0.75865   0.51593   0.00000  Uiso   1.00
Cl1025 Cl    0.17421   0.92810   0.61557   0.00000  Uiso   1.00
Cl1026 Cl    0.15912   0.73856   0.88443   0.00000  Uiso   1.00
Cl1027 Cl    0.18801   0.92556   0.88616   0.00000  Uiso   1.00
Cl1028 Cl    0.14532   0.74110   0.61384   0.00000  Uiso   1.00
H1029  H     0.04120   0.77433   0.79183   0.00000  Uiso   1.00
H1030  H     0.10525   0.96615   0.65996   0.00000  Uiso   1.00
H1031  H     0.10741   0.74746   0.69016   0.00000  Uiso   1.00
H1032  H     0.08132   0.69824   0.67655   0.00000  Uiso   1.00
H1033  H     0.07518   0.72131   0.72994   0.00000  Uiso   1.00
H1034  H     0.22593   0.91921   0.80984   0.00000  Uiso   1.00
H1035  H     0.25816   0.94536   0.77006   0.00000  Uiso   1.00
H1036  H     0.25201   0.96843   0.82345   0.00000  Uiso   1.00
H1037  H     0.29213   0.89234   0.70817   0.00000  Uiso   1.00
H1038  H     0.29856   0.77502   0.79291   0.00000  Uiso   1.00
H1039  H     0.03478   0.89165   0.70709   0.00000  Uiso   1.00
H1040  H     0.22344   0.74942   0.80929   0.00000  Uiso   1.00
H1041  H     0.22808   0.70052   0.84004   0.00000  Uiso   1.00
H1042  H     0.26067   0.70881   0.79396   0.00000  Uiso   1.00
H1043  H     0.10990   0.91724   0.69071   0.00000  Uiso   1.00
H1044  H     0.07266   0.95786   0.70605   0.00000  Uiso   1.00
N1045  N     0.16667   0.95240   0.75000   0.00000  Uiso   1.00
N1046  N     0.16667   0.71427   0.75000   0.00000  Uiso   1.00
O1047  O     0.10559   0.87154   0.75000   0.00000  Uiso   1.00
O1048  O     0.22774   0.79513   0.75001   0.00000  Uiso   1.00
O1049  O     0.22774   0.87154   0.75001   0.00000  Uiso   1.00
O1050  O     0.10559   0.79513   0.75000   0.00000  Uiso   1.00
O1051  O     0.16666   0.87155   0.68453   0.00000  Uiso   1.00
O1052  O     0.16667   0.79511   0.81547   0.00000  Uiso   1.00
O1053  O     0.16667   0.87155   0.81547   0.00000  Uiso   1.00
O1054  O     0.16666   0.79511   0.68453   0.00000  Uiso   1.00
Zn1055 Zn    0.16667   0.88437   0.75000   0.00000  Uiso   1.00
Zn1056 Zn    0.16667   0.78229   0.75000   0.00000  Uiso   1.00
C1057  C     0.42012   0.83331   0.74965   0.00000  Uiso   1.00
C1058  C     0.64346   0.86680   0.72671   0.00000  Uiso   1.00
C1059  C     0.64699   0.80012   0.77376   0.00000  Uiso   1.00
C1060  C     0.35301   0.86655   0.72624   0.00000  Uiso   1.00
C1061  C     0.48957   0.87559   0.54471   0.00000  Uiso   1.00
C1062  C     0.51043   0.79107   0.95529   0.00000  Uiso   1.00
C1063  C     0.52267   0.86953   0.95583   0.00000  Uiso   1.00
C1064  C     0.47733   0.79714   0.54417   0.00000  Uiso   1.00
C1065  C     0.49555   0.87563   0.59083   0.00000  Uiso   1.00
C1066  C     0.50446   0.79104   0.90917   0.00000  Uiso   1.00
C1067  C     0.51674   0.87178   0.90979   0.00000  Uiso   1.00
C1068  C     0.57988   0.83336   0.75035   0.00000  Uiso   1.00
C1069  C     0.48326   0.79489   0.59021   0.00000  Uiso   1.00
C1070  C     0.49445   0.83432   0.61455   0.00000  Uiso   1.00
C1071  C     0.50555   0.83235   0.88545   0.00000  Uiso   1.00
C1072  C     0.49145   0.83492   0.52224   0.00000  Uiso   1.00
C1073  C     0.50855   0.83175   0.97776   0.00000  Uiso   1.00
C1074  C     0.62408   0.83346   0.75036   0.00000  Uiso   1.00
C1075  C     0.37592   0.83320   0.74964   0.00000  Uiso   1.00
C1076  C     0.56231   0.71385   0.80573   0.00000  Uiso   1.00
C1077  C     0.43769   0.95281   0.69427   0.00000  Uiso   1.00
C1078  C     0.43143   0.71565   0.70471   0.00000  Uiso   1.00
C1079  C     0.49921   0.83352   0.66354   0.00000  Uiso   1.00
C1080  C     0.56857   0.95102   0.79529   0.00000  Uiso   1.00
C1081  C     0.50079   0.83315   0.83646   0.00000  Uiso   1.00
C1082  C     0.53015   0.69034   0.77514   0.00000  Uiso   1.00
C1083  C     0.46985   0.97633   0.72487   0.00000  Uiso   1.00
C1084  C     0.46896   0.69084   0.72614   0.00000  Uiso   1.00
C1085  C     0.53104   0.97583   0.77386   0.00000  Uiso   1.00
C1086  C     0.35654   0.79987   0.77329   0.00000  Uiso   1.00
Cl1087 Cl    0.46906   0.92418   0.51697   0.00000  Uiso   1.00
Cl1088 Cl    0.53094   0.74249   0.98303   0.00000  Uiso   1.00
Cl1089 Cl    0.55728   0.90802   0.98407   0.00000  Uiso   1.00
Cl1090 Cl    0.44272   0.75865   0.51593   0.00000  Uiso   1.00
Cl1091 Cl    0.50755   0.92810   0.61557   0.00000  Uiso   1.00
Cl1092 Cl    0.49245   0.73856   0.88443   0.00000  Uiso   1.00
Cl1093 Cl    0.52135   0.92556   0.88616   0.00000  Uiso   1.00
Cl1094 Cl    0.47865   0.74110   0.61384   0.00000  Uiso   1.00
H1095  H     0.37453   0.77433   0.79183   0.00000  Uiso   1.00
H1096  H     0.43859   0.96615   0.65996   0.00000  Uiso   1.00
H1097  H     0.44074   0.74746   0.69016   0.00000  Uiso   1.00
H1098  H     0.41465   0.69824   0.67655   0.00000  Uiso   1.00
H1099  H     0.40851   0.72131   0.72994   0.00000  Uiso   1.00
H1100  H     0.55926   0.91921   0.80984   0.00000  Uiso   1.00
H1101  H     0.59149   0.94536   0.77006   0.00000  Uiso   1.00
H1102  H     0.58535   0.96843   0.82345   0.00000  Uiso   1.00
H1103  H     0.62547   0.89234   0.70817   0.00000  Uiso   1.00
H1104  H     0.63189   0.77502   0.79291   0.00000  Uiso   1.00
H1105  H     0.36811   0.89165   0.70709   0.00000  Uiso   1.00
H1106  H     0.55677   0.74942   0.80929   0.00000  Uiso   1.00
H1107  H     0.56142   0.70052   0.84004   0.00000  Uiso   1.00
H1108  H     0.59400   0.70881   0.79396   0.00000  Uiso   1.00
H1109  H     0.44323   0.91724   0.69071   0.00000  Uiso   1.00
H1110  H     0.40600   0.95786   0.70605   0.00000  Uiso   1.00
N1111  N     0.50000   0.95240   0.75000   0.00000  Uiso   1.00
N1112  N     0.50000   0.71427   0.75000   0.00000  Uiso   1.00
O1113  O     0.43892   0.87154   0.75000   0.00000  Uiso   1.00
O1114  O     0.56108   0.79513   0.75001   0.00000  Uiso   1.00
O1115  O     0.56108   0.87154   0.75001   0.00000  Uiso   1.00
O1116  O     0.43892   0.79513   0.75000   0.00000  Uiso   1.00
O1117  O     0.50000   0.87155   0.68453   0.00000  Uiso   1.00
O1118  O     0.50000   0.79511   0.81547   0.00000  Uiso   1.00
O1119  O     0.50000   0.87155   0.81547   0.00000  Uiso   1.00
O1120  O     0.50000   0.79511   0.68453   0.00000  Uiso   1.00
Zn1121 Zn    0.50000   0.88437   0.75000   0.00000  Uiso   1.00
Zn1122 Zn    0.50000   0.78229   0.75000   0.00000  Uiso   1.00
C1123  C     0.75345   0.83331   0.74965   0.00000  Uiso   1.00
C1124  C     0.97680   0.86680   0.72671   0.00000  Uiso   1.00
C1125  C     0.98033   0.80012   0.77376   0.00000  Uiso   1.00
C1126  C     0.68634   0.86655   0.72624   0.00000  Uiso   1.00
C1127  C     0.82290   0.87559   0.54471   0.00000  Uiso   1.00
C1128  C     0.84377   0.79107   0.95529   0.00000  Uiso   1.00
C1129  C     0.85600   0.86953   0.95583   0.00000  Uiso   1.00
C1130  C     0.81066   0.79714   0.54417   0.00000  Uiso   1.00
C1131  C     0.82888   0.87563   0.59083   0.00000  Uiso   1.00
C1132  C     0.83779   0.79104   0.90917   0.00000  Uiso   1.00
C1133  C     0.85007   0.87178   0.90979   0.00000  Uiso   1.00
C1134  C     0.91322   0.83336   0.75035   0.00000  Uiso   1.00
C1135  C     0.81660   0.79489   0.59021   0.00000  Uiso   1.00
C1136  C     0.82778   0.83432   0.61455   0.00000  Uiso   1.00
C1137  C     0.83888   0.83235   0.88545   0.00000  Uiso   1.00
C1138  C     0.82478   0.83492   0.52224   0.00000  Uiso   1.00
C1139  C     0.84189   0.83175   0.97776   0.00000  Uiso   1.00
C1140  C     0.95741   0.83346   0.75036   0.00000  Uiso   1.00
C1141  C     0.70926   0.83320   0.74964   0.00000  Uiso   1.00
C1142  C     0.89565   0.71385   0.80573   0.00000  Uiso   1.00
C1143  C     0.77102   0.95281   0.69427   0.00000  Uiso   1.00
C1144  C     0.76477   0.71565   0.70471   0.00000  Uiso   1.00
C1145  C     0.83255   0.83352   0.66354   0.00000  Uiso   1.00
C1146  C     0.90190   0.95102   0.79529   0.00000  Uiso   1.00
C1147  C     0.83412   0.83315   0.83646   0.00000  Uiso   1.00
C1148  C     0.86349   0.69034   0.77514   0.00000  Uiso   1.00
C1149  C     0.80318   0.97633   0.72487   0.00000  Uiso   1.00
C1150  C     0.80229   0.69084   0.72614   0.00000  Uiso   1.00
C1151  C     0.86437   0.97583   0.77386   0.00000  Uiso   1.00
C1152  C     0.68987   0.79987   0.77329   0.00000  Uiso   1.00
Cl1153 Cl    0.80240   0.92418   0.51697   0.00000  Uiso   1.00
Cl1154 Cl    0.86427   0.74249   0.98303   0.00000  Uiso   1.00
Cl1155 Cl    0.89062   0.90802   0.98407   0.00000  Uiso   1.00
Cl1156 Cl    0.77605   0.75865   0.51593   0.00000  Uiso   1.00
Cl1157 Cl    0.84088   0.92810   0.61557   0.00000  Uiso   1.00
Cl1158 Cl    0.82579   0.73856   0.88443   0.00000  Uiso   1.00
Cl1159 Cl    0.85468   0.92556   0.88616   0.00000  Uiso   1.00
Cl1160 Cl    0.81199   0.74110   0.61384   0.00000  Uiso   1.00
H1161  H     0.70787   0.77433   0.79183   0.00000  Uiso   1.00
H1162  H     0.77192   0.96615   0.65996   0.00000  Uiso   1.00
H1163  H     0.77407   0.74746   0.69016   0.00000  Uiso   1.00
H1164  H     0.74799   0.69824   0.67655   0.00000  Uiso   1.00
H1165  H     0.74184   0.72131   0.72994   0.00000  Uiso   1.00
H1166  H     0.89259   0.91921   0.80984   0.00000  Uiso   1.00
H1167  H     0.92482   0.94536   0.77006   0.00000  Uiso   1.00
H1168  H     0.91868   0.96843   0.82345   0.00000  Uiso   1.00
H1169  H     0.95880   0.89234   0.70817   0.00000  Uiso   1.00
H1170  H     0.96522   0.77502   0.79291   0.00000  Uiso   1.00
H1171  H     0.70144   0.89165   0.70709   0.00000  Uiso   1.00
H1172  H     0.89010   0.74942   0.80929   0.00000  Uiso   1.00
H1173  H     0.89475   0.70052   0.84004   0.00000  Uiso   1.00
H1174  H     0.92734   0.70881   0.79396   0.00000  Uiso   1.00
H1175  H     0.77656   0.91724   0.69071   0.00000  Uiso   1.00
H1176  H     0.73933   0.95786   0.70605   0.00000  Uiso   1.00
N1177  N     0.83333   0.95240   0.75000   0.00000  Uiso   1.00
N1178  N     0.83333   0.71427   0.75000   0.00000  Uiso   1.00
O1179  O     0.77226   0.87154   0.75000   0.00000  Uiso   1.00
O1180  O     0.89441   0.79513   0.75001   0.00000  Uiso   1.00
O1181  O     0.89441   0.87154   0.75001   0.00000  Uiso   1.00
O1182  O     0.77226   0.79513   0.75000   0.00000  Uiso   1.00
O1183  O     0.83333   0.87155   0.68453   0.00000  Uiso   1.00
O1184  O     0.83334   0.79511   0.81547   0.00000  Uiso   1.00
O1185  O     0.83334   0.87155   0.81547   0.00000  Uiso   1.00
O1186  O     0.83333   0.79511   0.68453   0.00000  Uiso   1.00
Zn1187 Zn    0.83333   0.88437   0.75000   0.00000  Uiso   1.00
Zn1188 Zn    0.83333   0.78229   0.75000   0.00000  Uiso   1.00
loop_
_geom_bond_atom_site_label_1
_geom_bond_atom_site_label_2
_geom_bond_distance
_geom_bond_site_symmetry_2
_ccdc_geom_bond_type
C1     O57     1.292   .     A
C1     C19     1.413   .     S
C1     O60     1.291   .     A
C2     H47     1.084   .     S
C2     C18     1.394   .     A
C2     C70     1.372   .     S
C3     C18     1.395   .     A
C3     H48     1.080   .     S
C3     C96     1.372   .     S
C4     C19     1.395   .     A
C4     H49     1.080   .     S
C4     C134    1.372   1_455 S
C5     C9      1.390   .     A
C5     Cl31    1.774   .     S
C5     C16     1.400   .     A
C6     C10     1.390   .     A
C6     Cl32    1.774   .     S
C6     C17     1.400   .     A
C7     C11     1.389   .     A
C7     Cl33    1.774   .     S
C7     C17     1.398   .     A
C8     C13     1.389   .     A
C8     C16     1.398   .     A
C8     Cl34    1.774   .     S
C9     C14     1.426   .     A
C9     Cl35    1.772   .     S
C10    C15     1.426   .     A
C10    Cl36    1.772   .     S
C11    Cl37    1.767   .     S
C11    C15     1.425   .     A
C12    O58     1.292   .     A
C12    O59     1.291   .     A
C12    C18     1.413   .     S
C13    C14     1.425   .     A
C13    Cl38    1.767   .     S
C14    C23     1.475   .     S
C15    C25     1.475   .     S
C16    C611    1.490   1_554 S
C17    C610    1.490   .     S
C19    C30     1.394   .     A
C20    C26     1.507   .     S
C20    H51     1.109   .     S
C20    H52     1.109   .     S
C20    H50     1.086   .     S
C21    C27     1.507   .     S
C21    H40     1.109   .     S
C21    H53     1.086   .     S
C21    H54     1.109   .     S
C22    H43     1.109   .     S
C22    H42     1.104   .     S
C22    C28     1.513   .     S
C22    H41     1.096   .     S
C23    O64     1.308   .     A
C23    O61     1.305   .     A
C24    H46     1.104   .     S
C24    H45     1.109   .     S
C24    H44     1.096   .     S
C24    C29     1.513   .     S
C25    O62     1.305   .     A
C25    O63     1.308   .     A
C26    N56     1.379   .     A
C26    C425    1.433   1_545 S
C27    N55     1.379   .     A
C27    C226    1.433   .     S
C28    N56     1.376   .     A
C28    C423    1.433   1_545 S
C29    N55     1.376   .     A
C29    C224    1.433   .     S
C30    H39     1.084   .     S
C30    C135    1.372   1_455 S
N55    Zn65    2.036   .     S
N56    Zn66    2.036   .     S
O57    Zn65    1.990   .     S
O58    Zn66    1.990   .     S
O59    Zn65    1.991   .     S
O60    Zn66    1.991   .     S
O61    Zn65    2.015   .     S
O62    Zn66    2.015   .     S
O63    Zn65    2.010   .     S
O64    Zn66    2.010   .     S
C67    O123    1.292   .     A
C67    C85     1.413   .     S
C67    O126    1.291   .     A
C68    H113    1.084   .     S
C68    C84     1.394   .     A
C68    C136    1.372   .     S
C69    C84     1.395   .     A
C69    H114    1.080   .     S
C69    C162    1.372   .     S
C70    C85     1.395   .     A
C70    H115    1.080   .     S
C71    C75     1.390   .     A
C71    Cl97    1.774   .     S
C71    C82     1.400   .     A
C72    C76     1.390   .     A
C72    Cl98    1.774   .     S
C72    C83     1.400   .     A
C73    C77     1.389   .     A
C73    Cl99    1.774   .     S
C73    C83     1.398   .     A
C74    C79     1.389   .     A
C74    C82     1.398   .     A
C74    Cl100   1.774   .     S
C75    C80     1.426   .     A
C75    Cl101   1.772   .     S
C76    C81     1.426   .     A
C76    Cl102   1.772   .     S
C77    Cl103   1.767   .     S
C77    C81     1.425   .     A
C78    O124    1.292   .     A
C78    O125    1.291   .     A
C78    C84     1.413   .     S
C79    C80     1.425   .     A
C79    Cl104   1.767   .     S
C80    C89     1.475   .     S
C81    C91     1.475   .     S
C82    C677    1.490   1_554 S
C83    C676    1.490   .     S
C85    C96     1.394   .     A
C86    C92     1.507   .     S
C86    H117    1.109   .     S
C86    H118    1.109   .     S
C86    H116    1.086   .     S
C87    C93     1.507   .     S
C87    H106    1.109   .     S
C87    H119    1.086   .     S
C87    H120    1.109   .     S
C88    H109    1.109   .     S
C88    H108    1.104   .     S
C88    C94     1.513   .     S
C88    H107    1.096   .     S
C89    O130    1.308   .     A
C89    O127    1.305   .     A
C90    H112    1.104   .     S
C90    H111    1.109   .     S
C90    H110    1.096   .     S
C90    C95     1.513   .     S
C91    O128    1.305   .     A
C91    O129    1.308   .     A
C92    N122    1.379   .     A
C92    C491    1.433   1_545 S
C93    N121    1.379   .     A
C93    C292    1.433   .     S
C94    N122    1.376   .     A
C94    C489    1.433   1_545 S
C95    N121    1.376   .     A
C95    C290    1.433   .     S
C96    H105    1.084   .     S
N121   Zn131   2.036   .     S
N122   Zn132   2.036   .     S
O123   Zn131   1.990   .     S
O124   Zn132   1.990   .     S
O125   Zn131   1.991   .     S
O126   Zn132   1.991   .     S
O127   Zn131   2.015   .     S
O128   Zn132   2.015   .     S
O129   Zn131   2.010   .     S
O130   Zn132   2.010   .     S
C133   O189    1.292   .     A
C133   C151    1.413   .     S
C133   O192    1.291   .     A
C134   H179    1.084   .     S
C134   C150    1.394   .     A
C134   C4      1.372   1_655 S
C135   C150    1.395   .     A
C135   H180    1.080   .     S
C135   C30     1.372   1_655 S
C136   C151    1.395   .     A
C136   H181    1.080   .     S
C137   C141    1.390   .     A
C137   Cl163   1.774   .     S
C137   C148    1.400   .     A
C138   C142    1.390   .     A
C138   Cl164   1.774   .     S
C138   C149    1.400   .     A
C139   C143    1.389   .     A
C139   Cl165   1.774   .     S
C139   C149    1.398   .     A
C140   C145    1.389   .     A
C140   C148    1.398   .     A
C140   Cl166   1.774   .     S
C141   C146    1.426   .     A
C141   Cl167   1.772   .     S
C142   C147    1.426   .     A
C142   Cl168   1.772   .     S
C143   Cl169   1.767   .     S
C143   C147    1.425   .     A
C144   O190    1.292   .     A
C144   O191    1.291   .     A
C144   C150    1.413   .     S
C145   C146    1.425   .     A
C145   Cl170   1.767   .     S
C146   C155    1.475   .     S
C147   C157    1.475   .     S
C148   C743    1.490   1_554 S
C149   C742    1.490   .     S
C151   C162    1.394   .     A
C152   C158    1.507   .     S
C152   H183    1.109   .     S
C152   H184    1.109   .     S
C152   H182    1.086   .     S
C153   C159    1.507   .     S
C153   H172    1.109   .     S
C153   H185    1.086   .     S
C153   H186    1.109   .     S
C154   H175    1.109   .     S
C154   H174    1.104   .     S
C154   C160    1.513   .     S
C154   H173    1.096   .     S
C155   O196    1.308   .     A
C155   O193    1.305   .     A
C156   H178    1.104   .     S
C156   H177    1.109   .     S
C156   H176    1.096   .     S
C156   C161    1.513   .     S
C157   O194    1.305   .     A
C157   O195    1.308   .     A
C158   N188    1.379   .     A
C158   C557    1.433   1_545 S
C159   N187    1.379   .     A
C159   C358    1.433   .     S
C160   N188    1.376   .     A
C160   C555    1.433   1_545 S
C161   N187    1.376   .     A
C161   C356    1.433   .     S
C162   H171    1.084   .     S
N187   Zn197   2.036   .     S
N188   Zn198   2.036   .     S
O189   Zn197   1.990   .     S
O190   Zn198   1.990   .     S
O191   Zn197   1.991   .     S
O192   Zn198   1.991   .     S
O193   Zn197   2.015   .     S
O194   Zn198   2.015   .     S
O195   Zn197   2.010   .     S
O196   Zn198   2.010   .     S
C199   O255    1.292   .     A
C199   C217    1.413   .     S
C199   O258    1.291   .     A
C200   H245    1.084   .     S
C200   C216    1.394   .     A
C200   C268    1.372   .     S
C201   C216    1.395   .     A
C201   H246    1.080   .     S
C201   C294    1.372   .     S
C202   C217    1.395   .     A
C202   H247    1.080   .     S
C202   C332    1.372   1_455 S
C203   C207    1.390   .     A
C203   Cl229   1.774   .     S
C203   C214    1.400   .     A
C204   C208    1.390   .     A
C204   Cl230   1.774   .     S
C204   C215    1.400   .     A
C205   C209    1.389   .     A
C205   Cl231   1.774   .     S
C205   C215    1.398   .     A
C206   C211    1.389   .     A
C206   C214    1.398   .     A
C206   Cl232   1.774   .     S
C207   C212    1.426   .     A
C207   Cl233   1.772   .     S
C208   C213    1.426   .     A
C208   Cl234   1.772   .     S
C209   Cl235   1.767   .     S
C209   C213    1.425   .     A
C210   O256    1.292   .     A
C210   O257    1.291   .     A
C210   C216    1.413   .     S
C211   C212    1.425   .     A
C211   Cl236   1.767   .     S
C212   C221    1.475   .     S
C213   C223    1.475   .     S
C214   C809    1.490   1_554 S
C215   C808    1.490   .     S
C217   C228    1.394   .     A
C218   C224    1.507   .     S
C218   H249    1.109   .     S
C218   H250    1.109   .     S
C218   H248    1.086   .     S
C219   C225    1.507   .     S
C219   H238    1.109   .     S
C219   H251    1.086   .     S
C219   H252    1.109   .     S
C220   H241    1.109   .     S
C220   H240    1.104   .     S
C220   C226    1.513   .     S
C220   H239    1.096   .     S
C221   O262    1.308   .     A
C221   O259    1.305   .     A
C222   H244    1.104   .     S
C222   H243    1.109   .     S
C222   H242    1.096   .     S
C222   C227    1.513   .     S
C223   O260    1.305   .     A
C223   O261    1.308   .     A
C224   N254    1.379   .     A
C225   N253    1.379   .     A
C225   C424    1.433   .     S
C226   N254    1.376   .     A
C227   N253    1.376   .     A
C227   C422    1.433   .     S
C228   H237    1.084   .     S
C228   C333    1.372   1_455 S
N253   Zn263   2.036   .     S
N254   Zn264   2.036   .     S
O255   Zn263   1.990   .     S
O256   Zn264   1.990   .     S
O257   Zn263   1.991   .     S
O258   Zn264   1.991   .     S
O259   Zn263   2.015   .     S
O260   Zn264   2.015   .     S
O261   Zn263   2.010   .     S
O262   Zn264   2.010   .     S
C265   O321    1.292   .     A
C265   C283    1.413   .     S
C265   O324    1.291   .     A
C266   H311    1.084   .     S
C266   C282    1.394   .     A
C266   C334    1.372   .     S
C267   C282    1.395   .     A
C267   H312    1.080   .     S
C267   C360    1.372   .     S
C268   C283    1.395   .     A
C268   H313    1.080   .     S
C269   C273    1.390   .     A
C269   Cl295   1.774   .     S
C269   C280    1.400   .     A
C270   C274    1.390   .     A
C270   Cl296   1.774   .     S
C270   C281    1.400   .     A
C271   C275    1.389   .     A
C271   Cl297   1.774   .     S
C271   C281    1.398   .     A
C272   C277    1.389   .     A
C272   C280    1.398   .     A
C272   Cl298   1.774   .     S
C273   C278    1.426   .     A
C273   Cl299   1.772   .     S
C274   C279    1.426   .     A
C274   Cl300   1.772   .     S
C275   Cl301   1.767   .     S
C275   C279    1.425   .     A
C276   O322    1.292   .     A
C276   O323    1.291   .     A
C276   C282    1.413   .     S
C277   C278    1.425   .     A
C277   Cl302   1.767   .     S
C278   C287    1.475   .     S
C279   C289    1.475   .     S
C280   C875    1.490   1_554 S
C281   C874    1.490   .     S
C283   C294    1.394   .     A
C284   C290    1.507   .     S
C284   H315    1.109   .     S
C284   H316    1.109   .     S
C284   H314    1.086   .     S
C285   C291    1.507   .     S
C285   H304    1.109   .     S
C285   H317    1.086   .     S
C285   H318    1.109   .     S
C286   H307    1.109   .     S
C286   H306    1.104   .     S
C286   C292    1.513   .     S
C286   H305    1.096   .     S
C287   O328    1.308   .     A
C287   O325    1.305   .     A
C288   H310    1.104   .     S
C288   H309    1.109   .     S
C288   H308    1.096   .     S
C288   C293    1.513   .     S
C289   O326    1.305   .     A
C289   O327    1.308   .     A
C290   N320    1.379   .     A
C291   N319    1.379   .     A
C291   C490    1.433   .     S
C292   N320    1.376   .     A
C293   N319    1.376   .     A
C293   C488    1.433   .     S
C294   H303    1.084   .     S
N319   Zn329   2.036   .     S
N320   Zn330   2.036   .     S
O321   Zn329   1.990   .     S
O322   Zn330   1.990   .     S
O323   Zn329   1.991   .     S
O324   Zn330   1.991   .     S
O325   Zn329   2.015   .     S
O326   Zn330   2.015   .     S
O327   Zn329   2.010   .     S
O328   Zn330   2.010   .     S
C331   O387    1.292   .     A
C331   C349    1.413   .     S
C331   O390    1.291   .     A
C332   H377    1.084   .     S
C332   C348    1.394   .     A
C332   C202    1.372   1_655 S
C333   C348    1.395   .     A
C333   H378    1.080   .     S
C333   C228    1.372   1_655 S
C334   C349    1.395   .     A
C334   H379    1.080   .     S
C335   C339    1.390   .     A
C335   Cl361   1.774   .     S
C335   C346    1.400   .     A
C336   C340    1.390   .     A
C336   Cl362   1.774   .     S
C336   C347    1.400   .     A
C337   C341    1.389   .     A
C337   Cl363   1.774   .     S
C337   C347    1.398   .     A
C338   C343    1.389   .     A
C338   C346    1.398   .     A
C338   Cl364   1.774   .     S
C339   C344    1.426   .     A
C339   Cl365   1.772   .     S
C340   C345    1.426   .     A
C340   Cl366   1.772   .     S
C341   Cl367   1.767   .     S
C341   C345    1.425   .     A
C342   O388    1.292   .     A
C342   O389    1.291   .     A
C342   C348    1.413   .     S
C343   C344    1.425   .     A
C343   Cl368   1.767   .     S
C344   C353    1.475   .     S
C345   C355    1.475   .     S
C346   C941    1.490   1_554 S
C347   C940    1.490   .     S
C349   C360    1.394   .     A
C350   C356    1.507   .     S
C350   H381    1.109   .     S
C350   H382    1.109   .     S
C350   H380    1.086   .     S
C351   C357    1.507   .     S
C351   H370    1.109   .     S
C351   H383    1.086   .     S
C351   H384    1.109   .     S
C352   H373    1.109   .     S
C352   H372    1.104   .     S
C352   C358    1.513   .     S
C352   H371    1.096   .     S
C353   O394    1.308   .     A
C353   O391    1.305   .     A
C354   H376    1.104   .     S
C354   H375    1.109   .     S
C354   H374    1.096   .     S
C354   C359    1.513   .     S
C355   O392    1.305   .     A
C355   O393    1.308   .     A
C356   N386    1.379   .     A
C357   N385    1.379   .     A
C357   C556    1.433   .     S
C358   N386    1.376   .     A
C359   N385    1.376   .     A
C359   C554    1.433   .     S
C360   H369    1.084   .     S
N385   Zn395   2.036   .     S
N386   Zn396   2.036   .     S
O387   Zn395   1.990   .     S
O388   Zn396   1.990   .     S
O389   Zn395   1.991   .     S
O390   Zn396   1.991   .     S
O391   Zn395   2.015   .     S
O392   Zn396   2.015   .     S
O393   Zn395   2.010   .     S
O394   Zn396   2.010   .     S
C397   O453    1.292   .     A
C397   C415    1.413   .     S
C397   O456    1.291   .     A
C398   H443    1.084   .     S
C398   C414    1.394   .     A
C398   C466    1.372   .     S
C399   C414    1.395   .     A
C399   H444    1.080   .     S
C399   C492    1.372   .     S
C400   C415    1.395   .     A
C400   H445    1.080   .     S
C400   C530    1.372   1_455 S
C401   C405    1.390   .     A
C401   Cl427   1.774   .     S
C401   C412    1.400   .     A
C402   C406    1.390   .     A
C402   Cl428   1.774   .     S
C402   C413    1.400   .     A
C403   C407    1.389   .     A
C403   Cl429   1.774   .     S
C403   C413    1.398   .     A
C404   C409    1.389   .     A
C404   C412    1.398   .     A
C404   Cl430   1.774   .     S
C405   C410    1.426   .     A
C405   Cl431   1.772   .     S
C406   C411    1.426   .     A
C406   Cl432   1.772   .     S
C407   Cl433   1.767   .     S
C407   C411    1.425   .     A
C408   O454    1.292   .     A
C408   O455    1.291   .     A
C408   C414    1.413   .     S
C409   C410    1.425   .     A
C409   Cl434   1.767   .     S
C410   C419    1.475   .     S
C411   C421    1.475   .     S
C412   C1007   1.490   1_554 S
C413   C1006   1.490   .     S
C415   C426    1.394   .     A
C416   C422    1.507   .     S
C416   H447    1.109   .     S
C416   H448    1.109   .     S
C416   H446    1.086   .     S
C417   C423    1.507   .     S
C417   H436    1.109   .     S
C417   H449    1.086   .     S
C417   H450    1.109   .     S
C418   H439    1.109   .     S
C418   H438    1.104   .     S
C418   C424    1.513   .     S
C418   H437    1.096   .     S
C419   O460    1.308   .     A
C419   O457    1.305   .     A
C420   H442    1.104   .     S
C420   H441    1.109   .     S
C420   H440    1.096   .     S
C420   C425    1.513   .     S
C421   O458    1.305   .     A
C421   O459    1.308   .     A
C422   N452    1.379   .     A
C423   N451    1.379   .     A
C423   C28     1.433   1_565 S
C424   N452    1.376   .     A
C425   N451    1.376   .     A
C425   C26     1.433   1_565 S
C426   H435    1.084   .     S
C426   C531    1.372   1_455 S
N451   Zn461   2.036   .     S
N452   Zn462   2.036   .     S
O453   Zn461   1.990   .     S
O454   Zn462   1.990   .     S
O455   Zn461   1.991   .     S
O456   Zn462   1.991   .     S
O457   Zn461   2.015   .     S
O458   Zn462   2.015   .     S
O459   Zn461   2.010   .     S
O460   Zn462   2.010   .     S
C463   O519    1.292   .     A
C463   C481    1.413   .     S
C463   O522    1.291   .     A
C464   H509    1.084   .     S
C464   C480    1.394   .     A
C464   C532    1.372   .     S
C465   C480    1.395   .     A
C465   H510    1.080   .     S
C465   C558    1.372   .     S
C466   C481    1.395   .     A
C466   H511    1.080   .     S
C467   C471    1.390   .     A
C467   Cl493   1.774   .     S
C467   C478    1.400   .     A
C468   C472    1.390   .     A
C468   Cl494   1.774   .     S
C468   C479    1.400   .     A
C469   C473    1.389   .     A
C469   Cl495   1.774   .     S
C469   C479    1.398   .     A
C470   C475    1.389   .     A
C470   C478    1.398   .     A
C470   Cl496   1.774   .     S
C471   C476    1.426   .     A
C471   Cl497   1.772   .     S
C472   C477    1.426   .     A
C472   Cl498   1.772   .     S
C473   Cl499   1.767   .     S
C473   C477    1.425   .     A
C474   O520    1.292   .     A
C474   O521    1.291   .     A
C474   C480    1.413   .     S
C475   C476    1.425   .     A
C475   Cl500   1.767   .     S
C476   C485    1.475   .     S
C477   C487    1.475   .     S
C478   C1073   1.490   1_554 S
C479   C1072   1.490   .     S
C481   C492    1.394   .     A
C482   C488    1.507   .     S
C482   H513    1.109   .     S
C482   H514    1.109   .     S
C482   H512    1.086   .     S
C483   C489    1.507   .     S
C483   H502    1.109   .     S
C483   H515    1.086   .     S
C483   H516    1.109   .     S
C484   H505    1.109   .     S
C484   H504    1.104   .     S
C484   C490    1.513   .     S
C484   H503    1.096   .     S
C485   O526    1.308   .     A
C485   O523    1.305   .     A
C486   H508    1.104   .     S
C486   H507    1.109   .     S
C486   H506    1.096   .     S
C486   C491    1.513   .     S
C487   O524    1.305   .     A
C487   O525    1.308   .     A
C488   N518    1.379   .     A
C489   N517    1.379   .     A
C489   C94     1.433   1_565 S
C490   N518    1.376   .     A
C491   N517    1.376   .     A
C491   C92     1.433   1_565 S
C492   H501    1.084   .     S
N517   Zn527   2.036   .     S
N518   Zn528   2.036   .     S
O519   Zn527   1.990   .     S
O520   Zn528   1.990   .     S
O521   Zn527   1.991   .     S
O522   Zn528   1.991   .     S
O523   Zn527   2.015   .     S
O524   Zn528   2.015   .     S
O525   Zn527   2.010   .     S
O526   Zn528   2.010   .     S
C529   O585    1.292   .     A
C529   C547    1.413   .     S
C529   O588    1.291   .     A
C530   H575    1.084   .     S
C530   C546    1.394   .     A
C530   C400    1.372   1_655 S
C531   C546    1.395   .     A
C531   H576    1.080   .     S
C531   C426    1.372   1_655 S
C532   C547    1.395   .     A
C532   H577    1.080   .     S
C533   C537    1.390   .     A
C533   Cl559   1.774   .     S
C533   C544    1.400   .     A
C534   C538    1.390   .     A
C534   Cl560   1.774   .     S
C534   C545    1.400   .     A
C535   C539    1.389   .     A
C535   Cl561   1.774   .     S
C535   C545    1.398   .     A
C536   C541    1.389   .     A
C536   C544    1.398   .     A
C536   Cl562   1.774   .     S
C537   C542    1.426   .     A
C537   Cl563   1.772   .     S
C538   C543    1.426   .     A
C538   Cl564   1.772   .     S
C539   Cl565   1.767   .     S
C539   C543    1.425   .     A
C540   O586    1.292   .     A
C540   O587    1.291   .     A
C540   C546    1.413   .     S
C541   C542    1.425   .     A
C541   Cl566   1.767   .     S
C542   C551    1.475   .     S
C543   C553    1.475   .     S
C544   C1139   1.490   1_554 S
C545   C1138   1.490   .     S
C547   C558    1.394   .     A
C548   C554    1.507   .     S
C548   H579    1.109   .     S
C548   H580    1.109   .     S
C548   H578    1.086   .     S
C549   C555    1.507   .     S
C549   H568    1.109   .     S
C549   H581    1.086   .     S
C549   H582    1.109   .     S
C550   H571    1.109   .     S
C550   H570    1.104   .     S
C550   C556    1.513   .     S
C550   H569    1.096   .     S
C551   O592    1.308   .     A
C551   O589    1.305   .     A
C552   H574    1.104   .     S
C552   H573    1.109   .     S
C552   H572    1.096   .     S
C552   C557    1.513   .     S
C553   O590    1.305   .     A
C553   O591    1.308   .     A
C554   N584    1.379   .     A
C555   N583    1.379   .     A
C555   C160    1.433   1_565 S
C556   N584    1.376   .     A
C557   N583    1.376   .     A
C557   C158    1.433   1_565 S
C558   H567    1.084   .     S
N583   Zn593   2.036   .     S
N584   Zn594   2.036   .     S
O585   Zn593   1.990   .     S
O586   Zn594   1.990   .     S
O587   Zn593   1.991   .     S
O588   Zn594   1.991   .     S
O589   Zn593   2.015   .     S
O590   Zn594   2.015   .     S
O591   Zn593   2.010   .     S
O592   Zn594   2.010   .     S
C595   O651    1.292   .     A
C595   C613    1.413   .     S
C595   O654    1.291   .     A
C596   H641    1.084   .     S
C596   C612    1.394   .     A
C596   C664    1.372   .     S
C597   C612    1.395   .     A
C597   H642    1.080   .     S
C597   C690    1.372   .     S
C598   C613    1.395   .     A
C598   H643    1.080   .     S
C598   C728    1.372   1_455 S
C599   C603    1.390   .     A
C599   Cl625   1.774   .     S
C599   C610    1.400   .     A
C600   C604    1.390   .     A
C600   Cl626   1.774   .     S
C600   C611    1.400   .     A
C601   C605    1.389   .     A
C601   Cl627   1.774   .     S
C601   C611    1.398   .     A
C602   C607    1.389   .     A
C602   C610    1.398   .     A
C602   Cl628   1.774   .     S
C603   C608    1.426   .     A
C603   Cl629   1.772   .     S
C604   C609    1.426   .     A
C604   Cl630   1.772   .     S
C605   Cl631   1.767   .     S
C605   C609    1.425   .     A
C606   O652    1.292   .     A
C606   O653    1.291   .     A
C606   C612    1.413   .     S
C607   C608    1.425   .     A
C607   Cl632   1.767   .     S
C608   C617    1.475   .     S
C609   C619    1.475   .     S
C611   C16     1.490   1_556 S
C613   C624    1.394   .     A
C614   C620    1.507   .     S
C614   H645    1.109   .     S
C614   H646    1.109   .     S
C614   H644    1.086   .     S
C615   C621    1.507   .     S
C615   H634    1.109   .     S
C615   H647    1.086   .     S
C615   H648    1.109   .     S
C616   H637    1.109   .     S
C616   H636    1.104   .     S
C616   C622    1.513   .     S
C616   H635    1.096   .     S
C617   O658    1.308   .     A
C617   O655    1.305   .     A
C618   H640    1.104   .     S
C618   H639    1.109   .     S
C618   H638    1.096   .     S
C618   C623    1.513   .     S
C619   O656    1.305   .     A
C619   O657    1.308   .     A
C620   N650    1.379   .     A
C620   C1019   1.433   1_545 S
C621   N649    1.379   .     A
C621   C820    1.433   .     S
C622   N650    1.376   .     A
C622   C1017   1.433   1_545 S
C623   N649    1.376   .     A
C623   C818    1.433   .     S
C624   H633    1.084   .     S
C624   C729    1.372   1_455 S
N649   Zn659   2.036   .     S
N650   Zn660   2.036   .     S
O651   Zn659   1.990   .     S
O652   Zn660   1.990   .     S
O653   Zn659   1.991   .     S
O654   Zn660   1.991   .     S
O655   Zn659   2.015   .     S
O656   Zn660   2.015   .     S
O657   Zn659   2.010   .     S
O658   Zn660   2.010   .     S
C661   O717    1.292   .     A
C661   C679    1.413   .     S
C661   O720    1.291   .     A
C662   H707    1.084   .     S
C662   C678    1.394   .     A
C662   C730    1.372   .     S
C663   C678    1.395   .     A
C663   H708    1.080   .     S
C663   C756    1.372   .     S
C664   C679    1.395   .     A
C664   H709    1.080   .     S
C665   C669    1.390   .     A
C665   Cl691   1.774   .     S
C665   C676    1.400   .     A
C666   C670    1.390   .     A
C666   Cl692   1.774   .     S
C666   C677    1.400   .     A
C667   C671    1.389   .     A
C667   Cl693   1.774   .     S
C667   C677    1.398   .     A
C668   C673    1.389   .     A
C668   C676    1.398   .     A
C668   Cl694   1.774   .     S
C669   C674    1.426   .     A
C669   Cl695   1.772   .     S
C670   C675    1.426   .     A
C670   Cl696   1.772   .     S
C671   Cl697   1.767   .     S
C671   C675    1.425   .     A
C672   O718    1.292   .     A
C672   O719    1.291   .     A
C672   C678    1.413   .     S
C673   C674    1.425   .     A
C673   Cl698   1.767   .     S
C674   C683    1.475   .     S
C675   C685    1.475   .     S
C677   C82     1.490   1_556 S
C679   C690    1.394   .     A
C680   C686    1.507   .     S
C680   H711    1.109   .     S
C680   H712    1.109   .     S
C680   H710    1.086   .     S
C681   C687    1.507   .     S
C681   H700    1.109   .     S
C681   H713    1.086   .     S
C681   H714    1.109   .     S
C682   H703    1.109   .     S
C682   H702    1.104   .     S
C682   C688    1.513   .     S
C682   H701    1.096   .     S
C683   O724    1.308   .     A
C683   O721    1.305   .     A
C684   H706    1.104   .     S
C684   H705    1.109   .     S
C684   H704    1.096   .     S
C684   C689    1.513   .     S
C685   O722    1.305   .     A
C685   O723    1.308   .     A
C686   N716    1.379   .     A
C686   C1085   1.433   1_545 S
C687   N715    1.379   .     A
C687   C886    1.433   .     S
C688   N716    1.376   .     A
C688   C1083   1.433   1_545 S
C689   N715    1.376   .     A
C689   C884    1.433   .     S
C690   H699    1.084   .     S
N715   Zn725   2.036   .     S
N716   Zn726   2.036   .     S
O717   Zn725   1.990   .     S
O718   Zn726   1.990   .     S
O719   Zn725   1.991   .     S
O720   Zn726   1.991   .     S
O721   Zn725   2.015   .     S
O722   Zn726   2.015   .     S
O723   Zn725   2.010   .     S
O724   Zn726   2.010   .     S
C727   O783    1.292   .     A
C727   C745    1.413   .     S
C727   O786    1.291   .     A
C728   H773    1.084   .     S
C728   C744    1.394   .     A
C728   C598    1.372   1_655 S
C729   C744    1.395   .     A
C729   H774    1.080   .     S
C729   C624    1.372   1_655 S
C730   C745    1.395   .     A
C730   H775    1.080   .     S
C731   C735    1.390   .     A
C731   Cl757   1.774   .     S
C731   C742    1.400   .     A
C732   C736    1.390   .     A
C732   Cl758   1.774   .     S
C732   C743    1.400   .     A
C733   C737    1.389   .     A
C733   Cl759   1.774   .     S
C733   C743    1.398   .     A
C734   C739    1.389   .     A
C734   C742    1.398   .     A
C734   Cl760   1.774   .     S
C735   C740    1.426   .     A
C735   Cl761   1.772   .     S
C736   C741    1.426   .     A
C736   Cl762   1.772   .     S
C737   Cl763   1.767   .     S
C737   C741    1.425   .     A
C738   O784    1.292   .     A
C738   O785    1.291   .     A
C738   C744    1.413   .     S
C739   C740    1.425   .     A
C739   Cl764   1.767   .     S
C740   C749    1.475   .     S
C741   C751    1.475   .     S
C743   C148    1.490   1_556 S
C745   C756    1.394   .     A
C746   C752    1.507   .     S
C746   H777    1.109   .     S
C746   H778    1.109   .     S
C746   H776    1.086   .     S
C747   C753    1.507   .     S
C747   H766    1.109   .     S
C747   H779    1.086   .     S
C747   H780    1.109   .     S
C748   H769    1.109   .     S
C748   H768    1.104   .     S
C748   C754    1.513   .     S
C748   H767    1.096   .     S
C749   O790    1.308   .     A
C749   O787    1.305   .     A
C750   H772    1.104   .     S
C750   H771    1.109   .     S
C750   H770    1.096   .     S
C750   C755    1.513   .     S
C751   O788    1.305   .     A
C751   O789    1.308   .     A
C752   N782    1.379   .     A
C752   C1151   1.433   1_545 S
C753   N781    1.379   .     A
C753   C952    1.433   .     S
C754   N782    1.376   .     A
C754   C1149   1.433   1_545 S
C755   N781    1.376   .     A
C755   C950    1.433   .     S
C756   H765    1.084   .     S
N781   Zn791   2.036   .     S
N782   Zn792   2.036   .     S
O783   Zn791   1.990   .     S
O784   Zn792   1.990   .     S
O785   Zn791   1.991   .     S
O786   Zn792   1.991   .     S
O787   Zn791   2.015   .     S
O788   Zn792   2.015   .     S
O789   Zn791   2.010   .     S
O790   Zn792   2.010   .     S
C793   O849    1.292   .     A
C793   C811    1.413   .     S
C793   O852    1.291   .     A
C794   H839    1.084   .     S
C794   C810    1.394   .     A
C794   C862    1.372   .     S
C795   C810    1.395   .     A
C795   H840    1.080   .     S
C795   C888    1.372   .     S
C796   C811    1.395   .     A
C796   H841    1.080   .     S
C796   C926    1.372   1_455 S
C797   C801    1.390   .     A
C797   Cl823   1.774   .     S
C797   C808    1.400   .     A
C798   C802    1.390   .     A
C798   Cl824   1.774   .     S
C798   C809    1.400   .     A
C799   C803    1.389   .     A
C799   Cl825   1.774   .     S
C799   C809    1.398   .     A
C800   C805    1.389   .     A
C800   C808    1.398   .     A
C800   Cl826   1.774   .     S
C801   C806    1.426   .     A
C801   Cl827   1.772   .     S
C802   C807    1.426   .     A
C802   Cl828   1.772   .     S
C803   Cl829   1.767   .     S
C803   C807    1.425   .     A
C804   O850    1.292   .     A
C804   O851    1.291   .     A
C804   C810    1.413   .     S
C805   C806    1.425   .     A
C805   Cl830   1.767   .     S
C806   C815    1.475   .     S
C807   C817    1.475   .     S
C809   C214    1.490   1_556 S
C811   C822    1.394   .     A
C812   C818    1.507   .     S
C812   H843    1.109   .     S
C812   H844    1.109   .     S
C812   H842    1.086   .     S
C813   C819    1.507   .     S
C813   H832    1.109   .     S
C813   H845    1.086   .     S
C813   H846    1.109   .     S
C814   H835    1.109   .     S
C814   H834    1.104   .     S
C814   C820    1.513   .     S
C814   H833    1.096   .     S
C815   O856    1.308   .     A
C815   O853    1.305   .     A
C816   H838    1.104   .     S
C816   H837    1.109   .     S
C816   H836    1.096   .     S
C816   C821    1.513   .     S
C817   O854    1.305   .     A
C817   O855    1.308   .     A
C818   N848    1.379   .     A
C819   N847    1.379   .     A
C819   C1018   1.433   .     S
C820   N848    1.376   .     A
C821   N847    1.376   .     A
C821   C1016   1.433   .     S
C822   H831    1.084   .     S
C822   C927    1.372   1_455 S
N847   Zn857   2.036   .     S
N848   Zn858   2.036   .     S
O849   Zn857   1.990   .     S
O850   Zn858   1.990   .     S
O851   Zn857   1.991   .     S
O852   Zn858   1.991   .     S
O853   Zn857   2.015   .     S
O854   Zn858   2.015   .     S
O855   Zn857   2.010   .     S
O856   Zn858   2.010   .     S
C859   O915    1.292   .     A
C859   C877    1.413   .     S
C859   O918    1.291   .     A
C860   H905    1.084   .     S
C860   C876    1.394   .     A
C860   C928    1.372   .     S
C861   C876    1.395   .     A
C861   H906    1.080   .     S
C861   C954    1.372   .     S
C862   C877    1.395   .     A
C862   H907    1.080   .     S
C863   C867    1.390   .     A
C863   Cl889   1.774   .     S
C863   C874    1.400   .     A
C864   C868    1.390   .     A
C864   Cl890   1.774   .     S
C864   C875    1.400   .     A
C865   C869    1.389   .     A
C865   Cl891   1.774   .     S
C865   C875    1.398   .     A
C866   C871    1.389   .     A
C866   C874    1.398   .     A
C866   Cl892   1.774   .     S
C867   C872    1.426   .     A
C867   Cl893   1.772   .     S
C868   C873    1.426   .     A
C868   Cl894   1.772   .     S
C869   Cl895   1.767   .     S
C869   C873    1.425   .     A
C870   O916    1.292   .     A
C870   O917    1.291   .     A
C870   C876    1.413   .     S
C871   C872    1.425   .     A
C871   Cl896   1.767   .     S
C872   C881    1.475   .     S
C873   C883    1.475   .     S
C875   C280    1.490   1_556 S
C877   C888    1.394   .     A
C878   C884    1.507   .     S
C878   H909    1.109   .     S
C878   H910    1.109   .     S
C878   H908    1.086   .     S
C879   C885    1.507   .     S
C879   H898    1.109   .     S
C879   H911    1.086   .     S
C879   H912    1.109   .     S
C880   H901    1.109   .     S
C880   H900    1.104   .     S
C880   C886    1.513   .     S
C880   H899    1.096   .     S
C881   O922    1.308   .     A
C881   O919    1.305   .     A
C882   H904    1.104   .     S
C882   H903    1.109   .     S
C882   H902    1.096   .     S
C882   C887    1.513   .     S
C883   O920    1.305   .     A
C883   O921    1.308   .     A
C884   N914    1.379   .     A
C885   N913    1.379   .     A
C885   C1084   1.433   .     S
C886   N914    1.376   .     A
C887   N913    1.376   .     A
C887   C1082   1.433   .     S
C888   H897    1.084   .     S
N913   Zn923   2.036   .     S
N914   Zn924   2.036   .     S
O915   Zn923   1.990   .     S
O916   Zn924   1.990   .     S
O917   Zn923   1.991   .     S
O918   Zn924   1.991   .     S
O919   Zn923   2.015   .     S
O920   Zn924   2.015   .     S
O921   Zn923   2.010   .     S
O922   Zn924   2.010   .     S
C925   O981    1.292   .     A
C925   C943    1.413   .     S
C925   O984    1.291   .     A
C926   H971    1.084   .     S
C926   C942    1.394   .     A
C926   C796    1.372   1_655 S
C927   C942    1.395   .     A
C927   H972    1.080   .     S
C927   C822    1.372   1_655 S
C928   C943    1.395   .     A
C928   H973    1.080   .     S
C929   C933    1.390   .     A
C929   Cl955   1.774   .     S
C929   C940    1.400   .     A
C930   C934    1.390   .     A
C930   Cl956   1.774   .     S
C930   C941    1.400   .     A
C931   C935    1.389   .     A
C931   Cl957   1.774   .     S
C931   C941    1.398   .     A
C932   C937    1.389   .     A
C932   C940    1.398   .     A
C932   Cl958   1.774   .     S
C933   C938    1.426   .     A
C933   Cl959   1.772   .     S
C934   C939    1.426   .     A
C934   Cl960   1.772   .     S
C935   Cl961   1.767   .     S
C935   C939    1.425   .     A
C936   O982    1.292   .     A
C936   O983    1.291   .     A
C936   C942    1.413   .     S
C937   C938    1.425   .     A
C937   Cl962   1.767   .     S
C938   C947    1.475   .     S
C939   C949    1.475   .     S
C941   C346    1.490   1_556 S
C943   C954    1.394   .     A
C944   C950    1.507   .     S
C944   H975    1.109   .     S
C944   H976    1.109   .     S
C944   H974    1.086   .     S
C945   C951    1.507   .     S
C945   H964    1.109   .     S
C945   H977    1.086   .     S
C945   H978    1.109   .     S
C946   H967    1.109   .     S
C946   H966    1.104   .     S
C946   C952    1.513   .     S
C946   H965    1.096   .     S
C947   O988    1.308   .     A
C947   O985    1.305   .     A
C948   H970    1.104   .     S
C948   H969    1.109   .     S
C948   H968    1.096   .     S
C948   C953    1.513   .     S
C949   O986    1.305   .     A
C949   O987    1.308   .     A
C950   N980    1.379   .     A
C951   N979    1.379   .     A
C951   C1150   1.433   .     S
C952   N980    1.376   .     A
C953   N979    1.376   .     A
C953   C1148   1.433   .     S
C954   H963    1.084   .     S
N979   Zn989   2.036   .     S
N980   Zn990   2.036   .     S
O981   Zn989   1.990   .     S
O982   Zn990   1.990   .     S
O983   Zn989   1.991   .     S
O984   Zn990   1.991   .     S
O985   Zn989   2.015   .     S
O986   Zn990   2.015   .     S
O987   Zn989   2.010   .     S
O988   Zn990   2.010   .     S
C991   O1047   1.292   .     A
C991   C1009   1.413   .     S
C991   O1050   1.291   .     A
C992   H1037   1.084   .     S
C992   C1008   1.394   .     A
C992   C1060   1.372   .     S
C993   C1008   1.395   .     A
C993   H1038   1.080   .     S
C993   C1086   1.372   .     S
C994   C1009   1.395   .     A
C994   H1039   1.080   .     S
C994   C1124   1.372   1_455 S
C995   C999    1.390   .     A
C995   Cl1021  1.774   .     S
C995   C1006   1.400   .     A
C996   C1000   1.390   .     A
C996   Cl1022  1.774   .     S
C996   C1007   1.400   .     A
C997   C1001   1.389   .     A
C997   Cl1023  1.774   .     S
C997   C1007   1.398   .     A
C998   C1003   1.389   .     A
C998   C1006   1.398   .     A
C998   Cl1024  1.774   .     S
C999   C1004   1.426   .     A
C999   Cl1025  1.772   .     S
C1000  C1005   1.426   .     A
C1000  Cl1026  1.772   .     S
C1001  Cl1027  1.767   .     S
C1001  C1005   1.425   .     A
C1002  O1048   1.292   .     A
C1002  O1049   1.291   .     A
C1002  C1008   1.413   .     S
C1003  C1004   1.425   .     A
C1003  Cl1028  1.767   .     S
C1004  C1013   1.475   .     S
C1005  C1015   1.475   .     S
C1007  C412    1.490   1_556 S
C1009  C1020   1.394   .     A
C1010  C1016   1.507   .     S
C1010  H1041   1.109   .     S
C1010  H1042   1.109   .     S
C1010  H1040   1.086   .     S
C1011  C1017   1.507   .     S
C1011  H1030   1.109   .     S
C1011  H1043   1.086   .     S
C1011  H1044   1.109   .     S
C1012  H1033   1.109   .     S
C1012  H1032   1.104   .     S
C1012  C1018   1.513   .     S
C1012  H1031   1.096   .     S
C1013  O1054   1.308   .     A
C1013  O1051   1.305   .     A
C1014  H1036   1.104   .     S
C1014  H1035   1.109   .     S
C1014  H1034   1.096   .     S
C1014  C1019   1.513   .     S
C1015  O1052   1.305   .     A
C1015  O1053   1.308   .     A
C1016  N1046   1.379   .     A
C1017  N1045   1.379   .     A
C1017  C622    1.433   1_565 S
C1018  N1046   1.376   .     A
C1019  N1045   1.376   .     A
C1019  C620    1.433   1_565 S
C1020  H1029   1.084   .     S
C1020  C1125   1.372   1_455 S
N1045  Zn1055  2.036   .     S
N1046  Zn1056  2.036   .     S
O1047  Zn1055  1.990   .     S
O1048  Zn1056  1.990   .     S
O1049  Zn1055  1.991   .     S
O1050  Zn1056  1.991   .     S
O1051  Zn1055  2.015   .     S
O1052  Zn1056  2.015   .     S
O1053  Zn1055  2.010   .     S
O1054  Zn1056  2.010   .     S
C1057  O1113   1.292   .     A
C1057  C1075   1.413   .     S
C1057  O1116   1.291   .     A
C1058  H1103   1.084   .     S
C1058  C1074   1.394   .     A
C1058  C1126   1.372   .     S
C1059  C1074   1.395   .     A
C1059  H1104   1.080   .     S
C1059  C1152   1.372   .     S
C1060  C1075   1.395   .     A
C1060  H1105   1.080   .     S
C1061  C1065   1.390   .     A
C1061  Cl1087  1.774   .     S
C1061  C1072   1.400   .     A
C1062  C1066   1.390   .     A
C1062  Cl1088  1.774   .     S
C1062  C1073   1.400   .     A
C1063  C1067   1.389   .     A
C1063  Cl1089  1.774   .     S
C1063  C1073   1.398   .     A
C1064  C1069   1.389   .     A
C1064  C1072   1.398   .     A
C1064  Cl1090  1.774   .     S
C1065  C1070   1.426   .     A
C1065  Cl1091  1.772   .     S
C1066  C1071   1.426   .     A
C1066  Cl1092  1.772   .     S
C1067  Cl1093  1.767   .     S
C1067  C1071   1.425   .     A
C1068  O1114   1.292   .     A
C1068  O1115   1.291   .     A
C1068  C1074   1.413   .     S
C1069  C1070   1.425   .     A
C1069  Cl1094  1.767   .     S
C1070  C1079   1.475   .     S
C1071  C1081   1.475   .     S
C1073  C478    1.490   1_556 S
C1075  C1086   1.394   .     A
C1076  C1082   1.507   .     S
C1076  H1107   1.109   .     S
C1076  H1108   1.109   .     S
C1076  H1106   1.086   .     S
C1077  C1083   1.507   .     S
C1077  H1096   1.109   .     S
C1077  H1109   1.086   .     S
C1077  H1110   1.109   .     S
C1078  H1099   1.109   .     S
C1078  H1098   1.104   .     S
C1078  C1084   1.513   .     S
C1078  H1097   1.096   .     S
C1079  O1120   1.308   .     A
C1079  O1117   1.305   .     A
C1080  H1102   1.104   .     S
C1080  H1101   1.109   .     S
C1080  H1100   1.096   .     S
C1080  C1085   1.513   .     S
C1081  O1118   1.305   .     A
C1081  O1119   1.308   .     A
C1082  N1112   1.379   .     A
C1083  N1111   1.379   .     A
C1083  C688    1.433   1_565 S
C1084  N1112   1.376   .     A
C1085  N1111   1.376   .     A
C1085  C686    1.433   1_565 S
C1086  H1095   1.084   .     S
N1111  Zn1121  2.036   .     S
N1112  Zn1122  2.036   .     S
O1113  Zn1121  1.990   .     S
O1114  Zn1122  1.990   .     S
O1115  Zn1121  1.991   .     S
O1116  Zn1122  1.991   .     S
O1117  Zn1121  2.015   .     S
O1118  Zn1122  2.015   .     S
O1119  Zn1121  2.010   .     S
O1120  Zn1122  2.010   .     S
C1123  O1179   1.292   .     A
C1123  C1141   1.413   .     S
C1123  O1182   1.291   .     A
C1124  H1169   1.084   .     S
C1124  C1140   1.394   .     A
C1124  C994    1.372   1_655 S
C1125  C1140   1.395   .     A
C1125  H1170   1.080   .     S
C1125  C1020   1.372   1_655 S
C1126  C1141   1.395   .     A
C1126  H1171   1.080   .     S
C1127  C1131   1.390   .     A
C1127  Cl1153  1.774   .     S
C1127  C1138   1.400   .     A
C1128  C1132   1.390   .     A
C1128  Cl1154  1.774   .     S
C1128  C1139   1.400   .     A
C1129  C1133   1.389   .     A
C1129  Cl1155  1.774   .     S
C1129  C1139   1.398   .     A
C1130  C1135   1.389   .     A
C1130  C1138   1.398   .     A
C1130  Cl1156  1.774   .     S
C1131  C1136   1.426   .     A
C1131  Cl1157  1.772   .     S
C1132  C1137   1.426   .     A
C1132  Cl1158  1.772   .     S
C1133  Cl1159  1.767   .     S
C1133  C1137   1.425   .     A
C1134  O1180   1.292   .     A
C1134  O1181   1.291   .     A
C1134  C1140   1.413   .     S
C1135  C1136   1.425   .     A
C1135  Cl1160  1.767   .     S
C1136  C1145   1.475   .     S
C1137  C1147   1.475   .     S
C1139  C544    1.490   1_556 S
C1141  C1152   1.394   .     A
C1142  C1148   1.507   .     S
C1142  H1173   1.109   .     S
C1142  H1174   1.109   .     S
C1142  H1172   1.086   .     S
C1143  C1149   1.507   .     S
C1143  H1162   1.109   .     S
C1143  H1175   1.086   .     S
C1143  H1176   1.109   .     S
C1144  H1165   1.109   .     S
C1144  H1164   1.104   .     S
C1144  C1150   1.513   .     S
C1144  H1163   1.096   .     S
C1145  O1186   1.308   .     A
C1145  O1183   1.305   .     A
C1146  H1168   1.104   .     S
C1146  H1167   1.109   .     S
C1146  H1166   1.096   .     S
C1146  C1151   1.513   .     S
C1147  O1184   1.305   .     A
C1147  O1185   1.308   .     A
C1148  N1178   1.379   .     A
C1149  N1177   1.379   .     A
C1149  C754    1.433   1_565 S
C1150  N1178   1.376   .     A
C1151  N1177   1.376   .     A
C1151  C752    1.433   1_565 S
C1152  H1161   1.084   .     S
N1177  Zn1187  2.036   .     S
N1178  Zn1188  2.036   .     S
O1179  Zn1187  1.990   .     S
O1180  Zn1188  1.990   .     S
O1181  Zn1187  1.991   .     S
O1182  Zn1188  1.991   .     S
O1183  Zn1187  2.015   .     S
O1184  Zn1188  2.015   .     S
O1185  Zn1187  2.010   .     S
O1186  Zn1188  2.010   .     S
