data_str_m3_o2_o10_pcu_sym.101
_audit_creation_date              2020-01-03
_audit_creation_method            'Materials Studio'
_symmetry_space_group_name_H-M    'P1'
_symmetry_Int_Tables_number       1
_symmetry_cell_setting            triclinic
loop_
_symmetry_equiv_pos_as_xyz
  x,y,z
_cell_length_a                    25.9958
_cell_length_b                    29.9809
_cell_length_c                    28.5490
_cell_angle_alpha                 89.2659
_cell_angle_beta                  97.6188
_cell_angle_gamma                 91.1085
loop_
_atom_site_label
_atom_site_type_symbol
_atom_site_fract_x
_atom_site_fract_y
_atom_site_fract_z
_atom_site_U_iso_or_equiv
_atom_site_adp_type
_atom_site_occupancy
C1     C     0.16683   0.16418   0.25025   0.00000  Uiso   1.00
C2     C     0.12461   0.23025   0.44226   0.00000  Uiso   1.00
C3     C     0.17002   0.24788   0.02733   0.00000  Uiso   1.00
C4     C     0.16444   0.25243   0.47290   0.00000  Uiso   1.00
C5     C     0.06741   0.24931   0.23802   0.00000  Uiso   1.00
C6     C     0.26592   0.25125   0.26180   0.00000  Uiso   1.00
C7     C     0.01321   0.24251   0.23266   0.00000  Uiso   1.00
C8     C     0.31997   0.25916   0.26622   0.00000  Uiso   1.00
C9     C     0.21872   0.04962   0.25223   0.00000  Uiso   1.00
C10    C     0.14659   0.45219   0.20069   0.00000  Uiso   1.00
C11    C     0.21569   0.09521   0.26089   0.00000  Uiso   1.00
C12    C     0.16519   0.33620   0.24951   0.00000  Uiso   1.00
C13    C     0.13930   0.40617   0.20652   0.00000  Uiso   1.00
C14    C     0.16783   0.11644   0.25024   0.00000  Uiso   1.00
C15    C     0.16369   0.38464   0.24792   0.00000  Uiso   1.00
C16    C     0.12203   0.09238   0.23473   0.00000  Uiso   1.00
C17    C     0.18914   0.40994   0.28597   0.00000  Uiso   1.00
C18    C     0.12432   0.04650   0.23157   0.00000  Uiso   1.00
C19    C     0.19019   0.45587   0.28170   0.00000  Uiso   1.00
C20    C     0.17213   0.02525   0.23908   0.00000  Uiso   1.00
C21    C     0.17107   0.47683   0.23931   0.00000  Uiso   1.00
C22    C     0.32381   0.21270   0.19168   0.00000  Uiso   1.00
C23    C     0.13783   0.21841   0.05037   0.00000  Uiso   1.00
C24    C     0.00895   0.29165   0.30468   0.00000  Uiso   1.00
C25    C     0.27130   0.02800   0.25634   0.00000  Uiso   1.00
C26    C     0.12896   0.47408   0.15335   0.00000  Uiso   1.00
C27    C     0.07104   0.11516   0.22099   0.00000  Uiso   1.00
C28    C     0.21588   0.38952   0.33119   0.00000  Uiso   1.00
C29    C     0.26318   0.27920   0.04559   0.00000  Uiso   1.00
C30    C     0.07065   0.22230   0.45548   0.00000  Uiso   1.00
C31    C     0.19735   0.28100   0.44959   0.00000  Uiso   1.00
C32    C     0.13651   0.22013   0.09929   0.00000  Uiso   1.00
C33    C     0.19818   0.27903   0.40061   0.00000  Uiso   1.00
C34    C     0.20233   0.27588   0.10621   0.00000  Uiso   1.00
C35    C     0.13071   0.22492   0.39415   0.00000  Uiso   1.00
C36    C     0.20906   0.27073   0.05820   0.00000  Uiso   1.00
H37    H     0.08882   0.02710   0.22254   0.00000  Uiso   1.00
H38    H     0.31125   0.30962   0.31946   0.00000  Uiso   1.00
H39    H     0.03146   0.27358   0.33453   0.00000  Uiso   1.00
H40    H     0.03364   0.31762   0.29009   0.00000  Uiso   1.00
H41    H     0.28908   0.02701   0.29390   0.00000  Uiso   1.00
H42    H     0.26939   0.49362   0.24232   0.00000  Uiso   1.00
H43    H     0.29704   0.04739   0.23526   0.00000  Uiso   1.00
H44    H     0.08593   0.47493   0.14707   0.00000  Uiso   1.00
H45    H     0.14451   0.00857   0.15061   0.00000  Uiso   1.00
H46    H     0.14335   0.45504   0.12477   0.00000  Uiso   1.00
H47    H     0.07398   0.13643   0.18939   0.00000  Uiso   1.00
H48    H     0.20709   0.47583   0.31148   0.00000  Uiso   1.00
H49    H     0.03857   0.09087   0.21202   0.00000  Uiso   1.00
H50    H     0.06182   0.13609   0.25042   0.00000  Uiso   1.00
H51    H     0.18669   0.37337   0.35123   0.00000  Uiso   1.00
H52    H     0.24466   0.36491   0.32305   0.00000  Uiso   1.00
H53    H     0.23728   0.41490   0.35465   0.00000  Uiso   1.00
H54    H     0.27110   0.25863   0.01543   0.00000  Uiso   1.00
H55    H     0.26968   0.31525   0.03865   0.00000  Uiso   1.00
H56    H     0.29264   0.26855   0.07522   0.00000  Uiso   1.00
H57    H     0.06355   0.18624   0.46188   0.00000  Uiso   1.00
H58    H     0.06363   0.24244   0.48624   0.00000  Uiso   1.00
H59    H     0.11480   0.19249   0.03171   0.00000  Uiso   1.00
H60    H     0.04107   0.23373   0.42632   0.00000  Uiso   1.00
H61    H     0.22134   0.30650   0.46790   0.00000  Uiso   1.00
H62    H     0.11131   0.19740   0.11578   0.00000  Uiso   1.00
H63    H     0.22428   0.30077   0.38404   0.00000  Uiso   1.00
H64    H     0.02093   0.19666   0.17438   0.00000  Uiso   1.00
H65    H     0.29949   0.18537   0.20404   0.00000  Uiso   1.00
H66    H     0.30088   0.23262   0.16365   0.00000  Uiso   1.00
I67    I     0.28296   0.13175   0.29114   0.00000  Uiso   1.00
I68    I     0.08647   0.37132   0.15418   0.00000  Uiso   1.00
I69    I     0.24966   0.32536   0.14547   0.00000  Uiso   1.00
I70    I     0.08316   0.17580   0.35542   0.00000  Uiso   1.00
N71    N     0.16667   0.24999   0.12624   0.00000  Uiso   1.00
N72    N     0.16667   0.25001   0.37377   0.00000  Uiso   1.00
O73    O     0.16667   0.18454   0.28974   0.00000  Uiso   1.00
O74    O     0.16666   0.31547   0.21026   0.00000  Uiso   1.00
O75    O     0.16667   0.18453   0.21026   0.00000  Uiso   1.00
O76    O     0.16666   0.31547   0.28974   0.00000  Uiso   1.00
O77    O     0.09058   0.25000   0.28045   0.00000  Uiso   1.00
O78    O     0.24275   0.25000   0.21956   0.00000  Uiso   1.00
O79    O     0.09058   0.25000   0.20097   0.00000  Uiso   1.00
O80    O     0.24275   0.25001   0.29904   0.00000  Uiso   1.00
Zn81   Zn    0.16667   0.25001   0.30307   0.00000  Uiso   1.00
Zn82   Zn    0.16667   0.25000   0.19693   0.00000  Uiso   1.00
C83    C     0.50016   0.16418   0.25025   0.00000  Uiso   1.00
C84    C     0.45794   0.23025   0.44226   0.00000  Uiso   1.00
C85    C     0.50335   0.24788   0.02733   0.00000  Uiso   1.00
C86    C     0.49778   0.25243   0.47290   0.00000  Uiso   1.00
C87    C     0.40074   0.24931   0.23802   0.00000  Uiso   1.00
C88    C     0.59925   0.25125   0.26180   0.00000  Uiso   1.00
C89    C     0.34655   0.24251   0.23266   0.00000  Uiso   1.00
C90    C     0.65330   0.25916   0.26622   0.00000  Uiso   1.00
C91    C     0.55206   0.04962   0.25223   0.00000  Uiso   1.00
C92    C     0.47992   0.45219   0.20069   0.00000  Uiso   1.00
C93    C     0.54902   0.09521   0.26089   0.00000  Uiso   1.00
C94    C     0.49852   0.33620   0.24951   0.00000  Uiso   1.00
C95    C     0.47263   0.40617   0.20652   0.00000  Uiso   1.00
C96    C     0.50116   0.11644   0.25024   0.00000  Uiso   1.00
C97    C     0.49702   0.38464   0.24792   0.00000  Uiso   1.00
C98    C     0.45536   0.09238   0.23473   0.00000  Uiso   1.00
C99    C     0.52247   0.40994   0.28597   0.00000  Uiso   1.00
C100   C     0.45765   0.04650   0.23157   0.00000  Uiso   1.00
C101   C     0.52352   0.45587   0.28170   0.00000  Uiso   1.00
C102   C     0.50546   0.02525   0.23908   0.00000  Uiso   1.00
C103   C     0.50440   0.47683   0.23931   0.00000  Uiso   1.00
C104   C     0.65714   0.21270   0.19168   0.00000  Uiso   1.00
C105   C     0.47116   0.21841   0.05037   0.00000  Uiso   1.00
C106   C     0.34228   0.29165   0.30468   0.00000  Uiso   1.00
C107   C     0.60463   0.02800   0.25634   0.00000  Uiso   1.00
C108   C     0.46230   0.47408   0.15335   0.00000  Uiso   1.00
C109   C     0.40437   0.11516   0.22099   0.00000  Uiso   1.00
C110   C     0.54922   0.38952   0.33119   0.00000  Uiso   1.00
C111   C     0.59651   0.27920   0.04559   0.00000  Uiso   1.00
C112   C     0.40398   0.22230   0.45548   0.00000  Uiso   1.00
C113   C     0.53068   0.28100   0.44959   0.00000  Uiso   1.00
C114   C     0.46984   0.22013   0.09929   0.00000  Uiso   1.00
C115   C     0.53151   0.27903   0.40061   0.00000  Uiso   1.00
C116   C     0.53566   0.27588   0.10621   0.00000  Uiso   1.00
C117   C     0.46404   0.22492   0.39415   0.00000  Uiso   1.00
C118   C     0.54240   0.27073   0.05820   0.00000  Uiso   1.00
H119   H     0.42215   0.02710   0.22254   0.00000  Uiso   1.00
H120   H     0.64459   0.30962   0.31946   0.00000  Uiso   1.00
H121   H     0.36479   0.27358   0.33453   0.00000  Uiso   1.00
H122   H     0.36698   0.31762   0.29009   0.00000  Uiso   1.00
H123   H     0.62241   0.02701   0.29390   0.00000  Uiso   1.00
H124   H     0.60272   0.49362   0.24232   0.00000  Uiso   1.00
H125   H     0.63037   0.04739   0.23526   0.00000  Uiso   1.00
H126   H     0.41926   0.47493   0.14707   0.00000  Uiso   1.00
H127   H     0.47785   0.00857   0.15061   0.00000  Uiso   1.00
H128   H     0.47668   0.45504   0.12477   0.00000  Uiso   1.00
H129   H     0.40731   0.13643   0.18939   0.00000  Uiso   1.00
H130   H     0.54042   0.47583   0.31148   0.00000  Uiso   1.00
H131   H     0.37191   0.09087   0.21202   0.00000  Uiso   1.00
H132   H     0.39515   0.13609   0.25042   0.00000  Uiso   1.00
H133   H     0.52003   0.37337   0.35123   0.00000  Uiso   1.00
H134   H     0.57800   0.36491   0.32305   0.00000  Uiso   1.00
H135   H     0.57061   0.41490   0.35465   0.00000  Uiso   1.00
H136   H     0.60443   0.25863   0.01543   0.00000  Uiso   1.00
H137   H     0.60302   0.31525   0.03865   0.00000  Uiso   1.00
H138   H     0.62597   0.26855   0.07522   0.00000  Uiso   1.00
H139   H     0.39688   0.18624   0.46188   0.00000  Uiso   1.00
H140   H     0.39696   0.24244   0.48624   0.00000  Uiso   1.00
H141   H     0.44813   0.19249   0.03171   0.00000  Uiso   1.00
H142   H     0.37440   0.23373   0.42632   0.00000  Uiso   1.00
H143   H     0.55467   0.30650   0.46790   0.00000  Uiso   1.00
H144   H     0.44464   0.19740   0.11578   0.00000  Uiso   1.00
H145   H     0.55761   0.30077   0.38404   0.00000  Uiso   1.00
H146   H     0.35427   0.19666   0.17438   0.00000  Uiso   1.00
H147   H     0.63282   0.18537   0.20404   0.00000  Uiso   1.00
H148   H     0.63421   0.23262   0.16365   0.00000  Uiso   1.00
I149   I     0.61629   0.13175   0.29114   0.00000  Uiso   1.00
I150   I     0.41981   0.37132   0.15418   0.00000  Uiso   1.00
I151   I     0.58299   0.32536   0.14547   0.00000  Uiso   1.00
I152   I     0.41649   0.17580   0.35542   0.00000  Uiso   1.00
N153   N     0.50000   0.24999   0.12624   0.00000  Uiso   1.00
N154   N     0.50000   0.25001   0.37377   0.00000  Uiso   1.00
O155   O     0.50000   0.18454   0.28974   0.00000  Uiso   1.00
O156   O     0.50000   0.31547   0.21026   0.00000  Uiso   1.00
O157   O     0.50000   0.18453   0.21026   0.00000  Uiso   1.00
O158   O     0.50000   0.31547   0.28974   0.00000  Uiso   1.00
O159   O     0.42392   0.25000   0.28045   0.00000  Uiso   1.00
O160   O     0.57608   0.25000   0.21956   0.00000  Uiso   1.00
O161   O     0.42392   0.25000   0.20097   0.00000  Uiso   1.00
O162   O     0.57608   0.25001   0.29904   0.00000  Uiso   1.00
Zn163  Zn    0.50000   0.25001   0.30307   0.00000  Uiso   1.00
Zn164  Zn    0.50000   0.25000   0.19693   0.00000  Uiso   1.00
C165   C     0.83350   0.16418   0.25025   0.00000  Uiso   1.00
C166   C     0.79127   0.23025   0.44226   0.00000  Uiso   1.00
C167   C     0.83669   0.24788   0.02733   0.00000  Uiso   1.00
C168   C     0.83111   0.25243   0.47290   0.00000  Uiso   1.00
C169   C     0.73408   0.24931   0.23802   0.00000  Uiso   1.00
C170   C     0.93258   0.25125   0.26180   0.00000  Uiso   1.00
C171   C     0.67988   0.24251   0.23266   0.00000  Uiso   1.00
C172   C     0.98663   0.25916   0.26622   0.00000  Uiso   1.00
C173   C     0.88539   0.04962   0.25223   0.00000  Uiso   1.00
C174   C     0.81325   0.45219   0.20069   0.00000  Uiso   1.00
C175   C     0.88236   0.09521   0.26089   0.00000  Uiso   1.00
C176   C     0.83186   0.33620   0.24951   0.00000  Uiso   1.00
C177   C     0.80596   0.40617   0.20652   0.00000  Uiso   1.00
C178   C     0.83450   0.11644   0.25024   0.00000  Uiso   1.00
C179   C     0.83035   0.38464   0.24792   0.00000  Uiso   1.00
C180   C     0.78869   0.09238   0.23473   0.00000  Uiso   1.00
C181   C     0.85581   0.40994   0.28597   0.00000  Uiso   1.00
C182   C     0.79099   0.04650   0.23157   0.00000  Uiso   1.00
C183   C     0.85686   0.45587   0.28170   0.00000  Uiso   1.00
C184   C     0.83879   0.02525   0.23908   0.00000  Uiso   1.00
C185   C     0.83773   0.47683   0.23931   0.00000  Uiso   1.00
C186   C     0.99047   0.21270   0.19168   0.00000  Uiso   1.00
C187   C     0.80450   0.21841   0.05037   0.00000  Uiso   1.00
C188   C     0.67561   0.29165   0.30468   0.00000  Uiso   1.00
C189   C     0.93797   0.02800   0.25634   0.00000  Uiso   1.00
C190   C     0.79563   0.47408   0.15335   0.00000  Uiso   1.00
C191   C     0.73771   0.11516   0.22099   0.00000  Uiso   1.00
C192   C     0.88255   0.38952   0.33119   0.00000  Uiso   1.00
C193   C     0.92985   0.27920   0.04559   0.00000  Uiso   1.00
C194   C     0.73731   0.22230   0.45548   0.00000  Uiso   1.00
C195   C     0.86401   0.28100   0.44959   0.00000  Uiso   1.00
C196   C     0.80317   0.22013   0.09929   0.00000  Uiso   1.00
C197   C     0.86484   0.27903   0.40061   0.00000  Uiso   1.00
C198   C     0.86900   0.27588   0.10621   0.00000  Uiso   1.00
C199   C     0.79737   0.22492   0.39415   0.00000  Uiso   1.00
C200   C     0.87573   0.27073   0.05820   0.00000  Uiso   1.00
H201   H     0.75549   0.02710   0.22254   0.00000  Uiso   1.00
H202   H     0.97792   0.30962   0.31946   0.00000  Uiso   1.00
H203   H     0.69813   0.27358   0.33453   0.00000  Uiso   1.00
H204   H     0.70031   0.31762   0.29009   0.00000  Uiso   1.00
H205   H     0.95575   0.02701   0.29390   0.00000  Uiso   1.00
H206   H     0.93605   0.49362   0.24232   0.00000  Uiso   1.00
H207   H     0.96371   0.04739   0.23526   0.00000  Uiso   1.00
H208   H     0.75259   0.47493   0.14707   0.00000  Uiso   1.00
H209   H     0.81118   0.00857   0.15061   0.00000  Uiso   1.00
H210   H     0.81001   0.45504   0.12477   0.00000  Uiso   1.00
H211   H     0.74064   0.13643   0.18939   0.00000  Uiso   1.00
H212   H     0.87375   0.47583   0.31148   0.00000  Uiso   1.00
H213   H     0.70524   0.09087   0.21202   0.00000  Uiso   1.00
H214   H     0.72848   0.13609   0.25042   0.00000  Uiso   1.00
H215   H     0.85336   0.37337   0.35123   0.00000  Uiso   1.00
H216   H     0.91133   0.36491   0.32305   0.00000  Uiso   1.00
H217   H     0.90395   0.41490   0.35465   0.00000  Uiso   1.00
H218   H     0.93777   0.25863   0.01543   0.00000  Uiso   1.00
H219   H     0.93635   0.31525   0.03865   0.00000  Uiso   1.00
H220   H     0.95931   0.26855   0.07522   0.00000  Uiso   1.00
H221   H     0.73022   0.18624   0.46188   0.00000  Uiso   1.00
H222   H     0.73029   0.24244   0.48624   0.00000  Uiso   1.00
H223   H     0.78146   0.19249   0.03171   0.00000  Uiso   1.00
H224   H     0.70773   0.23373   0.42632   0.00000  Uiso   1.00
H225   H     0.88801   0.30650   0.46790   0.00000  Uiso   1.00
H226   H     0.77798   0.19740   0.11578   0.00000  Uiso   1.00
H227   H     0.89094   0.30077   0.38404   0.00000  Uiso   1.00
H228   H     0.68760   0.19666   0.17438   0.00000  Uiso   1.00
H229   H     0.96615   0.18537   0.20404   0.00000  Uiso   1.00
H230   H     0.96755   0.23262   0.16365   0.00000  Uiso   1.00
I231   I     0.94963   0.13175   0.29114   0.00000  Uiso   1.00
I232   I     0.75314   0.37132   0.15418   0.00000  Uiso   1.00
I233   I     0.91632   0.32536   0.14547   0.00000  Uiso   1.00
I234   I     0.74982   0.17580   0.35542   0.00000  Uiso   1.00
N235   N     0.83333   0.24999   0.12624   0.00000  Uiso   1.00
N236   N     0.83333   0.25001   0.37377   0.00000  Uiso   1.00
O237   O     0.83334   0.18454   0.28974   0.00000  Uiso   1.00
O238   O     0.83333   0.31547   0.21026   0.00000  Uiso   1.00
O239   O     0.83334   0.18453   0.21026   0.00000  Uiso   1.00
O240   O     0.83333   0.31547   0.28974   0.00000  Uiso   1.00
O241   O     0.75725   0.25000   0.28045   0.00000  Uiso   1.00
O242   O     0.90942   0.25000   0.21956   0.00000  Uiso   1.00
O243   O     0.75725   0.25000   0.20097   0.00000  Uiso   1.00
O244   O     0.90942   0.25001   0.29904   0.00000  Uiso   1.00
Zn245  Zn    0.83333   0.25001   0.30307   0.00000  Uiso   1.00
Zn246  Zn    0.83333   0.25000   0.19693   0.00000  Uiso   1.00
C247   C     0.16683   0.66418   0.25025   0.00000  Uiso   1.00
C248   C     0.12461   0.73025   0.44226   0.00000  Uiso   1.00
C249   C     0.17002   0.74788   0.02733   0.00000  Uiso   1.00
C250   C     0.16444   0.75243   0.47290   0.00000  Uiso   1.00
C251   C     0.06741   0.74931   0.23802   0.00000  Uiso   1.00
C252   C     0.26592   0.75125   0.26180   0.00000  Uiso   1.00
C253   C     0.01321   0.74251   0.23266   0.00000  Uiso   1.00
C254   C     0.31997   0.75916   0.26622   0.00000  Uiso   1.00
C255   C     0.21872   0.54962   0.25223   0.00000  Uiso   1.00
C256   C     0.14659   0.95219   0.20069   0.00000  Uiso   1.00
C257   C     0.21569   0.59521   0.26089   0.00000  Uiso   1.00
C258   C     0.16519   0.83620   0.24951   0.00000  Uiso   1.00
C259   C     0.13930   0.90617   0.20652   0.00000  Uiso   1.00
C260   C     0.16783   0.61644   0.25024   0.00000  Uiso   1.00
C261   C     0.16369   0.88464   0.24792   0.00000  Uiso   1.00
C262   C     0.12203   0.59238   0.23473   0.00000  Uiso   1.00
C263   C     0.18914   0.90994   0.28597   0.00000  Uiso   1.00
C264   C     0.12432   0.54650   0.23157   0.00000  Uiso   1.00
C265   C     0.19019   0.95587   0.28170   0.00000  Uiso   1.00
C266   C     0.17213   0.52525   0.23908   0.00000  Uiso   1.00
C267   C     0.17107   0.97683   0.23931   0.00000  Uiso   1.00
C268   C     0.32381   0.71270   0.19168   0.00000  Uiso   1.00
C269   C     0.13783   0.71841   0.05037   0.00000  Uiso   1.00
C270   C     0.00895   0.79165   0.30468   0.00000  Uiso   1.00
C271   C     0.27130   0.52800   0.25634   0.00000  Uiso   1.00
C272   C     0.12896   0.97408   0.15335   0.00000  Uiso   1.00
C273   C     0.07104   0.61516   0.22099   0.00000  Uiso   1.00
C274   C     0.21588   0.88952   0.33119   0.00000  Uiso   1.00
C275   C     0.26318   0.77920   0.04559   0.00000  Uiso   1.00
C276   C     0.07065   0.72230   0.45548   0.00000  Uiso   1.00
C277   C     0.19735   0.78100   0.44959   0.00000  Uiso   1.00
C278   C     0.13651   0.72013   0.09929   0.00000  Uiso   1.00
C279   C     0.19818   0.77903   0.40061   0.00000  Uiso   1.00
C280   C     0.20233   0.77588   0.10621   0.00000  Uiso   1.00
C281   C     0.13071   0.72492   0.39415   0.00000  Uiso   1.00
C282   C     0.20906   0.77073   0.05820   0.00000  Uiso   1.00
H283   H     0.08882   0.52710   0.22254   0.00000  Uiso   1.00
H284   H     0.31125   0.80962   0.31946   0.00000  Uiso   1.00
H285   H     0.03146   0.77358   0.33453   0.00000  Uiso   1.00
H286   H     0.03364   0.81762   0.29009   0.00000  Uiso   1.00
H287   H     0.28908   0.52701   0.29390   0.00000  Uiso   1.00
H288   H     0.26939   0.99362   0.24232   0.00000  Uiso   1.00
H289   H     0.29704   0.54739   0.23526   0.00000  Uiso   1.00
H290   H     0.08593   0.97493   0.14707   0.00000  Uiso   1.00
H291   H     0.14451   0.50857   0.15061   0.00000  Uiso   1.00
H292   H     0.14335   0.95504   0.12477   0.00000  Uiso   1.00
H293   H     0.07398   0.63643   0.18939   0.00000  Uiso   1.00
H294   H     0.20709   0.97583   0.31148   0.00000  Uiso   1.00
H295   H     0.03857   0.59087   0.21202   0.00000  Uiso   1.00
H296   H     0.06182   0.63609   0.25042   0.00000  Uiso   1.00
H297   H     0.18669   0.87337   0.35123   0.00000  Uiso   1.00
H298   H     0.24466   0.86491   0.32305   0.00000  Uiso   1.00
H299   H     0.23728   0.91490   0.35465   0.00000  Uiso   1.00
H300   H     0.27110   0.75863   0.01543   0.00000  Uiso   1.00
H301   H     0.26968   0.81525   0.03865   0.00000  Uiso   1.00
H302   H     0.29264   0.76855   0.07522   0.00000  Uiso   1.00
H303   H     0.06355   0.68624   0.46188   0.00000  Uiso   1.00
H304   H     0.06363   0.74244   0.48624   0.00000  Uiso   1.00
H305   H     0.11480   0.69249   0.03171   0.00000  Uiso   1.00
H306   H     0.04107   0.73373   0.42632   0.00000  Uiso   1.00
H307   H     0.22134   0.80650   0.46790   0.00000  Uiso   1.00
H308   H     0.11131   0.69740   0.11578   0.00000  Uiso   1.00
H309   H     0.22428   0.80077   0.38404   0.00000  Uiso   1.00
H310   H     0.02093   0.69666   0.17438   0.00000  Uiso   1.00
H311   H     0.29949   0.68537   0.20404   0.00000  Uiso   1.00
H312   H     0.30088   0.73262   0.16365   0.00000  Uiso   1.00
I313   I     0.28296   0.63175   0.29114   0.00000  Uiso   1.00
I314   I     0.08647   0.87132   0.15418   0.00000  Uiso   1.00
I315   I     0.24966   0.82536   0.14547   0.00000  Uiso   1.00
I316   I     0.08316   0.67580   0.35542   0.00000  Uiso   1.00
N317   N     0.16667   0.74999   0.12624   0.00000  Uiso   1.00
N318   N     0.16667   0.75001   0.37377   0.00000  Uiso   1.00
O319   O     0.16667   0.68454   0.28974   0.00000  Uiso   1.00
O320   O     0.16666   0.81547   0.21026   0.00000  Uiso   1.00
O321   O     0.16667   0.68453   0.21026   0.00000  Uiso   1.00
O322   O     0.16666   0.81547   0.28974   0.00000  Uiso   1.00
O323   O     0.09058   0.75000   0.28045   0.00000  Uiso   1.00
O324   O     0.24275   0.75000   0.21956   0.00000  Uiso   1.00
O325   O     0.09058   0.75000   0.20097   0.00000  Uiso   1.00
O326   O     0.24275   0.75001   0.29904   0.00000  Uiso   1.00
Zn327  Zn    0.16667   0.75001   0.30307   0.00000  Uiso   1.00
Zn328  Zn    0.16667   0.75000   0.19693   0.00000  Uiso   1.00
C329   C     0.50016   0.66418   0.25025   0.00000  Uiso   1.00
C330   C     0.45794   0.73025   0.44226   0.00000  Uiso   1.00
C331   C     0.50335   0.74788   0.02733   0.00000  Uiso   1.00
C332   C     0.49778   0.75243   0.47290   0.00000  Uiso   1.00
C333   C     0.40074   0.74931   0.23802   0.00000  Uiso   1.00
C334   C     0.59925   0.75125   0.26180   0.00000  Uiso   1.00
C335   C     0.34655   0.74251   0.23266   0.00000  Uiso   1.00
C336   C     0.65330   0.75916   0.26622   0.00000  Uiso   1.00
C337   C     0.55206   0.54962   0.25223   0.00000  Uiso   1.00
C338   C     0.47992   0.95219   0.20069   0.00000  Uiso   1.00
C339   C     0.54902   0.59521   0.26089   0.00000  Uiso   1.00
C340   C     0.49852   0.83620   0.24951   0.00000  Uiso   1.00
C341   C     0.47263   0.90617   0.20652   0.00000  Uiso   1.00
C342   C     0.50116   0.61644   0.25024   0.00000  Uiso   1.00
C343   C     0.49702   0.88464   0.24792   0.00000  Uiso   1.00
C344   C     0.45536   0.59238   0.23473   0.00000  Uiso   1.00
C345   C     0.52247   0.90994   0.28597   0.00000  Uiso   1.00
C346   C     0.45765   0.54650   0.23157   0.00000  Uiso   1.00
C347   C     0.52352   0.95587   0.28170   0.00000  Uiso   1.00
C348   C     0.50546   0.52525   0.23908   0.00000  Uiso   1.00
C349   C     0.50440   0.97683   0.23931   0.00000  Uiso   1.00
C350   C     0.65714   0.71270   0.19168   0.00000  Uiso   1.00
C351   C     0.47116   0.71841   0.05037   0.00000  Uiso   1.00
C352   C     0.34228   0.79165   0.30468   0.00000  Uiso   1.00
C353   C     0.60463   0.52800   0.25634   0.00000  Uiso   1.00
C354   C     0.46230   0.97408   0.15335   0.00000  Uiso   1.00
C355   C     0.40437   0.61516   0.22099   0.00000  Uiso   1.00
C356   C     0.54922   0.88952   0.33119   0.00000  Uiso   1.00
C357   C     0.59651   0.77920   0.04559   0.00000  Uiso   1.00
C358   C     0.40398   0.72230   0.45548   0.00000  Uiso   1.00
C359   C     0.53068   0.78100   0.44959   0.00000  Uiso   1.00
C360   C     0.46984   0.72013   0.09929   0.00000  Uiso   1.00
C361   C     0.53151   0.77903   0.40061   0.00000  Uiso   1.00
C362   C     0.53566   0.77588   0.10621   0.00000  Uiso   1.00
C363   C     0.46404   0.72492   0.39415   0.00000  Uiso   1.00
C364   C     0.54240   0.77073   0.05820   0.00000  Uiso   1.00
H365   H     0.42215   0.52710   0.22254   0.00000  Uiso   1.00
H366   H     0.64459   0.80962   0.31946   0.00000  Uiso   1.00
H367   H     0.36479   0.77358   0.33453   0.00000  Uiso   1.00
H368   H     0.36698   0.81762   0.29009   0.00000  Uiso   1.00
H369   H     0.62241   0.52701   0.29390   0.00000  Uiso   1.00
H370   H     0.60272   0.99362   0.24232   0.00000  Uiso   1.00
H371   H     0.63037   0.54739   0.23526   0.00000  Uiso   1.00
H372   H     0.41926   0.97493   0.14707   0.00000  Uiso   1.00
H373   H     0.47785   0.50857   0.15061   0.00000  Uiso   1.00
H374   H     0.47668   0.95504   0.12477   0.00000  Uiso   1.00
H375   H     0.40731   0.63643   0.18939   0.00000  Uiso   1.00
H376   H     0.54042   0.97583   0.31148   0.00000  Uiso   1.00
H377   H     0.37191   0.59087   0.21202   0.00000  Uiso   1.00
H378   H     0.39515   0.63609   0.25042   0.00000  Uiso   1.00
H379   H     0.52003   0.87337   0.35123   0.00000  Uiso   1.00
H380   H     0.57800   0.86491   0.32305   0.00000  Uiso   1.00
H381   H     0.57061   0.91490   0.35465   0.00000  Uiso   1.00
H382   H     0.60443   0.75863   0.01543   0.00000  Uiso   1.00
H383   H     0.60302   0.81525   0.03865   0.00000  Uiso   1.00
H384   H     0.62597   0.76855   0.07522   0.00000  Uiso   1.00
H385   H     0.39688   0.68624   0.46188   0.00000  Uiso   1.00
H386   H     0.39696   0.74244   0.48624   0.00000  Uiso   1.00
H387   H     0.44813   0.69249   0.03171   0.00000  Uiso   1.00
H388   H     0.37440   0.73373   0.42632   0.00000  Uiso   1.00
H389   H     0.55467   0.80650   0.46790   0.00000  Uiso   1.00
H390   H     0.44464   0.69740   0.11578   0.00000  Uiso   1.00
H391   H     0.55761   0.80077   0.38404   0.00000  Uiso   1.00
H392   H     0.35427   0.69666   0.17438   0.00000  Uiso   1.00
H393   H     0.63282   0.68537   0.20404   0.00000  Uiso   1.00
H394   H     0.63421   0.73262   0.16365   0.00000  Uiso   1.00
I395   I     0.61629   0.63175   0.29114   0.00000  Uiso   1.00
I396   I     0.41981   0.87132   0.15418   0.00000  Uiso   1.00
I397   I     0.58299   0.82536   0.14547   0.00000  Uiso   1.00
I398   I     0.41649   0.67580   0.35542   0.00000  Uiso   1.00
N399   N     0.50000   0.74999   0.12624   0.00000  Uiso   1.00
N400   N     0.50000   0.75001   0.37377   0.00000  Uiso   1.00
O401   O     0.50000   0.68454   0.28974   0.00000  Uiso   1.00
O402   O     0.50000   0.81547   0.21026   0.00000  Uiso   1.00
O403   O     0.50000   0.68453   0.21026   0.00000  Uiso   1.00
O404   O     0.50000   0.81547   0.28974   0.00000  Uiso   1.00
O405   O     0.42392   0.75000   0.28045   0.00000  Uiso   1.00
O406   O     0.57608   0.75000   0.21956   0.00000  Uiso   1.00
O407   O     0.42392   0.75000   0.20097   0.00000  Uiso   1.00
O408   O     0.57608   0.75001   0.29904   0.00000  Uiso   1.00
Zn409  Zn    0.50000   0.75001   0.30307   0.00000  Uiso   1.00
Zn410  Zn    0.50000   0.75000   0.19693   0.00000  Uiso   1.00
C411   C     0.83350   0.66418   0.25025   0.00000  Uiso   1.00
C412   C     0.79127   0.73025   0.44226   0.00000  Uiso   1.00
C413   C     0.83669   0.74788   0.02733   0.00000  Uiso   1.00
C414   C     0.83111   0.75243   0.47290   0.00000  Uiso   1.00
C415   C     0.73408   0.74931   0.23802   0.00000  Uiso   1.00
C416   C     0.93258   0.75125   0.26180   0.00000  Uiso   1.00
C417   C     0.67988   0.74251   0.23266   0.00000  Uiso   1.00
C418   C     0.98663   0.75916   0.26622   0.00000  Uiso   1.00
C419   C     0.88539   0.54962   0.25223   0.00000  Uiso   1.00
C420   C     0.81325   0.95219   0.20069   0.00000  Uiso   1.00
C421   C     0.88236   0.59521   0.26089   0.00000  Uiso   1.00
C422   C     0.83186   0.83620   0.24951   0.00000  Uiso   1.00
C423   C     0.80596   0.90617   0.20652   0.00000  Uiso   1.00
C424   C     0.83450   0.61644   0.25024   0.00000  Uiso   1.00
C425   C     0.83035   0.88464   0.24792   0.00000  Uiso   1.00
C426   C     0.78869   0.59238   0.23473   0.00000  Uiso   1.00
C427   C     0.85581   0.90994   0.28597   0.00000  Uiso   1.00
C428   C     0.79099   0.54650   0.23157   0.00000  Uiso   1.00
C429   C     0.85686   0.95587   0.28170   0.00000  Uiso   1.00
C430   C     0.83879   0.52525   0.23908   0.00000  Uiso   1.00
C431   C     0.83773   0.97683   0.23931   0.00000  Uiso   1.00
C432   C     0.99047   0.71270   0.19168   0.00000  Uiso   1.00
C433   C     0.80450   0.71841   0.05037   0.00000  Uiso   1.00
C434   C     0.67561   0.79165   0.30468   0.00000  Uiso   1.00
C435   C     0.93797   0.52800   0.25634   0.00000  Uiso   1.00
C436   C     0.79563   0.97408   0.15335   0.00000  Uiso   1.00
C437   C     0.73771   0.61516   0.22099   0.00000  Uiso   1.00
C438   C     0.88255   0.88952   0.33119   0.00000  Uiso   1.00
C439   C     0.92985   0.77920   0.04559   0.00000  Uiso   1.00
C440   C     0.73731   0.72230   0.45548   0.00000  Uiso   1.00
C441   C     0.86401   0.78100   0.44959   0.00000  Uiso   1.00
C442   C     0.80317   0.72013   0.09929   0.00000  Uiso   1.00
C443   C     0.86484   0.77903   0.40061   0.00000  Uiso   1.00
C444   C     0.86900   0.77588   0.10621   0.00000  Uiso   1.00
C445   C     0.79737   0.72492   0.39415   0.00000  Uiso   1.00
C446   C     0.87573   0.77073   0.05820   0.00000  Uiso   1.00
H447   H     0.75549   0.52710   0.22254   0.00000  Uiso   1.00
H448   H     0.97792   0.80962   0.31946   0.00000  Uiso   1.00
H449   H     0.69813   0.77358   0.33453   0.00000  Uiso   1.00
H450   H     0.70031   0.81762   0.29009   0.00000  Uiso   1.00
H451   H     0.95575   0.52701   0.29390   0.00000  Uiso   1.00
H452   H     0.93605   0.99362   0.24232   0.00000  Uiso   1.00
H453   H     0.96371   0.54739   0.23526   0.00000  Uiso   1.00
H454   H     0.75259   0.97493   0.14707   0.00000  Uiso   1.00
H455   H     0.81118   0.50857   0.15061   0.00000  Uiso   1.00
H456   H     0.81001   0.95504   0.12477   0.00000  Uiso   1.00
H457   H     0.74064   0.63643   0.18939   0.00000  Uiso   1.00
H458   H     0.87375   0.97583   0.31148   0.00000  Uiso   1.00
H459   H     0.70524   0.59087   0.21202   0.00000  Uiso   1.00
H460   H     0.72848   0.63609   0.25042   0.00000  Uiso   1.00
H461   H     0.85336   0.87337   0.35123   0.00000  Uiso   1.00
H462   H     0.91133   0.86491   0.32305   0.00000  Uiso   1.00
H463   H     0.90395   0.91490   0.35465   0.00000  Uiso   1.00
H464   H     0.93777   0.75863   0.01543   0.00000  Uiso   1.00
H465   H     0.93635   0.81525   0.03865   0.00000  Uiso   1.00
H466   H     0.95931   0.76855   0.07522   0.00000  Uiso   1.00
H467   H     0.73022   0.68624   0.46188   0.00000  Uiso   1.00
H468   H     0.73029   0.74244   0.48624   0.00000  Uiso   1.00
H469   H     0.78146   0.69249   0.03171   0.00000  Uiso   1.00
H470   H     0.70773   0.73373   0.42632   0.00000  Uiso   1.00
H471   H     0.88801   0.80650   0.46790   0.00000  Uiso   1.00
H472   H     0.77798   0.69740   0.11578   0.00000  Uiso   1.00
H473   H     0.89094   0.80077   0.38404   0.00000  Uiso   1.00
H474   H     0.68760   0.69666   0.17438   0.00000  Uiso   1.00
H475   H     0.96615   0.68537   0.20404   0.00000  Uiso   1.00
H476   H     0.96755   0.73262   0.16365   0.00000  Uiso   1.00
I477   I     0.94963   0.63175   0.29114   0.00000  Uiso   1.00
I478   I     0.75314   0.87132   0.15418   0.00000  Uiso   1.00
I479   I     0.91632   0.82536   0.14547   0.00000  Uiso   1.00
I480   I     0.74982   0.67580   0.35542   0.00000  Uiso   1.00
N481   N     0.83333   0.74999   0.12624   0.00000  Uiso   1.00
N482   N     0.83333   0.75001   0.37377   0.00000  Uiso   1.00
O483   O     0.83334   0.68454   0.28974   0.00000  Uiso   1.00
O484   O     0.83333   0.81547   0.21026   0.00000  Uiso   1.00
O485   O     0.83334   0.68453   0.21026   0.00000  Uiso   1.00
O486   O     0.83333   0.81547   0.28974   0.00000  Uiso   1.00
O487   O     0.75725   0.75000   0.28045   0.00000  Uiso   1.00
O488   O     0.90942   0.75000   0.21956   0.00000  Uiso   1.00
O489   O     0.75725   0.75000   0.20097   0.00000  Uiso   1.00
O490   O     0.90942   0.75001   0.29904   0.00000  Uiso   1.00
Zn491  Zn    0.83333   0.75001   0.30307   0.00000  Uiso   1.00
Zn492  Zn    0.83333   0.75000   0.19693   0.00000  Uiso   1.00
C493   C     0.16683   0.16418   0.75025   0.00000  Uiso   1.00
C494   C     0.12461   0.23025   0.94226   0.00000  Uiso   1.00
C495   C     0.17002   0.24788   0.52733   0.00000  Uiso   1.00
C496   C     0.16444   0.25243   0.97290   0.00000  Uiso   1.00
C497   C     0.06741   0.24931   0.73802   0.00000  Uiso   1.00
C498   C     0.26592   0.25125   0.76180   0.00000  Uiso   1.00
C499   C     0.01321   0.24251   0.73266   0.00000  Uiso   1.00
C500   C     0.31997   0.25916   0.76622   0.00000  Uiso   1.00
C501   C     0.21872   0.04962   0.75223   0.00000  Uiso   1.00
C502   C     0.14659   0.45219   0.70069   0.00000  Uiso   1.00
C503   C     0.21569   0.09521   0.76089   0.00000  Uiso   1.00
C504   C     0.16519   0.33620   0.74951   0.00000  Uiso   1.00
C505   C     0.13930   0.40617   0.70652   0.00000  Uiso   1.00
C506   C     0.16783   0.11644   0.75024   0.00000  Uiso   1.00
C507   C     0.16369   0.38464   0.74792   0.00000  Uiso   1.00
C508   C     0.12203   0.09238   0.73473   0.00000  Uiso   1.00
C509   C     0.18914   0.40994   0.78597   0.00000  Uiso   1.00
C510   C     0.12432   0.04650   0.73157   0.00000  Uiso   1.00
C511   C     0.19019   0.45587   0.78170   0.00000  Uiso   1.00
C512   C     0.17213   0.02525   0.73908   0.00000  Uiso   1.00
C513   C     0.17107   0.47683   0.73931   0.00000  Uiso   1.00
C514   C     0.32381   0.21270   0.69168   0.00000  Uiso   1.00
C515   C     0.13783   0.21841   0.55037   0.00000  Uiso   1.00
C516   C     0.00895   0.29165   0.80468   0.00000  Uiso   1.00
C517   C     0.27130   0.02800   0.75634   0.00000  Uiso   1.00
C518   C     0.12896   0.47408   0.65335   0.00000  Uiso   1.00
C519   C     0.07104   0.11516   0.72099   0.00000  Uiso   1.00
C520   C     0.21588   0.38952   0.83119   0.00000  Uiso   1.00
C521   C     0.26318   0.27920   0.54559   0.00000  Uiso   1.00
C522   C     0.07065   0.22230   0.95548   0.00000  Uiso   1.00
C523   C     0.19735   0.28100   0.94959   0.00000  Uiso   1.00
C524   C     0.13651   0.22013   0.59929   0.00000  Uiso   1.00
C525   C     0.19818   0.27903   0.90061   0.00000  Uiso   1.00
C526   C     0.20233   0.27588   0.60621   0.00000  Uiso   1.00
C527   C     0.13071   0.22492   0.89415   0.00000  Uiso   1.00
C528   C     0.20906   0.27073   0.55820   0.00000  Uiso   1.00
H529   H     0.08882   0.02710   0.72254   0.00000  Uiso   1.00
H530   H     0.31125   0.30962   0.81946   0.00000  Uiso   1.00
H531   H     0.03146   0.27358   0.83453   0.00000  Uiso   1.00
H532   H     0.03364   0.31762   0.79009   0.00000  Uiso   1.00
H533   H     0.28908   0.02701   0.79390   0.00000  Uiso   1.00
H534   H     0.26939   0.49362   0.74232   0.00000  Uiso   1.00
H535   H     0.29704   0.04739   0.73526   0.00000  Uiso   1.00
H536   H     0.08593   0.47493   0.64707   0.00000  Uiso   1.00
H537   H     0.14451   0.00857   0.65061   0.00000  Uiso   1.00
H538   H     0.14335   0.45504   0.62477   0.00000  Uiso   1.00
H539   H     0.07398   0.13643   0.68939   0.00000  Uiso   1.00
H540   H     0.20709   0.47583   0.81148   0.00000  Uiso   1.00
H541   H     0.03857   0.09087   0.71202   0.00000  Uiso   1.00
H542   H     0.06182   0.13609   0.75042   0.00000  Uiso   1.00
H543   H     0.18669   0.37337   0.85123   0.00000  Uiso   1.00
H544   H     0.24466   0.36491   0.82305   0.00000  Uiso   1.00
H545   H     0.23728   0.41490   0.85465   0.00000  Uiso   1.00
H546   H     0.27110   0.25863   0.51543   0.00000  Uiso   1.00
H547   H     0.26968   0.31525   0.53865   0.00000  Uiso   1.00
H548   H     0.29264   0.26855   0.57522   0.00000  Uiso   1.00
H549   H     0.06355   0.18624   0.96188   0.00000  Uiso   1.00
H550   H     0.06363   0.24244   0.98624   0.00000  Uiso   1.00
H551   H     0.11480   0.19249   0.53171   0.00000  Uiso   1.00
H552   H     0.04107   0.23373   0.92632   0.00000  Uiso   1.00
H553   H     0.22134   0.30650   0.96790   0.00000  Uiso   1.00
H554   H     0.11131   0.19740   0.61578   0.00000  Uiso   1.00
H555   H     0.22428   0.30077   0.88404   0.00000  Uiso   1.00
H556   H     0.02093   0.19666   0.67438   0.00000  Uiso   1.00
H557   H     0.29949   0.18537   0.70404   0.00000  Uiso   1.00
H558   H     0.30088   0.23262   0.66365   0.00000  Uiso   1.00
I559   I     0.28296   0.13175   0.79114   0.00000  Uiso   1.00
I560   I     0.08647   0.37132   0.65418   0.00000  Uiso   1.00
I561   I     0.24966   0.32536   0.64547   0.00000  Uiso   1.00
I562   I     0.08316   0.17580   0.85542   0.00000  Uiso   1.00
N563   N     0.16667   0.24999   0.62624   0.00000  Uiso   1.00
N564   N     0.16667   0.25001   0.87377   0.00000  Uiso   1.00
O565   O     0.16667   0.18454   0.78974   0.00000  Uiso   1.00
O566   O     0.16666   0.31547   0.71026   0.00000  Uiso   1.00
O567   O     0.16667   0.18453   0.71026   0.00000  Uiso   1.00
O568   O     0.16666   0.31547   0.78974   0.00000  Uiso   1.00
O569   O     0.09058   0.25000   0.78045   0.00000  Uiso   1.00
O570   O     0.24275   0.25000   0.71956   0.00000  Uiso   1.00
O571   O     0.09058   0.25000   0.70097   0.00000  Uiso   1.00
O572   O     0.24275   0.25001   0.79904   0.00000  Uiso   1.00
Zn573  Zn    0.16667   0.25001   0.80307   0.00000  Uiso   1.00
Zn574  Zn    0.16667   0.25000   0.69693   0.00000  Uiso   1.00
C575   C     0.50016   0.16418   0.75025   0.00000  Uiso   1.00
C576   C     0.45794   0.23025   0.94226   0.00000  Uiso   1.00
C577   C     0.50335   0.24788   0.52733   0.00000  Uiso   1.00
C578   C     0.49778   0.25243   0.97290   0.00000  Uiso   1.00
C579   C     0.40074   0.24931   0.73802   0.00000  Uiso   1.00
C580   C     0.59925   0.25125   0.76180   0.00000  Uiso   1.00
C581   C     0.34655   0.24251   0.73266   0.00000  Uiso   1.00
C582   C     0.65330   0.25916   0.76622   0.00000  Uiso   1.00
C583   C     0.55206   0.04962   0.75223   0.00000  Uiso   1.00
C584   C     0.47992   0.45219   0.70069   0.00000  Uiso   1.00
C585   C     0.54902   0.09521   0.76089   0.00000  Uiso   1.00
C586   C     0.49852   0.33620   0.74951   0.00000  Uiso   1.00
C587   C     0.47263   0.40617   0.70652   0.00000  Uiso   1.00
C588   C     0.50116   0.11644   0.75024   0.00000  Uiso   1.00
C589   C     0.49702   0.38464   0.74792   0.00000  Uiso   1.00
C590   C     0.45536   0.09238   0.73473   0.00000  Uiso   1.00
C591   C     0.52247   0.40994   0.78597   0.00000  Uiso   1.00
C592   C     0.45765   0.04650   0.73157   0.00000  Uiso   1.00
C593   C     0.52352   0.45587   0.78170   0.00000  Uiso   1.00
C594   C     0.50546   0.02525   0.73908   0.00000  Uiso   1.00
C595   C     0.50440   0.47683   0.73931   0.00000  Uiso   1.00
C596   C     0.65714   0.21270   0.69168   0.00000  Uiso   1.00
C597   C     0.47116   0.21841   0.55037   0.00000  Uiso   1.00
C598   C     0.34228   0.29165   0.80468   0.00000  Uiso   1.00
C599   C     0.60463   0.02800   0.75634   0.00000  Uiso   1.00
C600   C     0.46230   0.47408   0.65335   0.00000  Uiso   1.00
C601   C     0.40437   0.11516   0.72099   0.00000  Uiso   1.00
C602   C     0.54922   0.38952   0.83119   0.00000  Uiso   1.00
C603   C     0.59651   0.27920   0.54559   0.00000  Uiso   1.00
C604   C     0.40398   0.22230   0.95548   0.00000  Uiso   1.00
C605   C     0.53068   0.28100   0.94959   0.00000  Uiso   1.00
C606   C     0.46984   0.22013   0.59929   0.00000  Uiso   1.00
C607   C     0.53151   0.27903   0.90061   0.00000  Uiso   1.00
C608   C     0.53566   0.27588   0.60621   0.00000  Uiso   1.00
C609   C     0.46404   0.22492   0.89415   0.00000  Uiso   1.00
C610   C     0.54240   0.27073   0.55820   0.00000  Uiso   1.00
H611   H     0.42215   0.02710   0.72254   0.00000  Uiso   1.00
H612   H     0.64459   0.30962   0.81946   0.00000  Uiso   1.00
H613   H     0.36479   0.27358   0.83453   0.00000  Uiso   1.00
H614   H     0.36698   0.31762   0.79009   0.00000  Uiso   1.00
H615   H     0.62241   0.02701   0.79390   0.00000  Uiso   1.00
H616   H     0.60272   0.49362   0.74232   0.00000  Uiso   1.00
H617   H     0.63037   0.04739   0.73526   0.00000  Uiso   1.00
H618   H     0.41926   0.47493   0.64707   0.00000  Uiso   1.00
H619   H     0.47785   0.00857   0.65061   0.00000  Uiso   1.00
H620   H     0.47668   0.45504   0.62477   0.00000  Uiso   1.00
H621   H     0.40731   0.13643   0.68939   0.00000  Uiso   1.00
H622   H     0.54042   0.47583   0.81148   0.00000  Uiso   1.00
H623   H     0.37191   0.09087   0.71202   0.00000  Uiso   1.00
H624   H     0.39515   0.13609   0.75042   0.00000  Uiso   1.00
H625   H     0.52003   0.37337   0.85123   0.00000  Uiso   1.00
H626   H     0.57800   0.36491   0.82305   0.00000  Uiso   1.00
H627   H     0.57061   0.41490   0.85465   0.00000  Uiso   1.00
H628   H     0.60443   0.25863   0.51543   0.00000  Uiso   1.00
H629   H     0.60302   0.31525   0.53865   0.00000  Uiso   1.00
H630   H     0.62597   0.26855   0.57522   0.00000  Uiso   1.00
H631   H     0.39688   0.18624   0.96188   0.00000  Uiso   1.00
H632   H     0.39696   0.24244   0.98624   0.00000  Uiso   1.00
H633   H     0.44813   0.19249   0.53171   0.00000  Uiso   1.00
H634   H     0.37440   0.23373   0.92632   0.00000  Uiso   1.00
H635   H     0.55467   0.30650   0.96790   0.00000  Uiso   1.00
H636   H     0.44464   0.19740   0.61578   0.00000  Uiso   1.00
H637   H     0.55761   0.30077   0.88404   0.00000  Uiso   1.00
H638   H     0.35427   0.19666   0.67438   0.00000  Uiso   1.00
H639   H     0.63282   0.18537   0.70404   0.00000  Uiso   1.00
H640   H     0.63421   0.23262   0.66365   0.00000  Uiso   1.00
I641   I     0.61629   0.13175   0.79114   0.00000  Uiso   1.00
I642   I     0.41981   0.37132   0.65418   0.00000  Uiso   1.00
I643   I     0.58299   0.32536   0.64547   0.00000  Uiso   1.00
I644   I     0.41649   0.17580   0.85542   0.00000  Uiso   1.00
N645   N     0.50000   0.24999   0.62624   0.00000  Uiso   1.00
N646   N     0.50000   0.25001   0.87377   0.00000  Uiso   1.00
O647   O     0.50000   0.18454   0.78974   0.00000  Uiso   1.00
O648   O     0.50000   0.31547   0.71026   0.00000  Uiso   1.00
O649   O     0.50000   0.18453   0.71026   0.00000  Uiso   1.00
O650   O     0.50000   0.31547   0.78974   0.00000  Uiso   1.00
O651   O     0.42392   0.25000   0.78045   0.00000  Uiso   1.00
O652   O     0.57608   0.25000   0.71956   0.00000  Uiso   1.00
O653   O     0.42392   0.25000   0.70097   0.00000  Uiso   1.00
O654   O     0.57608   0.25001   0.79904   0.00000  Uiso   1.00
Zn655  Zn    0.50000   0.25001   0.80307   0.00000  Uiso   1.00
Zn656  Zn    0.50000   0.25000   0.69693   0.00000  Uiso   1.00
C657   C     0.83350   0.16418   0.75025   0.00000  Uiso   1.00
C658   C     0.79127   0.23025   0.94226   0.00000  Uiso   1.00
C659   C     0.83669   0.24788   0.52733   0.00000  Uiso   1.00
C660   C     0.83111   0.25243   0.97290   0.00000  Uiso   1.00
C661   C     0.73408   0.24931   0.73802   0.00000  Uiso   1.00
C662   C     0.93258   0.25125   0.76180   0.00000  Uiso   1.00
C663   C     0.67988   0.24251   0.73266   0.00000  Uiso   1.00
C664   C     0.98663   0.25916   0.76622   0.00000  Uiso   1.00
C665   C     0.88539   0.04962   0.75223   0.00000  Uiso   1.00
C666   C     0.81325   0.45219   0.70069   0.00000  Uiso   1.00
C667   C     0.88236   0.09521   0.76089   0.00000  Uiso   1.00
C668   C     0.83186   0.33620   0.74951   0.00000  Uiso   1.00
C669   C     0.80596   0.40617   0.70652   0.00000  Uiso   1.00
C670   C     0.83450   0.11644   0.75024   0.00000  Uiso   1.00
C671   C     0.83035   0.38464   0.74792   0.00000  Uiso   1.00
C672   C     0.78869   0.09238   0.73473   0.00000  Uiso   1.00
C673   C     0.85581   0.40994   0.78597   0.00000  Uiso   1.00
C674   C     0.79099   0.04650   0.73157   0.00000  Uiso   1.00
C675   C     0.85686   0.45587   0.78170   0.00000  Uiso   1.00
C676   C     0.83879   0.02525   0.73908   0.00000  Uiso   1.00
C677   C     0.83773   0.47683   0.73931   0.00000  Uiso   1.00
C678   C     0.99047   0.21270   0.69168   0.00000  Uiso   1.00
C679   C     0.80450   0.21841   0.55037   0.00000  Uiso   1.00
C680   C     0.67561   0.29165   0.80468   0.00000  Uiso   1.00
C681   C     0.93797   0.02800   0.75634   0.00000  Uiso   1.00
C682   C     0.79563   0.47408   0.65335   0.00000  Uiso   1.00
C683   C     0.73771   0.11516   0.72099   0.00000  Uiso   1.00
C684   C     0.88255   0.38952   0.83119   0.00000  Uiso   1.00
C685   C     0.92985   0.27920   0.54559   0.00000  Uiso   1.00
C686   C     0.73731   0.22230   0.95548   0.00000  Uiso   1.00
C687   C     0.86401   0.28100   0.94959   0.00000  Uiso   1.00
C688   C     0.80317   0.22013   0.59929   0.00000  Uiso   1.00
C689   C     0.86484   0.27903   0.90061   0.00000  Uiso   1.00
C690   C     0.86900   0.27588   0.60621   0.00000  Uiso   1.00
C691   C     0.79737   0.22492   0.89415   0.00000  Uiso   1.00
C692   C     0.87573   0.27073   0.55820   0.00000  Uiso   1.00
H693   H     0.75549   0.02710   0.72254   0.00000  Uiso   1.00
H694   H     0.97792   0.30962   0.81946   0.00000  Uiso   1.00
H695   H     0.69813   0.27358   0.83453   0.00000  Uiso   1.00
H696   H     0.70031   0.31762   0.79009   0.00000  Uiso   1.00
H697   H     0.95575   0.02701   0.79390   0.00000  Uiso   1.00
H698   H     0.93605   0.49362   0.74232   0.00000  Uiso   1.00
H699   H     0.96371   0.04739   0.73526   0.00000  Uiso   1.00
H700   H     0.75259   0.47493   0.64707   0.00000  Uiso   1.00
H701   H     0.81118   0.00857   0.65061   0.00000  Uiso   1.00
H702   H     0.81001   0.45504   0.62477   0.00000  Uiso   1.00
H703   H     0.74064   0.13643   0.68939   0.00000  Uiso   1.00
H704   H     0.87375   0.47583   0.81148   0.00000  Uiso   1.00
H705   H     0.70524   0.09087   0.71202   0.00000  Uiso   1.00
H706   H     0.72848   0.13609   0.75042   0.00000  Uiso   1.00
H707   H     0.85336   0.37337   0.85123   0.00000  Uiso   1.00
H708   H     0.91133   0.36491   0.82305   0.00000  Uiso   1.00
H709   H     0.90395   0.41490   0.85465   0.00000  Uiso   1.00
H710   H     0.93777   0.25863   0.51543   0.00000  Uiso   1.00
H711   H     0.93635   0.31525   0.53865   0.00000  Uiso   1.00
H712   H     0.95931   0.26855   0.57522   0.00000  Uiso   1.00
H713   H     0.73022   0.18624   0.96188   0.00000  Uiso   1.00
H714   H     0.73029   0.24244   0.98624   0.00000  Uiso   1.00
H715   H     0.78146   0.19249   0.53171   0.00000  Uiso   1.00
H716   H     0.70773   0.23373   0.92632   0.00000  Uiso   1.00
H717   H     0.88801   0.30650   0.96790   0.00000  Uiso   1.00
H718   H     0.77798   0.19740   0.61578   0.00000  Uiso   1.00
H719   H     0.89094   0.30077   0.88404   0.00000  Uiso   1.00
H720   H     0.68760   0.19666   0.67438   0.00000  Uiso   1.00
H721   H     0.96615   0.18537   0.70404   0.00000  Uiso   1.00
H722   H     0.96755   0.23262   0.66365   0.00000  Uiso   1.00
I723   I     0.94963   0.13175   0.79114   0.00000  Uiso   1.00
I724   I     0.75314   0.37132   0.65418   0.00000  Uiso   1.00
I725   I     0.91632   0.32536   0.64547   0.00000  Uiso   1.00
I726   I     0.74982   0.17580   0.85542   0.00000  Uiso   1.00
N727   N     0.83333   0.24999   0.62624   0.00000  Uiso   1.00
N728   N     0.83333   0.25001   0.87377   0.00000  Uiso   1.00
O729   O     0.83334   0.18454   0.78974   0.00000  Uiso   1.00
O730   O     0.83333   0.31547   0.71026   0.00000  Uiso   1.00
O731   O     0.83334   0.18453   0.71026   0.00000  Uiso   1.00
O732   O     0.83333   0.31547   0.78974   0.00000  Uiso   1.00
O733   O     0.75725   0.25000   0.78045   0.00000  Uiso   1.00
O734   O     0.90942   0.25000   0.71956   0.00000  Uiso   1.00
O735   O     0.75725   0.25000   0.70097   0.00000  Uiso   1.00
O736   O     0.90942   0.25001   0.79904   0.00000  Uiso   1.00
Zn737  Zn    0.83333   0.25001   0.80307   0.00000  Uiso   1.00
Zn738  Zn    0.83333   0.25000   0.69693   0.00000  Uiso   1.00
C739   C     0.16683   0.66418   0.75025   0.00000  Uiso   1.00
C740   C     0.12461   0.73025   0.94226   0.00000  Uiso   1.00
C741   C     0.17002   0.74788   0.52733   0.00000  Uiso   1.00
C742   C     0.16444   0.75243   0.97290   0.00000  Uiso   1.00
C743   C     0.06741   0.74931   0.73802   0.00000  Uiso   1.00
C744   C     0.26592   0.75125   0.76180   0.00000  Uiso   1.00
C745   C     0.01321   0.74251   0.73266   0.00000  Uiso   1.00
C746   C     0.31997   0.75916   0.76622   0.00000  Uiso   1.00
C747   C     0.21872   0.54962   0.75223   0.00000  Uiso   1.00
C748   C     0.14659   0.95219   0.70069   0.00000  Uiso   1.00
C749   C     0.21569   0.59521   0.76089   0.00000  Uiso   1.00
C750   C     0.16519   0.83620   0.74951   0.00000  Uiso   1.00
C751   C     0.13930   0.90617   0.70652   0.00000  Uiso   1.00
C752   C     0.16783   0.61644   0.75024   0.00000  Uiso   1.00
C753   C     0.16369   0.88464   0.74792   0.00000  Uiso   1.00
C754   C     0.12203   0.59238   0.73473   0.00000  Uiso   1.00
C755   C     0.18914   0.90994   0.78597   0.00000  Uiso   1.00
C756   C     0.12432   0.54650   0.73157   0.00000  Uiso   1.00
C757   C     0.19019   0.95587   0.78170   0.00000  Uiso   1.00
C758   C     0.17213   0.52525   0.73908   0.00000  Uiso   1.00
C759   C     0.17107   0.97683   0.73931   0.00000  Uiso   1.00
C760   C     0.32381   0.71270   0.69168   0.00000  Uiso   1.00
C761   C     0.13783   0.71841   0.55037   0.00000  Uiso   1.00
C762   C     0.00895   0.79165   0.80468   0.00000  Uiso   1.00
C763   C     0.27130   0.52800   0.75634   0.00000  Uiso   1.00
C764   C     0.12896   0.97408   0.65335   0.00000  Uiso   1.00
C765   C     0.07104   0.61516   0.72099   0.00000  Uiso   1.00
C766   C     0.21588   0.88952   0.83119   0.00000  Uiso   1.00
C767   C     0.26318   0.77920   0.54559   0.00000  Uiso   1.00
C768   C     0.07065   0.72230   0.95548   0.00000  Uiso   1.00
C769   C     0.19735   0.78100   0.94959   0.00000  Uiso   1.00
C770   C     0.13651   0.72013   0.59929   0.00000  Uiso   1.00
C771   C     0.19818   0.77903   0.90061   0.00000  Uiso   1.00
C772   C     0.20233   0.77588   0.60621   0.00000  Uiso   1.00
C773   C     0.13071   0.72492   0.89415   0.00000  Uiso   1.00
C774   C     0.20906   0.77073   0.55820   0.00000  Uiso   1.00
H775   H     0.08882   0.52710   0.72254   0.00000  Uiso   1.00
H776   H     0.31125   0.80962   0.81946   0.00000  Uiso   1.00
H777   H     0.03146   0.77358   0.83453   0.00000  Uiso   1.00
H778   H     0.03364   0.81762   0.79009   0.00000  Uiso   1.00
H779   H     0.28908   0.52701   0.79390   0.00000  Uiso   1.00
H780   H     0.26939   0.99362   0.74232   0.00000  Uiso   1.00
H781   H     0.29704   0.54739   0.73526   0.00000  Uiso   1.00
H782   H     0.08593   0.97493   0.64707   0.00000  Uiso   1.00
H783   H     0.14451   0.50857   0.65061   0.00000  Uiso   1.00
H784   H     0.14335   0.95504   0.62477   0.00000  Uiso   1.00
H785   H     0.07398   0.63643   0.68939   0.00000  Uiso   1.00
H786   H     0.20709   0.97583   0.81148   0.00000  Uiso   1.00
H787   H     0.03857   0.59087   0.71202   0.00000  Uiso   1.00
H788   H     0.06182   0.63609   0.75042   0.00000  Uiso   1.00
H789   H     0.18669   0.87337   0.85123   0.00000  Uiso   1.00
H790   H     0.24466   0.86491   0.82305   0.00000  Uiso   1.00
H791   H     0.23728   0.91490   0.85465   0.00000  Uiso   1.00
H792   H     0.27110   0.75863   0.51543   0.00000  Uiso   1.00
H793   H     0.26968   0.81525   0.53865   0.00000  Uiso   1.00
H794   H     0.29264   0.76855   0.57522   0.00000  Uiso   1.00
H795   H     0.06355   0.68624   0.96188   0.00000  Uiso   1.00
H796   H     0.06363   0.74244   0.98624   0.00000  Uiso   1.00
H797   H     0.11480   0.69249   0.53171   0.00000  Uiso   1.00
H798   H     0.04107   0.73373   0.92632   0.00000  Uiso   1.00
H799   H     0.22134   0.80650   0.96790   0.00000  Uiso   1.00
H800   H     0.11131   0.69740   0.61578   0.00000  Uiso   1.00
H801   H     0.22428   0.80077   0.88404   0.00000  Uiso   1.00
H802   H     0.02093   0.69666   0.67438   0.00000  Uiso   1.00
H803   H     0.29949   0.68537   0.70404   0.00000  Uiso   1.00
H804   H     0.30088   0.73262   0.66365   0.00000  Uiso   1.00
I805   I     0.28296   0.63175   0.79114   0.00000  Uiso   1.00
I806   I     0.08647   0.87132   0.65418   0.00000  Uiso   1.00
I807   I     0.24966   0.82536   0.64547   0.00000  Uiso   1.00
I808   I     0.08316   0.67580   0.85542   0.00000  Uiso   1.00
N809   N     0.16667   0.74999   0.62624   0.00000  Uiso   1.00
N810   N     0.16667   0.75001   0.87377   0.00000  Uiso   1.00
O811   O     0.16667   0.68454   0.78974   0.00000  Uiso   1.00
O812   O     0.16666   0.81547   0.71026   0.00000  Uiso   1.00
O813   O     0.16667   0.68453   0.71026   0.00000  Uiso   1.00
O814   O     0.16666   0.81547   0.78974   0.00000  Uiso   1.00
O815   O     0.09058   0.75000   0.78045   0.00000  Uiso   1.00
O816   O     0.24275   0.75000   0.71956   0.00000  Uiso   1.00
O817   O     0.09058   0.75000   0.70097   0.00000  Uiso   1.00
O818   O     0.24275   0.75001   0.79904   0.00000  Uiso   1.00
Zn819  Zn    0.16667   0.75001   0.80307   0.00000  Uiso   1.00
Zn820  Zn    0.16667   0.75000   0.69693   0.00000  Uiso   1.00
C821   C     0.50016   0.66418   0.75025   0.00000  Uiso   1.00
C822   C     0.45794   0.73025   0.94226   0.00000  Uiso   1.00
C823   C     0.50335   0.74788   0.52733   0.00000  Uiso   1.00
C824   C     0.49778   0.75243   0.97290   0.00000  Uiso   1.00
C825   C     0.40074   0.74931   0.73802   0.00000  Uiso   1.00
C826   C     0.59925   0.75125   0.76180   0.00000  Uiso   1.00
C827   C     0.34655   0.74251   0.73266   0.00000  Uiso   1.00
C828   C     0.65330   0.75916   0.76622   0.00000  Uiso   1.00
C829   C     0.55206   0.54962   0.75223   0.00000  Uiso   1.00
C830   C     0.47992   0.95219   0.70069   0.00000  Uiso   1.00
C831   C     0.54902   0.59521   0.76089   0.00000  Uiso   1.00
C832   C     0.49852   0.83620   0.74951   0.00000  Uiso   1.00
C833   C     0.47263   0.90617   0.70652   0.00000  Uiso   1.00
C834   C     0.50116   0.61644   0.75024   0.00000  Uiso   1.00
C835   C     0.49702   0.88464   0.74792   0.00000  Uiso   1.00
C836   C     0.45536   0.59238   0.73473   0.00000  Uiso   1.00
C837   C     0.52247   0.90994   0.78597   0.00000  Uiso   1.00
C838   C     0.45765   0.54650   0.73157   0.00000  Uiso   1.00
C839   C     0.52352   0.95587   0.78170   0.00000  Uiso   1.00
C840   C     0.50546   0.52525   0.73908   0.00000  Uiso   1.00
C841   C     0.50440   0.97683   0.73931   0.00000  Uiso   1.00
C842   C     0.65714   0.71270   0.69168   0.00000  Uiso   1.00
C843   C     0.47116   0.71841   0.55037   0.00000  Uiso   1.00
C844   C     0.34228   0.79165   0.80468   0.00000  Uiso   1.00
C845   C     0.60463   0.52800   0.75634   0.00000  Uiso   1.00
C846   C     0.46230   0.97408   0.65335   0.00000  Uiso   1.00
C847   C     0.40437   0.61516   0.72099   0.00000  Uiso   1.00
C848   C     0.54922   0.88952   0.83119   0.00000  Uiso   1.00
C849   C     0.59651   0.77920   0.54559   0.00000  Uiso   1.00
C850   C     0.40398   0.72230   0.95548   0.00000  Uiso   1.00
C851   C     0.53068   0.78100   0.94959   0.00000  Uiso   1.00
C852   C     0.46984   0.72013   0.59929   0.00000  Uiso   1.00
C853   C     0.53151   0.77903   0.90061   0.00000  Uiso   1.00
C854   C     0.53566   0.77588   0.60621   0.00000  Uiso   1.00
C855   C     0.46404   0.72492   0.89415   0.00000  Uiso   1.00
C856   C     0.54240   0.77073   0.55820   0.00000  Uiso   1.00
H857   H     0.42215   0.52710   0.72254   0.00000  Uiso   1.00
H858   H     0.64459   0.80962   0.81946   0.00000  Uiso   1.00
H859   H     0.36479   0.77358   0.83453   0.00000  Uiso   1.00
H860   H     0.36698   0.81762   0.79009   0.00000  Uiso   1.00
H861   H     0.62241   0.52701   0.79390   0.00000  Uiso   1.00
H862   H     0.60272   0.99362   0.74232   0.00000  Uiso   1.00
H863   H     0.63037   0.54739   0.73526   0.00000  Uiso   1.00
H864   H     0.41926   0.97493   0.64707   0.00000  Uiso   1.00
H865   H     0.47785   0.50857   0.65061   0.00000  Uiso   1.00
H866   H     0.47668   0.95504   0.62477   0.00000  Uiso   1.00
H867   H     0.40731   0.63643   0.68939   0.00000  Uiso   1.00
H868   H     0.54042   0.97583   0.81148   0.00000  Uiso   1.00
H869   H     0.37191   0.59087   0.71202   0.00000  Uiso   1.00
H870   H     0.39515   0.63609   0.75042   0.00000  Uiso   1.00
H871   H     0.52003   0.87337   0.85123   0.00000  Uiso   1.00
H872   H     0.57800   0.86491   0.82305   0.00000  Uiso   1.00
H873   H     0.57061   0.91490   0.85465   0.00000  Uiso   1.00
H874   H     0.60443   0.75863   0.51543   0.00000  Uiso   1.00
H875   H     0.60302   0.81525   0.53865   0.00000  Uiso   1.00
H876   H     0.62597   0.76855   0.57522   0.00000  Uiso   1.00
H877   H     0.39688   0.68624   0.96188   0.00000  Uiso   1.00
H878   H     0.39696   0.74244   0.98624   0.00000  Uiso   1.00
H879   H     0.44813   0.69249   0.53171   0.00000  Uiso   1.00
H880   H     0.37440   0.73373   0.92632   0.00000  Uiso   1.00
H881   H     0.55467   0.80650   0.96790   0.00000  Uiso   1.00
H882   H     0.44464   0.69740   0.61578   0.00000  Uiso   1.00
H883   H     0.55761   0.80077   0.88404   0.00000  Uiso   1.00
H884   H     0.35427   0.69666   0.67438   0.00000  Uiso   1.00
H885   H     0.63282   0.68537   0.70404   0.00000  Uiso   1.00
H886   H     0.63421   0.73262   0.66365   0.00000  Uiso   1.00
I887   I     0.61629   0.63175   0.79114   0.00000  Uiso   1.00
I888   I     0.41981   0.87132   0.65418   0.00000  Uiso   1.00
I889   I     0.58299   0.82536   0.64547   0.00000  Uiso   1.00
I890   I     0.41649   0.67580   0.85542   0.00000  Uiso   1.00
N891   N     0.50000   0.74999   0.62624   0.00000  Uiso   1.00
N892   N     0.50000   0.75001   0.87377   0.00000  Uiso   1.00
O893   O     0.50000   0.68454   0.78974   0.00000  Uiso   1.00
O894   O     0.50000   0.81547   0.71026   0.00000  Uiso   1.00
O895   O     0.50000   0.68453   0.71026   0.00000  Uiso   1.00
O896   O     0.50000   0.81547   0.78974   0.00000  Uiso   1.00
O897   O     0.42392   0.75000   0.78045   0.00000  Uiso   1.00
O898   O     0.57608   0.75000   0.71956   0.00000  Uiso   1.00
O899   O     0.42392   0.75000   0.70097   0.00000  Uiso   1.00
O900   O     0.57608   0.75001   0.79904   0.00000  Uiso   1.00
Zn901  Zn    0.50000   0.75001   0.80307   0.00000  Uiso   1.00
Zn902  Zn    0.50000   0.75000   0.69693   0.00000  Uiso   1.00
C903   C     0.83350   0.66418   0.75025   0.00000  Uiso   1.00
C904   C     0.79127   0.73025   0.94226   0.00000  Uiso   1.00
C905   C     0.83669   0.74788   0.52733   0.00000  Uiso   1.00
C906   C     0.83111   0.75243   0.97290   0.00000  Uiso   1.00
C907   C     0.73408   0.74931   0.73802   0.00000  Uiso   1.00
C908   C     0.93258   0.75125   0.76180   0.00000  Uiso   1.00
C909   C     0.67988   0.74251   0.73266   0.00000  Uiso   1.00
C910   C     0.98663   0.75916   0.76622   0.00000  Uiso   1.00
C911   C     0.88539   0.54962   0.75223   0.00000  Uiso   1.00
C912   C     0.81325   0.95219   0.70069   0.00000  Uiso   1.00
C913   C     0.88236   0.59521   0.76089   0.00000  Uiso   1.00
C914   C     0.83186   0.83620   0.74951   0.00000  Uiso   1.00
C915   C     0.80596   0.90617   0.70652   0.00000  Uiso   1.00
C916   C     0.83450   0.61644   0.75024   0.00000  Uiso   1.00
C917   C     0.83035   0.88464   0.74792   0.00000  Uiso   1.00
C918   C     0.78869   0.59238   0.73473   0.00000  Uiso   1.00
C919   C     0.85581   0.90994   0.78597   0.00000  Uiso   1.00
C920   C     0.79099   0.54650   0.73157   0.00000  Uiso   1.00
C921   C     0.85686   0.95587   0.78170   0.00000  Uiso   1.00
C922   C     0.83879   0.52525   0.73908   0.00000  Uiso   1.00
C923   C     0.83773   0.97683   0.73931   0.00000  Uiso   1.00
C924   C     0.99047   0.71270   0.69168   0.00000  Uiso   1.00
C925   C     0.80450   0.71841   0.55037   0.00000  Uiso   1.00
C926   C     0.67561   0.79165   0.80468   0.00000  Uiso   1.00
C927   C     0.93797   0.52800   0.75634   0.00000  Uiso   1.00
C928   C     0.79563   0.97408   0.65335   0.00000  Uiso   1.00
C929   C     0.73771   0.61516   0.72099   0.00000  Uiso   1.00
C930   C     0.88255   0.88952   0.83119   0.00000  Uiso   1.00
C931   C     0.92985   0.77920   0.54559   0.00000  Uiso   1.00
C932   C     0.73731   0.72230   0.95548   0.00000  Uiso   1.00
C933   C     0.86401   0.78100   0.94959   0.00000  Uiso   1.00
C934   C     0.80317   0.72013   0.59929   0.00000  Uiso   1.00
C935   C     0.86484   0.77903   0.90061   0.00000  Uiso   1.00
C936   C     0.86900   0.77588   0.60621   0.00000  Uiso   1.00
C937   C     0.79737   0.72492   0.89415   0.00000  Uiso   1.00
C938   C     0.87573   0.77073   0.55820   0.00000  Uiso   1.00
H939   H     0.75549   0.52710   0.72254   0.00000  Uiso   1.00
H940   H     0.97792   0.80962   0.81946   0.00000  Uiso   1.00
H941   H     0.69813   0.77358   0.83453   0.00000  Uiso   1.00
H942   H     0.70031   0.81762   0.79009   0.00000  Uiso   1.00
H943   H     0.95575   0.52701   0.79390   0.00000  Uiso   1.00
H944   H     0.93605   0.99362   0.74232   0.00000  Uiso   1.00
H945   H     0.96371   0.54739   0.73526   0.00000  Uiso   1.00
H946   H     0.75259   0.97493   0.64707   0.00000  Uiso   1.00
H947   H     0.81118   0.50857   0.65061   0.00000  Uiso   1.00
H948   H     0.81001   0.95504   0.62477   0.00000  Uiso   1.00
H949   H     0.74064   0.63643   0.68939   0.00000  Uiso   1.00
H950   H     0.87375   0.97583   0.81148   0.00000  Uiso   1.00
H951   H     0.70524   0.59087   0.71202   0.00000  Uiso   1.00
H952   H     0.72848   0.63609   0.75042   0.00000  Uiso   1.00
H953   H     0.85336   0.87337   0.85123   0.00000  Uiso   1.00
H954   H     0.91133   0.86491   0.82305   0.00000  Uiso   1.00
H955   H     0.90395   0.91490   0.85465   0.00000  Uiso   1.00
H956   H     0.93777   0.75863   0.51543   0.00000  Uiso   1.00
H957   H     0.93635   0.81525   0.53865   0.00000  Uiso   1.00
H958   H     0.95931   0.76855   0.57522   0.00000  Uiso   1.00
H959   H     0.73022   0.68624   0.96188   0.00000  Uiso   1.00
H960   H     0.73029   0.74244   0.98624   0.00000  Uiso   1.00
H961   H     0.78146   0.69249   0.53171   0.00000  Uiso   1.00
H962   H     0.70773   0.73373   0.92632   0.00000  Uiso   1.00
H963   H     0.88801   0.80650   0.96790   0.00000  Uiso   1.00
H964   H     0.77798   0.69740   0.61578   0.00000  Uiso   1.00
H965   H     0.89094   0.80077   0.88404   0.00000  Uiso   1.00
H966   H     0.68760   0.69666   0.67438   0.00000  Uiso   1.00
H967   H     0.96615   0.68537   0.70404   0.00000  Uiso   1.00
H968   H     0.96755   0.73262   0.66365   0.00000  Uiso   1.00
I969   I     0.94963   0.63175   0.79114   0.00000  Uiso   1.00
I970   I     0.75314   0.87132   0.65418   0.00000  Uiso   1.00
I971   I     0.91632   0.82536   0.64547   0.00000  Uiso   1.00
I972   I     0.74982   0.67580   0.85542   0.00000  Uiso   1.00
N973   N     0.83333   0.74999   0.62624   0.00000  Uiso   1.00
N974   N     0.83333   0.75001   0.87377   0.00000  Uiso   1.00
O975   O     0.83334   0.68454   0.78974   0.00000  Uiso   1.00
O976   O     0.83333   0.81547   0.71026   0.00000  Uiso   1.00
O977   O     0.83334   0.68453   0.71026   0.00000  Uiso   1.00
O978   O     0.83333   0.81547   0.78974   0.00000  Uiso   1.00
O979   O     0.75725   0.75000   0.78045   0.00000  Uiso   1.00
O980   O     0.90942   0.75000   0.71956   0.00000  Uiso   1.00
O981   O     0.75725   0.75000   0.70097   0.00000  Uiso   1.00
O982   O     0.90942   0.75001   0.79904   0.00000  Uiso   1.00
Zn983  Zn    0.83333   0.75001   0.80307   0.00000  Uiso   1.00
Zn984  Zn    0.83333   0.75000   0.69693   0.00000  Uiso   1.00
loop_
_geom_bond_atom_site_label_1
_geom_bond_atom_site_label_2
_geom_bond_distance
_geom_bond_site_symmetry_2
_ccdc_geom_bond_type
C1     O75     1.287   .     A
C1     O73     1.289   .     A
C1     C14     1.432   .     S
C2     C35     1.415   .     A
C2     C4      1.424   .     A
C2     C30     1.514   .     S
C3     C23     1.420   .     A
C3     C36     1.424   .     A
C3     C496    1.546   1_554 S
C4     C31     1.420   .     A
C4     C495    1.546   .     S
C5     O79     1.285   .     A
C5     C7      1.408   .     S
C5     O77     1.280   .     A
C6     O78     1.275   .     A
C6     C8      1.410   .     S
C6     O80     1.289   .     A
C7     C172    1.359   1_455 S
C7     C186    1.530   1_455 S
C8     C89     1.359   .     S
C8     C106    1.526   .     S
C9     C25     1.514   .     S
C9     C20     1.412   .     A
C9     C11     1.398   .     A
C10    C26     1.514   .     S
C10    C21     1.408   .     A
C10    C13     1.400   .     A
C11    I67     2.134   .     S
C11    C14     1.404   .     A
C12    O74     1.294   .     A
C12    C15     1.454   .     S
C12    O76     1.295   .     A
C13    C15     1.419   .     A
C13    I68     2.156   .     S
C14    C16     1.403   .     A
C15    C17     1.416   .     A
C16    C27     1.506   .     S
C16    C18     1.383   .     A
C17    C19     1.381   .     A
C17    C28     1.511   .     S
C18    H37     1.085   .     S
C18    C20     1.397   .     A
C19    C21     1.393   .     A
C19    H48     1.085   .     S
C20    C267    1.452   1_545 S
C21    C266    1.452   .     S
C22    H66     1.108   .     S
C22    H65     1.108   .     S
C22    C89     1.530   .     S
C22    H146    1.108   .     S
C23    H59     1.074   .     S
C23    C32     1.403   .     A
C24    H39     1.109   .     S
C24    H40     1.111   .     S
C24    C172    1.526   1_455 S
C24    H202    1.110   1_455 S
C25    H43     1.109   .     S
C25    H41     1.110   .     S
C25    H288    1.108   1_545 S
C26    H44     1.110   .     S
C26    H46     1.110   .     S
C26    H291    1.109   .     S
C27    H50     1.109   .     S
C27    H47     1.108   .     S
C27    H49     1.110   .     S
C28    H51     1.110   .     S
C28    H53     1.111   .     S
C28    H52     1.109   .     S
C29    C36     1.514   .     S
C29    H54     1.109   .     S
C29    H55     1.110   .     S
C29    H56     1.111   .     S
C30    H57     1.110   .     S
C30    H60     1.111   .     S
C30    H58     1.109   .     S
C31    H61     1.073   .     S
C31    C33     1.403   .     A
C32    N71     1.356   .     A
C32    H62     1.082   .     S
C33    N72     1.356   .     A
C33    H63     1.081   .     S
C34    I69     2.139   .     S
C34    C36     1.415   .     A
C34    N71     1.375   .     A
C35    I70     2.128   .     S
C35    N72     1.373   .     A
H38    C106    1.110   .     S
H42    C271    1.108   .     S
H45    C272    1.109   1_545 S
H64    C186    1.108   1_455 S
N71    Zn82    2.018   .     S
N72    Zn81    2.018   .     S
O73    Zn81    2.004   .     S
O74    Zn82    2.004   .     S
O75    Zn82    1.994   .     S
O76    Zn81    1.994   .     S
O77    Zn81    1.998   .     S
O78    Zn82    1.998   .     S
O79    Zn82    1.996   .     S
O80    Zn81    1.996   .     S
C83    O157    1.287   .     A
C83    O155    1.289   .     A
C83    C96     1.432   .     S
C84    C117    1.415   .     A
C84    C86     1.424   .     A
C84    C112    1.514   .     S
C85    C105    1.420   .     A
C85    C118    1.424   .     A
C85    C578    1.546   1_554 S
C86    C113    1.420   .     A
C86    C577    1.546   .     S
C87    O161    1.285   .     A
C87    C89     1.408   .     S
C87    O159    1.280   .     A
C88    O160    1.275   .     A
C88    C90     1.410   .     S
C88    O162    1.289   .     A
C90    C171    1.359   .     S
C90    C188    1.526   .     S
C91    C107    1.514   .     S
C91    C102    1.412   .     A
C91    C93     1.398   .     A
C92    C108    1.514   .     S
C92    C103    1.408   .     A
C92    C95     1.400   .     A
C93    I149    2.134   .     S
C93    C96     1.404   .     A
C94    O156    1.294   .     A
C94    C97     1.454   .     S
C94    O158    1.295   .     A
C95    C97     1.419   .     A
C95    I150    2.156   .     S
C96    C98     1.403   .     A
C97    C99     1.416   .     A
C98    C109    1.506   .     S
C98    C100    1.383   .     A
C99    C101    1.381   .     A
C99    C110    1.511   .     S
C100   H119    1.085   .     S
C100   C102    1.397   .     A
C101   C103    1.393   .     A
C101   H130    1.085   .     S
C102   C349    1.452   1_545 S
C103   C348    1.452   .     S
C104   H148    1.108   .     S
C104   H147    1.108   .     S
C104   C171    1.530   .     S
C104   H228    1.108   .     S
C105   H141    1.074   .     S
C105   C114    1.403   .     A
C106   H121    1.109   .     S
C106   H122    1.111   .     S
C107   H125    1.109   .     S
C107   H123    1.110   .     S
C107   H370    1.108   1_545 S
C108   H126    1.110   .     S
C108   H128    1.110   .     S
C108   H373    1.109   .     S
C109   H132    1.109   .     S
C109   H129    1.108   .     S
C109   H131    1.110   .     S
C110   H133    1.110   .     S
C110   H135    1.111   .     S
C110   H134    1.109   .     S
C111   C118    1.514   .     S
C111   H136    1.109   .     S
C111   H137    1.110   .     S
C111   H138    1.111   .     S
C112   H139    1.110   .     S
C112   H142    1.111   .     S
C112   H140    1.109   .     S
C113   H143    1.073   .     S
C113   C115    1.403   .     A
C114   N153    1.356   .     A
C114   H144    1.082   .     S
C115   N154    1.356   .     A
C115   H145    1.081   .     S
C116   I151    2.139   .     S
C116   C118    1.415   .     A
C116   N153    1.375   .     A
C117   I152    2.128   .     S
C117   N154    1.373   .     A
H120   C188    1.110   .     S
H124   C353    1.108   .     S
H127   C354    1.109   1_545 S
N153   Zn164   2.018   .     S
N154   Zn163   2.018   .     S
O155   Zn163   2.004   .     S
O156   Zn164   2.004   .     S
O157   Zn164   1.994   .     S
O158   Zn163   1.994   .     S
O159   Zn163   1.998   .     S
O160   Zn164   1.998   .     S
O161   Zn164   1.996   .     S
O162   Zn163   1.996   .     S
C165   O239    1.287   .     A
C165   O237    1.289   .     A
C165   C178    1.432   .     S
C166   C199    1.415   .     A
C166   C168    1.424   .     A
C166   C194    1.514   .     S
C167   C187    1.420   .     A
C167   C200    1.424   .     A
C167   C660    1.546   1_554 S
C168   C195    1.420   .     A
C168   C659    1.546   .     S
C169   O243    1.285   .     A
C169   C171    1.408   .     S
C169   O241    1.280   .     A
C170   O242    1.275   .     A
C170   C172    1.410   .     S
C170   O244    1.289   .     A
C172   C7      1.359   1_655 S
C172   C24     1.526   1_655 S
C173   C189    1.514   .     S
C173   C184    1.412   .     A
C173   C175    1.398   .     A
C174   C190    1.514   .     S
C174   C185    1.408   .     A
C174   C177    1.400   .     A
C175   I231    2.134   .     S
C175   C178    1.404   .     A
C176   O238    1.294   .     A
C176   C179    1.454   .     S
C176   O240    1.295   .     A
C177   C179    1.419   .     A
C177   I232    2.156   .     S
C178   C180    1.403   .     A
C179   C181    1.416   .     A
C180   C191    1.506   .     S
C180   C182    1.383   .     A
C181   C183    1.381   .     A
C181   C192    1.511   .     S
C182   H201    1.085   .     S
C182   C184    1.397   .     A
C183   C185    1.393   .     A
C183   H212    1.085   .     S
C184   C431    1.452   1_545 S
C185   C430    1.452   .     S
C186   H230    1.108   .     S
C186   H229    1.108   .     S
C186   C7      1.530   1_655 S
C186   H64     1.108   1_655 S
C187   H223    1.074   .     S
C187   C196    1.403   .     A
C188   H203    1.109   .     S
C188   H204    1.111   .     S
C189   H207    1.109   .     S
C189   H205    1.110   .     S
C189   H452    1.108   1_545 S
C190   H208    1.110   .     S
C190   H210    1.110   .     S
C190   H455    1.109   .     S
C191   H214    1.109   .     S
C191   H211    1.108   .     S
C191   H213    1.110   .     S
C192   H215    1.110   .     S
C192   H217    1.111   .     S
C192   H216    1.109   .     S
C193   C200    1.514   .     S
C193   H218    1.109   .     S
C193   H219    1.110   .     S
C193   H220    1.111   .     S
C194   H221    1.110   .     S
C194   H224    1.111   .     S
C194   H222    1.109   .     S
C195   H225    1.073   .     S
C195   C197    1.403   .     A
C196   N235    1.356   .     A
C196   H226    1.082   .     S
C197   N236    1.356   .     A
C197   H227    1.081   .     S
C198   I233    2.139   .     S
C198   C200    1.415   .     A
C198   N235    1.375   .     A
C199   I234    2.128   .     S
C199   N236    1.373   .     A
H202   C24     1.110   1_655 S
H206   C435    1.108   .     S
H209   C436    1.109   1_545 S
N235   Zn246   2.018   .     S
N236   Zn245   2.018   .     S
O237   Zn245   2.004   .     S
O238   Zn246   2.004   .     S
O239   Zn246   1.994   .     S
O240   Zn245   1.994   .     S
O241   Zn245   1.998   .     S
O242   Zn246   1.998   .     S
O243   Zn246   1.996   .     S
O244   Zn245   1.996   .     S
C247   O321    1.287   .     A
C247   O319    1.289   .     A
C247   C260    1.432   .     S
C248   C281    1.415   .     A
C248   C250    1.424   .     A
C248   C276    1.514   .     S
C249   C269    1.420   .     A
C249   C282    1.424   .     A
C249   C742    1.546   1_554 S
C250   C277    1.420   .     A
C250   C741    1.546   .     S
C251   O325    1.285   .     A
C251   C253    1.408   .     S
C251   O323    1.280   .     A
C252   O324    1.275   .     A
C252   C254    1.410   .     S
C252   O326    1.289   .     A
C253   C418    1.359   1_455 S
C253   C432    1.530   1_455 S
C254   C335    1.359   .     S
C254   C352    1.526   .     S
C255   C271    1.514   .     S
C255   C266    1.412   .     A
C255   C257    1.398   .     A
C256   C272    1.514   .     S
C256   C267    1.408   .     A
C256   C259    1.400   .     A
C257   I313    2.134   .     S
C257   C260    1.404   .     A
C258   O320    1.294   .     A
C258   C261    1.454   .     S
C258   O322    1.295   .     A
C259   C261    1.419   .     A
C259   I314    2.156   .     S
C260   C262    1.403   .     A
C261   C263    1.416   .     A
C262   C273    1.506   .     S
C262   C264    1.383   .     A
C263   C265    1.381   .     A
C263   C274    1.511   .     S
C264   H283    1.085   .     S
C264   C266    1.397   .     A
C265   C267    1.393   .     A
C265   H294    1.085   .     S
C267   C20     1.452   1_565 S
C268   H312    1.108   .     S
C268   H311    1.108   .     S
C268   C335    1.530   .     S
C268   H392    1.108   .     S
C269   H305    1.074   .     S
C269   C278    1.403   .     A
C270   H285    1.109   .     S
C270   H286    1.111   .     S
C270   C418    1.526   1_455 S
C270   H448    1.110   1_455 S
C271   H289    1.109   .     S
C271   H287    1.110   .     S
C272   H290    1.110   .     S
C272   H292    1.110   .     S
C272   H45     1.109   1_565 S
C273   H296    1.109   .     S
C273   H293    1.108   .     S
C273   H295    1.110   .     S
C274   H297    1.110   .     S
C274   H299    1.111   .     S
C274   H298    1.109   .     S
C275   C282    1.514   .     S
C275   H300    1.109   .     S
C275   H301    1.110   .     S
C275   H302    1.111   .     S
C276   H303    1.110   .     S
C276   H306    1.111   .     S
C276   H304    1.109   .     S
C277   H307    1.073   .     S
C277   C279    1.403   .     A
C278   N317    1.356   .     A
C278   H308    1.082   .     S
C279   N318    1.356   .     A
C279   H309    1.081   .     S
C280   I315    2.139   .     S
C280   C282    1.415   .     A
C280   N317    1.375   .     A
C281   I316    2.128   .     S
C281   N318    1.373   .     A
H284   C352    1.110   .     S
H288   C25     1.108   1_565 S
H310   C432    1.108   1_455 S
N317   Zn328   2.018   .     S
N318   Zn327   2.018   .     S
O319   Zn327   2.004   .     S
O320   Zn328   2.004   .     S
O321   Zn328   1.994   .     S
O322   Zn327   1.994   .     S
O323   Zn327   1.998   .     S
O324   Zn328   1.998   .     S
O325   Zn328   1.996   .     S
O326   Zn327   1.996   .     S
C329   O403    1.287   .     A
C329   O401    1.289   .     A
C329   C342    1.432   .     S
C330   C363    1.415   .     A
C330   C332    1.424   .     A
C330   C358    1.514   .     S
C331   C351    1.420   .     A
C331   C364    1.424   .     A
C331   C824    1.546   1_554 S
C332   C359    1.420   .     A
C332   C823    1.546   .     S
C333   O407    1.285   .     A
C333   C335    1.408   .     S
C333   O405    1.280   .     A
C334   O406    1.275   .     A
C334   C336    1.410   .     S
C334   O408    1.289   .     A
C336   C417    1.359   .     S
C336   C434    1.526   .     S
C337   C353    1.514   .     S
C337   C348    1.412   .     A
C337   C339    1.398   .     A
C338   C354    1.514   .     S
C338   C349    1.408   .     A
C338   C341    1.400   .     A
C339   I395    2.134   .     S
C339   C342    1.404   .     A
C340   O402    1.294   .     A
C340   C343    1.454   .     S
C340   O404    1.295   .     A
C341   C343    1.419   .     A
C341   I396    2.156   .     S
C342   C344    1.403   .     A
C343   C345    1.416   .     A
C344   C355    1.506   .     S
C344   C346    1.383   .     A
C345   C347    1.381   .     A
C345   C356    1.511   .     S
C346   H365    1.085   .     S
C346   C348    1.397   .     A
C347   C349    1.393   .     A
C347   H376    1.085   .     S
C349   C102    1.452   1_565 S
C350   H394    1.108   .     S
C350   H393    1.108   .     S
C350   C417    1.530   .     S
C350   H474    1.108   .     S
C351   H387    1.074   .     S
C351   C360    1.403   .     A
C352   H367    1.109   .     S
C352   H368    1.111   .     S
C353   H371    1.109   .     S
C353   H369    1.110   .     S
C354   H372    1.110   .     S
C354   H374    1.110   .     S
C354   H127    1.109   1_565 S
C355   H378    1.109   .     S
C355   H375    1.108   .     S
C355   H377    1.110   .     S
C356   H379    1.110   .     S
C356   H381    1.111   .     S
C356   H380    1.109   .     S
C357   C364    1.514   .     S
C357   H382    1.109   .     S
C357   H383    1.110   .     S
C357   H384    1.111   .     S
C358   H385    1.110   .     S
C358   H388    1.111   .     S
C358   H386    1.109   .     S
C359   H389    1.073   .     S
C359   C361    1.403   .     A
C360   N399    1.356   .     A
C360   H390    1.082   .     S
C361   N400    1.356   .     A
C361   H391    1.081   .     S
C362   I397    2.139   .     S
C362   C364    1.415   .     A
C362   N399    1.375   .     A
C363   I398    2.128   .     S
C363   N400    1.373   .     A
H366   C434    1.110   .     S
H370   C107    1.108   1_565 S
N399   Zn410   2.018   .     S
N400   Zn409   2.018   .     S
O401   Zn409   2.004   .     S
O402   Zn410   2.004   .     S
O403   Zn410   1.994   .     S
O404   Zn409   1.994   .     S
O405   Zn409   1.998   .     S
O406   Zn410   1.998   .     S
O407   Zn410   1.996   .     S
O408   Zn409   1.996   .     S
C411   O485    1.287   .     A
C411   O483    1.289   .     A
C411   C424    1.432   .     S
C412   C445    1.415   .     A
C412   C414    1.424   .     A
C412   C440    1.514   .     S
C413   C433    1.420   .     A
C413   C446    1.424   .     A
C413   C906    1.546   1_554 S
C414   C441    1.420   .     A
C414   C905    1.546   .     S
C415   O489    1.285   .     A
C415   C417    1.408   .     S
C415   O487    1.280   .     A
C416   O488    1.275   .     A
C416   C418    1.410   .     S
C416   O490    1.289   .     A
C418   C253    1.359   1_655 S
C418   C270    1.526   1_655 S
C419   C435    1.514   .     S
C419   C430    1.412   .     A
C419   C421    1.398   .     A
C420   C436    1.514   .     S
C420   C431    1.408   .     A
C420   C423    1.400   .     A
C421   I477    2.134   .     S
C421   C424    1.404   .     A
C422   O484    1.294   .     A
C422   C425    1.454   .     S
C422   O486    1.295   .     A
C423   C425    1.419   .     A
C423   I478    2.156   .     S
C424   C426    1.403   .     A
C425   C427    1.416   .     A
C426   C437    1.506   .     S
C426   C428    1.383   .     A
C427   C429    1.381   .     A
C427   C438    1.511   .     S
C428   H447    1.085   .     S
C428   C430    1.397   .     A
C429   C431    1.393   .     A
C429   H458    1.085   .     S
C431   C184    1.452   1_565 S
C432   H476    1.108   .     S
C432   H475    1.108   .     S
C432   C253    1.530   1_655 S
C432   H310    1.108   1_655 S
C433   H469    1.074   .     S
C433   C442    1.403   .     A
C434   H449    1.109   .     S
C434   H450    1.111   .     S
C435   H453    1.109   .     S
C435   H451    1.110   .     S
C436   H454    1.110   .     S
C436   H456    1.110   .     S
C436   H209    1.109   1_565 S
C437   H460    1.109   .     S
C437   H457    1.108   .     S
C437   H459    1.110   .     S
C438   H461    1.110   .     S
C438   H463    1.111   .     S
C438   H462    1.109   .     S
C439   C446    1.514   .     S
C439   H464    1.109   .     S
C439   H465    1.110   .     S
C439   H466    1.111   .     S
C440   H467    1.110   .     S
C440   H470    1.111   .     S
C440   H468    1.109   .     S
C441   H471    1.073   .     S
C441   C443    1.403   .     A
C442   N481    1.356   .     A
C442   H472    1.082   .     S
C443   N482    1.356   .     A
C443   H473    1.081   .     S
C444   I479    2.139   .     S
C444   C446    1.415   .     A
C444   N481    1.375   .     A
C445   I480    2.128   .     S
C445   N482    1.373   .     A
H448   C270    1.110   1_655 S
H452   C189    1.108   1_565 S
N481   Zn492   2.018   .     S
N482   Zn491   2.018   .     S
O483   Zn491   2.004   .     S
O484   Zn492   2.004   .     S
O485   Zn492   1.994   .     S
O486   Zn491   1.994   .     S
O487   Zn491   1.998   .     S
O488   Zn492   1.998   .     S
O489   Zn492   1.996   .     S
O490   Zn491   1.996   .     S
C493   O567    1.287   .     A
C493   O565    1.289   .     A
C493   C506    1.432   .     S
C494   C527    1.415   .     A
C494   C496    1.424   .     A
C494   C522    1.514   .     S
C495   C515    1.420   .     A
C495   C528    1.424   .     A
C496   C523    1.420   .     A
C496   C3      1.546   1_556 S
C497   O571    1.285   .     A
C497   C499    1.408   .     S
C497   O569    1.280   .     A
C498   O570    1.275   .     A
C498   C500    1.410   .     S
C498   O572    1.289   .     A
C499   C664    1.359   1_455 S
C499   C678    1.530   1_455 S
C500   C581    1.359   .     S
C500   C598    1.526   .     S
C501   C517    1.514   .     S
C501   C512    1.412   .     A
C501   C503    1.398   .     A
C502   C518    1.514   .     S
C502   C513    1.408   .     A
C502   C505    1.400   .     A
C503   I559    2.134   .     S
C503   C506    1.404   .     A
C504   O566    1.294   .     A
C504   C507    1.454   .     S
C504   O568    1.295   .     A
C505   C507    1.419   .     A
C505   I560    2.156   .     S
C506   C508    1.403   .     A
C507   C509    1.416   .     A
C508   C519    1.506   .     S
C508   C510    1.383   .     A
C509   C511    1.381   .     A
C509   C520    1.511   .     S
C510   H529    1.085   .     S
C510   C512    1.397   .     A
C511   C513    1.393   .     A
C511   H540    1.085   .     S
C512   C759    1.452   1_545 S
C513   C758    1.452   .     S
C514   H558    1.108   .     S
C514   H557    1.108   .     S
C514   C581    1.530   .     S
C514   H638    1.108   .     S
C515   H551    1.074   .     S
C515   C524    1.403   .     A
C516   H531    1.109   .     S
C516   H532    1.111   .     S
C516   C664    1.526   1_455 S
C516   H694    1.110   1_455 S
C517   H535    1.109   .     S
C517   H533    1.110   .     S
C517   H780    1.108   1_545 S
C518   H536    1.110   .     S
C518   H538    1.110   .     S
C518   H783    1.109   .     S
C519   H542    1.109   .     S
C519   H539    1.108   .     S
C519   H541    1.110   .     S
C520   H543    1.110   .     S
C520   H545    1.111   .     S
C520   H544    1.109   .     S
C521   C528    1.514   .     S
C521   H546    1.109   .     S
C521   H547    1.110   .     S
C521   H548    1.111   .     S
C522   H549    1.110   .     S
C522   H552    1.111   .     S
C522   H550    1.109   .     S
C523   H553    1.073   .     S
C523   C525    1.403   .     A
C524   N563    1.356   .     A
C524   H554    1.082   .     S
C525   N564    1.356   .     A
C525   H555    1.081   .     S
C526   I561    2.139   .     S
C526   C528    1.415   .     A
C526   N563    1.375   .     A
C527   I562    2.128   .     S
C527   N564    1.373   .     A
H530   C598    1.110   .     S
H534   C763    1.108   .     S
H537   C764    1.109   1_545 S
H556   C678    1.108   1_455 S
N563   Zn574   2.018   .     S
N564   Zn573   2.018   .     S
O565   Zn573   2.004   .     S
O566   Zn574   2.004   .     S
O567   Zn574   1.994   .     S
O568   Zn573   1.994   .     S
O569   Zn573   1.998   .     S
O570   Zn574   1.998   .     S
O571   Zn574   1.996   .     S
O572   Zn573   1.996   .     S
C575   O649    1.287   .     A
C575   O647    1.289   .     A
C575   C588    1.432   .     S
C576   C609    1.415   .     A
C576   C578    1.424   .     A
C576   C604    1.514   .     S
C577   C597    1.420   .     A
C577   C610    1.424   .     A
C578   C605    1.420   .     A
C578   C85     1.546   1_556 S
C579   O653    1.285   .     A
C579   C581    1.408   .     S
C579   O651    1.280   .     A
C580   O652    1.275   .     A
C580   C582    1.410   .     S
C580   O654    1.289   .     A
C582   C663    1.359   .     S
C582   C680    1.526   .     S
C583   C599    1.514   .     S
C583   C594    1.412   .     A
C583   C585    1.398   .     A
C584   C600    1.514   .     S
C584   C595    1.408   .     A
C584   C587    1.400   .     A
C585   I641    2.134   .     S
C585   C588    1.404   .     A
C586   O648    1.294   .     A
C586   C589    1.454   .     S
C586   O650    1.295   .     A
C587   C589    1.419   .     A
C587   I642    2.156   .     S
C588   C590    1.403   .     A
C589   C591    1.416   .     A
C590   C601    1.506   .     S
C590   C592    1.383   .     A
C591   C593    1.381   .     A
C591   C602    1.511   .     S
C592   H611    1.085   .     S
C592   C594    1.397   .     A
C593   C595    1.393   .     A
C593   H622    1.085   .     S
C594   C841    1.452   1_545 S
C595   C840    1.452   .     S
C596   H640    1.108   .     S
C596   H639    1.108   .     S
C596   C663    1.530   .     S
C596   H720    1.108   .     S
C597   H633    1.074   .     S
C597   C606    1.403   .     A
C598   H613    1.109   .     S
C598   H614    1.111   .     S
C599   H617    1.109   .     S
C599   H615    1.110   .     S
C599   H862    1.108   1_545 S
C600   H618    1.110   .     S
C600   H620    1.110   .     S
C600   H865    1.109   .     S
C601   H624    1.109   .     S
C601   H621    1.108   .     S
C601   H623    1.110   .     S
C602   H625    1.110   .     S
C602   H627    1.111   .     S
C602   H626    1.109   .     S
C603   C610    1.514   .     S
C603   H628    1.109   .     S
C603   H629    1.110   .     S
C603   H630    1.111   .     S
C604   H631    1.110   .     S
C604   H634    1.111   .     S
C604   H632    1.109   .     S
C605   H635    1.073   .     S
C605   C607    1.403   .     A
C606   N645    1.356   .     A
C606   H636    1.082   .     S
C607   N646    1.356   .     A
C607   H637    1.081   .     S
C608   I643    2.139   .     S
C608   C610    1.415   .     A
C608   N645    1.375   .     A
C609   I644    2.128   .     S
C609   N646    1.373   .     A
H612   C680    1.110   .     S
H616   C845    1.108   .     S
H619   C846    1.109   1_545 S
N645   Zn656   2.018   .     S
N646   Zn655   2.018   .     S
O647   Zn655   2.004   .     S
O648   Zn656   2.004   .     S
O649   Zn656   1.994   .     S
O650   Zn655   1.994   .     S
O651   Zn655   1.998   .     S
O652   Zn656   1.998   .     S
O653   Zn656   1.996   .     S
O654   Zn655   1.996   .     S
C657   O731    1.287   .     A
C657   O729    1.289   .     A
C657   C670    1.432   .     S
C658   C691    1.415   .     A
C658   C660    1.424   .     A
C658   C686    1.514   .     S
C659   C679    1.420   .     A
C659   C692    1.424   .     A
C660   C687    1.420   .     A
C660   C167    1.546   1_556 S
C661   O735    1.285   .     A
C661   C663    1.408   .     S
C661   O733    1.280   .     A
C662   O734    1.275   .     A
C662   C664    1.410   .     S
C662   O736    1.289   .     A
C664   C499    1.359   1_655 S
C664   C516    1.526   1_655 S
C665   C681    1.514   .     S
C665   C676    1.412   .     A
C665   C667    1.398   .     A
C666   C682    1.514   .     S
C666   C677    1.408   .     A
C666   C669    1.400   .     A
C667   I723    2.134   .     S
C667   C670    1.404   .     A
C668   O730    1.294   .     A
C668   C671    1.454   .     S
C668   O732    1.295   .     A
C669   C671    1.419   .     A
C669   I724    2.156   .     S
C670   C672    1.403   .     A
C671   C673    1.416   .     A
C672   C683    1.506   .     S
C672   C674    1.383   .     A
C673   C675    1.381   .     A
C673   C684    1.511   .     S
C674   H693    1.085   .     S
C674   C676    1.397   .     A
C675   C677    1.393   .     A
C675   H704    1.085   .     S
C676   C923    1.452   1_545 S
C677   C922    1.452   .     S
C678   H722    1.108   .     S
C678   H721    1.108   .     S
C678   C499    1.530   1_655 S
C678   H556    1.108   1_655 S
C679   H715    1.074   .     S
C679   C688    1.403   .     A
C680   H695    1.109   .     S
C680   H696    1.111   .     S
C681   H699    1.109   .     S
C681   H697    1.110   .     S
C681   H944    1.108   1_545 S
C682   H700    1.110   .     S
C682   H702    1.110   .     S
C682   H947    1.109   .     S
C683   H706    1.109   .     S
C683   H703    1.108   .     S
C683   H705    1.110   .     S
C684   H707    1.110   .     S
C684   H709    1.111   .     S
C684   H708    1.109   .     S
C685   C692    1.514   .     S
C685   H710    1.109   .     S
C685   H711    1.110   .     S
C685   H712    1.111   .     S
C686   H713    1.110   .     S
C686   H716    1.111   .     S
C686   H714    1.109   .     S
C687   H717    1.073   .     S
C687   C689    1.403   .     A
C688   N727    1.356   .     A
C688   H718    1.082   .     S
C689   N728    1.356   .     A
C689   H719    1.081   .     S
C690   I725    2.139   .     S
C690   C692    1.415   .     A
C690   N727    1.375   .     A
C691   I726    2.128   .     S
C691   N728    1.373   .     A
H694   C516    1.110   1_655 S
H698   C927    1.108   .     S
H701   C928    1.109   1_545 S
N727   Zn738   2.018   .     S
N728   Zn737   2.018   .     S
O729   Zn737   2.004   .     S
O730   Zn738   2.004   .     S
O731   Zn738   1.994   .     S
O732   Zn737   1.994   .     S
O733   Zn737   1.998   .     S
O734   Zn738   1.998   .     S
O735   Zn738   1.996   .     S
O736   Zn737   1.996   .     S
C739   O813    1.287   .     A
C739   O811    1.289   .     A
C739   C752    1.432   .     S
C740   C773    1.415   .     A
C740   C742    1.424   .     A
C740   C768    1.514   .     S
C741   C761    1.420   .     A
C741   C774    1.424   .     A
C742   C769    1.420   .     A
C742   C249    1.546   1_556 S
C743   O817    1.285   .     A
C743   C745    1.408   .     S
C743   O815    1.280   .     A
C744   O816    1.275   .     A
C744   C746    1.410   .     S
C744   O818    1.289   .     A
C745   C910    1.359   1_455 S
C745   C924    1.530   1_455 S
C746   C827    1.359   .     S
C746   C844    1.526   .     S
C747   C763    1.514   .     S
C747   C758    1.412   .     A
C747   C749    1.398   .     A
C748   C764    1.514   .     S
C748   C759    1.408   .     A
C748   C751    1.400   .     A
C749   I805    2.134   .     S
C749   C752    1.404   .     A
C750   O812    1.294   .     A
C750   C753    1.454   .     S
C750   O814    1.295   .     A
C751   C753    1.419   .     A
C751   I806    2.156   .     S
C752   C754    1.403   .     A
C753   C755    1.416   .     A
C754   C765    1.506   .     S
C754   C756    1.383   .     A
C755   C757    1.381   .     A
C755   C766    1.511   .     S
C756   H775    1.085   .     S
C756   C758    1.397   .     A
C757   C759    1.393   .     A
C757   H786    1.085   .     S
C759   C512    1.452   1_565 S
C760   H804    1.108   .     S
C760   H803    1.108   .     S
C760   C827    1.530   .     S
C760   H884    1.108   .     S
C761   H797    1.074   .     S
C761   C770    1.403   .     A
C762   H777    1.109   .     S
C762   H778    1.111   .     S
C762   C910    1.526   1_455 S
C762   H940    1.110   1_455 S
C763   H781    1.109   .     S
C763   H779    1.110   .     S
C764   H782    1.110   .     S
C764   H784    1.110   .     S
C764   H537    1.109   1_565 S
C765   H788    1.109   .     S
C765   H785    1.108   .     S
C765   H787    1.110   .     S
C766   H789    1.110   .     S
C766   H791    1.111   .     S
C766   H790    1.109   .     S
C767   C774    1.514   .     S
C767   H792    1.109   .     S
C767   H793    1.110   .     S
C767   H794    1.111   .     S
C768   H795    1.110   .     S
C768   H798    1.111   .     S
C768   H796    1.109   .     S
C769   H799    1.073   .     S
C769   C771    1.403   .     A
C770   N809    1.356   .     A
C770   H800    1.082   .     S
C771   N810    1.356   .     A
C771   H801    1.081   .     S
C772   I807    2.139   .     S
C772   C774    1.415   .     A
C772   N809    1.375   .     A
C773   I808    2.128   .     S
C773   N810    1.373   .     A
H776   C844    1.110   .     S
H780   C517    1.108   1_565 S
H802   C924    1.108   1_455 S
N809   Zn820   2.018   .     S
N810   Zn819   2.018   .     S
O811   Zn819   2.004   .     S
O812   Zn820   2.004   .     S
O813   Zn820   1.994   .     S
O814   Zn819   1.994   .     S
O815   Zn819   1.998   .     S
O816   Zn820   1.998   .     S
O817   Zn820   1.996   .     S
O818   Zn819   1.996   .     S
C821   O895    1.287   .     A
C821   O893    1.289   .     A
C821   C834    1.432   .     S
C822   C855    1.415   .     A
C822   C824    1.424   .     A
C822   C850    1.514   .     S
C823   C843    1.420   .     A
C823   C856    1.424   .     A
C824   C851    1.420   .     A
C824   C331    1.546   1_556 S
C825   O899    1.285   .     A
C825   C827    1.408   .     S
C825   O897    1.280   .     A
C826   O898    1.275   .     A
C826   C828    1.410   .     S
C826   O900    1.289   .     A
C828   C909    1.359   .     S
C828   C926    1.526   .     S
C829   C845    1.514   .     S
C829   C840    1.412   .     A
C829   C831    1.398   .     A
C830   C846    1.514   .     S
C830   C841    1.408   .     A
C830   C833    1.400   .     A
C831   I887    2.134   .     S
C831   C834    1.404   .     A
C832   O894    1.294   .     A
C832   C835    1.454   .     S
C832   O896    1.295   .     A
C833   C835    1.419   .     A
C833   I888    2.156   .     S
C834   C836    1.403   .     A
C835   C837    1.416   .     A
C836   C847    1.506   .     S
C836   C838    1.383   .     A
C837   C839    1.381   .     A
C837   C848    1.511   .     S
C838   H857    1.085   .     S
C838   C840    1.397   .     A
C839   C841    1.393   .     A
C839   H868    1.085   .     S
C841   C594    1.452   1_565 S
C842   H886    1.108   .     S
C842   H885    1.108   .     S
C842   C909    1.530   .     S
C842   H966    1.108   .     S
C843   H879    1.074   .     S
C843   C852    1.403   .     A
C844   H859    1.109   .     S
C844   H860    1.111   .     S
C845   H863    1.109   .     S
C845   H861    1.110   .     S
C846   H864    1.110   .     S
C846   H866    1.110   .     S
C846   H619    1.109   1_565 S
C847   H870    1.109   .     S
C847   H867    1.108   .     S
C847   H869    1.110   .     S
C848   H871    1.110   .     S
C848   H873    1.111   .     S
C848   H872    1.109   .     S
C849   C856    1.514   .     S
C849   H874    1.109   .     S
C849   H875    1.110   .     S
C849   H876    1.111   .     S
C850   H877    1.110   .     S
C850   H880    1.111   .     S
C850   H878    1.109   .     S
C851   H881    1.073   .     S
C851   C853    1.403   .     A
C852   N891    1.356   .     A
C852   H882    1.082   .     S
C853   N892    1.356   .     A
C853   H883    1.081   .     S
C854   I889    2.139   .     S
C854   C856    1.415   .     A
C854   N891    1.375   .     A
C855   I890    2.128   .     S
C855   N892    1.373   .     A
H858   C926    1.110   .     S
H862   C599    1.108   1_565 S
N891   Zn902   2.018   .     S
N892   Zn901   2.018   .     S
O893   Zn901   2.004   .     S
O894   Zn902   2.004   .     S
O895   Zn902   1.994   .     S
O896   Zn901   1.994   .     S
O897   Zn901   1.998   .     S
O898   Zn902   1.998   .     S
O899   Zn902   1.996   .     S
O900   Zn901   1.996   .     S
C903   O977    1.287   .     A
C903   O975    1.289   .     A
C903   C916    1.432   .     S
C904   C937    1.415   .     A
C904   C906    1.424   .     A
C904   C932    1.514   .     S
C905   C925    1.420   .     A
C905   C938    1.424   .     A
C906   C933    1.420   .     A
C906   C413    1.546   1_556 S
C907   O981    1.285   .     A
C907   C909    1.408   .     S
C907   O979    1.280   .     A
C908   O980    1.275   .     A
C908   C910    1.410   .     S
C908   O982    1.289   .     A
C910   C745    1.359   1_655 S
C910   C762    1.526   1_655 S
C911   C927    1.514   .     S
C911   C922    1.412   .     A
C911   C913    1.398   .     A
C912   C928    1.514   .     S
C912   C923    1.408   .     A
C912   C915    1.400   .     A
C913   I969    2.134   .     S
C913   C916    1.404   .     A
C914   O976    1.294   .     A
C914   C917    1.454   .     S
C914   O978    1.295   .     A
C915   C917    1.419   .     A
C915   I970    2.156   .     S
C916   C918    1.403   .     A
C917   C919    1.416   .     A
C918   C929    1.506   .     S
C918   C920    1.383   .     A
C919   C921    1.381   .     A
C919   C930    1.511   .     S
C920   H939    1.085   .     S
C920   C922    1.397   .     A
C921   C923    1.393   .     A
C921   H950    1.085   .     S
C923   C676    1.452   1_565 S
C924   H968    1.108   .     S
C924   H967    1.108   .     S
C924   C745    1.530   1_655 S
C924   H802    1.108   1_655 S
C925   H961    1.074   .     S
C925   C934    1.403   .     A
C926   H941    1.109   .     S
C926   H942    1.111   .     S
C927   H945    1.109   .     S
C927   H943    1.110   .     S
C928   H946    1.110   .     S
C928   H948    1.110   .     S
C928   H701    1.109   1_565 S
C929   H952    1.109   .     S
C929   H949    1.108   .     S
C929   H951    1.110   .     S
C930   H953    1.110   .     S
C930   H955    1.111   .     S
C930   H954    1.109   .     S
C931   C938    1.514   .     S
C931   H956    1.109   .     S
C931   H957    1.110   .     S
C931   H958    1.111   .     S
C932   H959    1.110   .     S
C932   H962    1.111   .     S
C932   H960    1.109   .     S
C933   H963    1.073   .     S
C933   C935    1.403   .     A
C934   N973    1.356   .     A
C934   H964    1.082   .     S
C935   N974    1.356   .     A
C935   H965    1.081   .     S
C936   I971    2.139   .     S
C936   C938    1.415   .     A
C936   N973    1.375   .     A
C937   I972    2.128   .     S
C937   N974    1.373   .     A
H940   C762    1.110   1_655 S
H944   C681    1.108   1_565 S
N973   Zn984   2.018   .     S
N974   Zn983   2.018   .     S
O975   Zn983   2.004   .     S
O976   Zn984   2.004   .     S
O977   Zn984   1.994   .     S
O978   Zn983   1.994   .     S
O979   Zn983   1.998   .     S
O980   Zn984   1.998   .     S
O981   Zn984   1.996   .     S
O982   Zn983   1.996   .     S
