data_str_m2_o1_o18_pcu_sym.146
_audit_creation_date              2020-01-03
_audit_creation_method            'Materials Studio'
_symmetry_space_group_name_H-M    'P1'
_symmetry_Int_Tables_number       1
_symmetry_cell_setting            triclinic
loop_
_symmetry_equiv_pos_as_xyz
  x,y,z
_cell_length_a                    28.7687
_cell_length_b                    32.4183
_cell_length_c                    31.1128
_cell_angle_alpha                 88.5366
_cell_angle_beta                  73.1466
_cell_angle_gamma                 91.0785
loop_
_atom_site_label
_atom_site_type_symbol
_atom_site_fract_x
_atom_site_fract_y
_atom_site_fract_z
_atom_site_U_iso_or_equiv
_atom_site_adp_type
_atom_site_occupancy
C1     C     0.33300   0.08744   0.25017   0.00000  Uiso   1.00
C2     C     0.00033   0.24590   0.24984   0.00000  Uiso   1.00
C3     C     0.18542   0.11844   0.04414   0.00000  Uiso   1.00
C4     C     0.13264   0.14546   0.45179   0.00000  Uiso   1.00
C5     C     0.23459   0.11514   0.02032   0.00000  Uiso   1.00
C6     C     0.08604   0.15710   0.47496   0.00000  Uiso   1.00
C7     C     0.29800   0.02105   0.23589   0.00000  Uiso   1.00
C8     C     0.03512   0.31231   0.26442   0.00000  Uiso   1.00
C9     C     0.29846   0.31170   0.23559   0.00000  Uiso   1.00
C10    C     0.03473   0.02166   0.26463   0.00000  Uiso   1.00
C11    C     0.00046   0.29056   0.24974   0.00000  Uiso   1.00
C12    C     0.33278   0.04279   0.25041   0.00000  Uiso   1.00
C13    C     0.18363   0.13441   0.26972   0.00000  Uiso   1.00
C14    C     0.14992   0.19837   0.22936   0.00000  Uiso   1.00
C15    C     0.13435   0.13504   0.26983   0.00000  Uiso   1.00
C16    C     0.19894   0.19827   0.23007   0.00000  Uiso   1.00
C17    C     0.30539   0.16464   0.33615   0.00000  Uiso   1.00
C18    C     0.02769   0.16721   0.16394   0.00000  Uiso   1.00
C19    C     0.28827   0.15506   0.38494   0.00000  Uiso   1.00
C20    C     0.04309   0.16625   0.11473   0.00000  Uiso   1.00
C21    C     0.30178   0.12628   0.45281   0.00000  Uiso   1.00
C22    C     0.02460   0.17071   0.04384   0.00000  Uiso   1.00
C23    C     0.31985   0.13978   0.40797   0.00000  Uiso   1.00
C24    C     0.00972   0.17270   0.09038   0.00000  Uiso   1.00
C25    C     0.23833   0.15616   0.40736   0.00000  Uiso   1.00
C26    C     0.09127   0.15743   0.09200   0.00000  Uiso   1.00
C27    C     0.21911   0.14083   0.45189   0.00000  Uiso   1.00
C28    C     0.10562   0.15040   0.04568   0.00000  Uiso   1.00
C29    C     0.25193   0.12769   0.47520   0.00000  Uiso   1.00
C30    C     0.07228   0.15998   0.02135   0.00000  Uiso   1.00
C31    C     0.16847   0.14104   0.47472   0.00000  Uiso   1.00
C32    C     0.15298   0.13676   0.02242   0.00000  Uiso   1.00
Cu33   Cu    0.04689   0.16667   0.25000   0.00000  Uiso   1.00
Cu34   Cu    0.28645   0.16666   0.25000   0.00000  Uiso   1.00
H35    H     0.25953   0.10204   0.03693   0.00000  Uiso   1.00
H36    H     0.05954   0.16180   0.45682   0.00000  Uiso   1.00
H37    H     0.11734   0.15640   0.11086   0.00000  Uiso   1.00
H38    H     0.21475   0.16989   0.38989   0.00000  Uiso   1.00
H39    H     0.30570   0.17994   0.10719   0.00000  Uiso   1.00
H40    H     0.02495   0.13745   0.39111   0.00000  Uiso   1.00
H41    H     0.32669   0.11432   0.47001   0.00000  Uiso   1.00
H42    H     0.33191   0.17689   0.02548   0.00000  Uiso   1.00
H43    H     0.27106   0.03699   0.22410   0.00000  Uiso   1.00
H44    H     0.06191   0.29637   0.27642   0.00000  Uiso   1.00
H45    H     0.27150   0.29531   0.22390   0.00000  Uiso   1.00
H46    H     0.06167   0.03805   0.27633   0.00000  Uiso   1.00
H47    H     0.10953   0.11001   0.28607   0.00000  Uiso   1.00
H48    H     0.22372   0.22327   0.21365   0.00000  Uiso   1.00
N49    N     0.11736   0.16668   0.24999   0.00000  Uiso   1.00
N50    N     0.21597   0.16666   0.25001   0.00000  Uiso   1.00
O51    O     0.03958   0.10655   0.25000   0.00000  Uiso   1.00
O52    O     0.29375   0.22678   0.25000   0.00000  Uiso   1.00
O53    O     0.29372   0.10654   0.25000   0.00000  Uiso   1.00
O54    O     0.03961   0.22679   0.24999   0.00000  Uiso   1.00
O55    O     0.01852   0.16668   0.31491   0.00000  Uiso   1.00
O56    O     0.31481   0.16666   0.18508   0.00000  Uiso   1.00
O57    O     0.27267   0.16667   0.31492   0.00000  Uiso   1.00
O58    O     0.06067   0.16667   0.18508   0.00000  Uiso   1.00
C59    C     0.16862   0.09623   0.08854   0.00000  Uiso   1.00
O60    O     0.19426   0.09605   0.11378   0.00000  Uiso   1.00
O61    O     0.12404   0.07445   0.10094   0.00000  Uiso   1.00
H62    H     0.11658   0.06068   0.13191   0.00000  Uiso   1.00
C63    C     0.13718   0.12591   0.40861   0.00000  Uiso   1.00
O64    O     0.12646   0.14469   0.37841   0.00000  Uiso   1.00
O65    O     0.14888   0.08428   0.40462   0.00000  Uiso   1.00
H66    H     0.14224   0.07173   0.37744   0.00000  Uiso   1.00
C67    C     0.19798   0.09701   0.29026   0.00000  Uiso   1.00
O68    O     0.18647   0.06301   0.27984   0.00000  Uiso   1.00
O69    O     0.22204   0.09993   0.32308   0.00000  Uiso   1.00
H70    H     0.23070   0.07199   0.33353   0.00000  Uiso   1.00
C71    C     0.13633   0.23377   0.20538   0.00000  Uiso   1.00
O72    O     0.14066   0.26868   0.21795   0.00000  Uiso   1.00
O73    O     0.12274   0.22801   0.16637   0.00000  Uiso   1.00
H74    H     0.11519   0.25486   0.15270   0.00000  Uiso   1.00
C75    C     0.66634   0.08744   0.25017   0.00000  Uiso   1.00
C76    C     0.33366   0.24590   0.24984   0.00000  Uiso   1.00
C77    C     0.51876   0.11844   0.04414   0.00000  Uiso   1.00
C78    C     0.46598   0.14546   0.45179   0.00000  Uiso   1.00
C79    C     0.56792   0.11514   0.02032   0.00000  Uiso   1.00
C80    C     0.41938   0.15710   0.47496   0.00000  Uiso   1.00
C81    C     0.63133   0.02105   0.23589   0.00000  Uiso   1.00
C82    C     0.36846   0.31231   0.26442   0.00000  Uiso   1.00
C83    C     0.63179   0.31170   0.23559   0.00000  Uiso   1.00
C84    C     0.36806   0.02166   0.26463   0.00000  Uiso   1.00
C85    C     0.33380   0.29056   0.24974   0.00000  Uiso   1.00
C86    C     0.66611   0.04279   0.25041   0.00000  Uiso   1.00
C87    C     0.51697   0.13441   0.26972   0.00000  Uiso   1.00
C88    C     0.48325   0.19837   0.22936   0.00000  Uiso   1.00
C89    C     0.46768   0.13504   0.26983   0.00000  Uiso   1.00
C90    C     0.53227   0.19827   0.23007   0.00000  Uiso   1.00
C91    C     0.63873   0.16464   0.33615   0.00000  Uiso   1.00
C92    C     0.36102   0.16721   0.16394   0.00000  Uiso   1.00
C93    C     0.62161   0.15506   0.38494   0.00000  Uiso   1.00
C94    C     0.37642   0.16625   0.11473   0.00000  Uiso   1.00
C95    C     0.63512   0.12628   0.45281   0.00000  Uiso   1.00
C96    C     0.35793   0.17071   0.04384   0.00000  Uiso   1.00
C97    C     0.65319   0.13978   0.40797   0.00000  Uiso   1.00
C98    C     0.34305   0.17270   0.09038   0.00000  Uiso   1.00
C99    C     0.57166   0.15616   0.40736   0.00000  Uiso   1.00
C100   C     0.42460   0.15743   0.09200   0.00000  Uiso   1.00
C101   C     0.55244   0.14083   0.45189   0.00000  Uiso   1.00
C102   C     0.43895   0.15040   0.04568   0.00000  Uiso   1.00
C103   C     0.58526   0.12769   0.47520   0.00000  Uiso   1.00
C104   C     0.40561   0.15998   0.02135   0.00000  Uiso   1.00
C105   C     0.50181   0.14104   0.47472   0.00000  Uiso   1.00
C106   C     0.48631   0.13676   0.02242   0.00000  Uiso   1.00
Cu107  Cu    0.38022   0.16667   0.25000   0.00000  Uiso   1.00
Cu108  Cu    0.61978   0.16666   0.25000   0.00000  Uiso   1.00
H109   H     0.59286   0.10204   0.03693   0.00000  Uiso   1.00
H110   H     0.39287   0.16180   0.45682   0.00000  Uiso   1.00
H111   H     0.45067   0.15640   0.11086   0.00000  Uiso   1.00
H112   H     0.54808   0.16989   0.38989   0.00000  Uiso   1.00
H113   H     0.63903   0.17994   0.10719   0.00000  Uiso   1.00
H114   H     0.35828   0.13745   0.39111   0.00000  Uiso   1.00
H115   H     0.66002   0.11432   0.47001   0.00000  Uiso   1.00
H116   H     0.66524   0.17689   0.02548   0.00000  Uiso   1.00
H117   H     0.60439   0.03699   0.22410   0.00000  Uiso   1.00
H118   H     0.39524   0.29637   0.27642   0.00000  Uiso   1.00
H119   H     0.60484   0.29531   0.22390   0.00000  Uiso   1.00
H120   H     0.39501   0.03805   0.27633   0.00000  Uiso   1.00
H121   H     0.44286   0.11001   0.28607   0.00000  Uiso   1.00
H122   H     0.55705   0.22327   0.21365   0.00000  Uiso   1.00
N123   N     0.45069   0.16668   0.24999   0.00000  Uiso   1.00
N124   N     0.54931   0.16666   0.25001   0.00000  Uiso   1.00
O125   O     0.37291   0.10655   0.25000   0.00000  Uiso   1.00
O126   O     0.62709   0.22678   0.25000   0.00000  Uiso   1.00
O127   O     0.62706   0.10654   0.25000   0.00000  Uiso   1.00
O128   O     0.37294   0.22679   0.24999   0.00000  Uiso   1.00
O129   O     0.35186   0.16668   0.31491   0.00000  Uiso   1.00
O130   O     0.64814   0.16666   0.18508   0.00000  Uiso   1.00
O131   O     0.60600   0.16667   0.31492   0.00000  Uiso   1.00
O132   O     0.39400   0.16667   0.18508   0.00000  Uiso   1.00
C133   C     0.50195   0.09623   0.08854   0.00000  Uiso   1.00
O134   O     0.52759   0.09605   0.11378   0.00000  Uiso   1.00
O135   O     0.45737   0.07445   0.10094   0.00000  Uiso   1.00
H136   H     0.44991   0.06068   0.13191   0.00000  Uiso   1.00
C137   C     0.47051   0.12591   0.40861   0.00000  Uiso   1.00
O138   O     0.45980   0.14469   0.37841   0.00000  Uiso   1.00
O139   O     0.48221   0.08428   0.40462   0.00000  Uiso   1.00
H140   H     0.47558   0.07173   0.37744   0.00000  Uiso   1.00
C141   C     0.53131   0.09701   0.29026   0.00000  Uiso   1.00
O142   O     0.51980   0.06301   0.27984   0.00000  Uiso   1.00
O143   O     0.55538   0.09993   0.32308   0.00000  Uiso   1.00
H144   H     0.56404   0.07199   0.33353   0.00000  Uiso   1.00
C145   C     0.46967   0.23377   0.20538   0.00000  Uiso   1.00
O146   O     0.47399   0.26868   0.21795   0.00000  Uiso   1.00
O147   O     0.45608   0.22801   0.16637   0.00000  Uiso   1.00
H148   H     0.44852   0.25486   0.15270   0.00000  Uiso   1.00
C149   C     0.99967   0.08744   0.25017   0.00000  Uiso   1.00
C150   C     0.66699   0.24590   0.24984   0.00000  Uiso   1.00
C151   C     0.85209   0.11844   0.04414   0.00000  Uiso   1.00
C152   C     0.79931   0.14546   0.45179   0.00000  Uiso   1.00
C153   C     0.90125   0.11514   0.02032   0.00000  Uiso   1.00
C154   C     0.75271   0.15710   0.47496   0.00000  Uiso   1.00
C155   C     0.96466   0.02105   0.23589   0.00000  Uiso   1.00
C156   C     0.70179   0.31231   0.26442   0.00000  Uiso   1.00
C157   C     0.96513   0.31170   0.23559   0.00000  Uiso   1.00
C158   C     0.70140   0.02166   0.26463   0.00000  Uiso   1.00
C159   C     0.66713   0.29056   0.24974   0.00000  Uiso   1.00
C160   C     0.99944   0.04279   0.25041   0.00000  Uiso   1.00
C161   C     0.85030   0.13441   0.26972   0.00000  Uiso   1.00
C162   C     0.81658   0.19837   0.22936   0.00000  Uiso   1.00
C163   C     0.80102   0.13504   0.26983   0.00000  Uiso   1.00
C164   C     0.86561   0.19827   0.23007   0.00000  Uiso   1.00
C165   C     0.97206   0.16464   0.33615   0.00000  Uiso   1.00
C166   C     0.69435   0.16721   0.16394   0.00000  Uiso   1.00
C167   C     0.95494   0.15506   0.38494   0.00000  Uiso   1.00
C168   C     0.70975   0.16625   0.11473   0.00000  Uiso   1.00
C169   C     0.96845   0.12628   0.45281   0.00000  Uiso   1.00
C170   C     0.69127   0.17071   0.04384   0.00000  Uiso   1.00
C171   C     0.98652   0.13978   0.40797   0.00000  Uiso   1.00
C172   C     0.67639   0.17270   0.09038   0.00000  Uiso   1.00
C173   C     0.90499   0.15616   0.40736   0.00000  Uiso   1.00
C174   C     0.75794   0.15743   0.09200   0.00000  Uiso   1.00
C175   C     0.88578   0.14083   0.45189   0.00000  Uiso   1.00
C176   C     0.77229   0.15040   0.04568   0.00000  Uiso   1.00
C177   C     0.91859   0.12769   0.47520   0.00000  Uiso   1.00
C178   C     0.73895   0.15998   0.02135   0.00000  Uiso   1.00
C179   C     0.83514   0.14104   0.47472   0.00000  Uiso   1.00
C180   C     0.81965   0.13676   0.02242   0.00000  Uiso   1.00
Cu181  Cu    0.71355   0.16667   0.25000   0.00000  Uiso   1.00
Cu182  Cu    0.95311   0.16666   0.25000   0.00000  Uiso   1.00
H183   H     0.92620   0.10204   0.03693   0.00000  Uiso   1.00
H184   H     0.72620   0.16180   0.45682   0.00000  Uiso   1.00
H185   H     0.78400   0.15640   0.11086   0.00000  Uiso   1.00
H186   H     0.88141   0.16989   0.38989   0.00000  Uiso   1.00
H187   H     0.97237   0.17994   0.10719   0.00000  Uiso   1.00
H188   H     0.69162   0.13745   0.39111   0.00000  Uiso   1.00
H189   H     0.99336   0.11432   0.47001   0.00000  Uiso   1.00
H190   H     0.99857   0.17689   0.02548   0.00000  Uiso   1.00
H191   H     0.93773   0.03699   0.22410   0.00000  Uiso   1.00
H192   H     0.72857   0.29637   0.27642   0.00000  Uiso   1.00
H193   H     0.93817   0.29531   0.22390   0.00000  Uiso   1.00
H194   H     0.72834   0.03805   0.27633   0.00000  Uiso   1.00
H195   H     0.77619   0.11001   0.28607   0.00000  Uiso   1.00
H196   H     0.89038   0.22327   0.21365   0.00000  Uiso   1.00
N197   N     0.78403   0.16668   0.24999   0.00000  Uiso   1.00
N198   N     0.88264   0.16666   0.25001   0.00000  Uiso   1.00
O199   O     0.70625   0.10655   0.25000   0.00000  Uiso   1.00
O200   O     0.96042   0.22678   0.25000   0.00000  Uiso   1.00
O201   O     0.96039   0.10654   0.25000   0.00000  Uiso   1.00
O202   O     0.70628   0.22679   0.24999   0.00000  Uiso   1.00
O203   O     0.68519   0.16668   0.31491   0.00000  Uiso   1.00
O204   O     0.98148   0.16666   0.18508   0.00000  Uiso   1.00
O205   O     0.93933   0.16667   0.31492   0.00000  Uiso   1.00
O206   O     0.72733   0.16667   0.18508   0.00000  Uiso   1.00
C207   C     0.83528   0.09623   0.08854   0.00000  Uiso   1.00
O208   O     0.86093   0.09605   0.11378   0.00000  Uiso   1.00
O209   O     0.79070   0.07445   0.10094   0.00000  Uiso   1.00
H210   H     0.78324   0.06068   0.13191   0.00000  Uiso   1.00
C211   C     0.80384   0.12591   0.40861   0.00000  Uiso   1.00
O212   O     0.79313   0.14469   0.37841   0.00000  Uiso   1.00
O213   O     0.81555   0.08428   0.40462   0.00000  Uiso   1.00
H214   H     0.80891   0.07173   0.37744   0.00000  Uiso   1.00
C215   C     0.86464   0.09701   0.29026   0.00000  Uiso   1.00
O216   O     0.85313   0.06301   0.27984   0.00000  Uiso   1.00
O217   O     0.88871   0.09993   0.32308   0.00000  Uiso   1.00
H218   H     0.89737   0.07199   0.33353   0.00000  Uiso   1.00
C219   C     0.80300   0.23377   0.20538   0.00000  Uiso   1.00
O220   O     0.80732   0.26868   0.21795   0.00000  Uiso   1.00
O221   O     0.78941   0.22801   0.16637   0.00000  Uiso   1.00
H222   H     0.78186   0.25486   0.15270   0.00000  Uiso   1.00
C223   C     0.33300   0.42077   0.25017   0.00000  Uiso   1.00
C224   C     0.00033   0.57924   0.24984   0.00000  Uiso   1.00
C225   C     0.18542   0.45177   0.04414   0.00000  Uiso   1.00
C226   C     0.13264   0.47879   0.45179   0.00000  Uiso   1.00
C227   C     0.23459   0.44847   0.02032   0.00000  Uiso   1.00
C228   C     0.08604   0.49044   0.47496   0.00000  Uiso   1.00
C229   C     0.29800   0.35438   0.23589   0.00000  Uiso   1.00
C230   C     0.03512   0.64564   0.26442   0.00000  Uiso   1.00
C231   C     0.29846   0.64504   0.23559   0.00000  Uiso   1.00
C232   C     0.03473   0.35499   0.26463   0.00000  Uiso   1.00
C233   C     0.00046   0.62390   0.24974   0.00000  Uiso   1.00
C234   C     0.33278   0.37612   0.25041   0.00000  Uiso   1.00
C235   C     0.18363   0.46774   0.26972   0.00000  Uiso   1.00
C236   C     0.14992   0.53171   0.22936   0.00000  Uiso   1.00
C237   C     0.13435   0.46837   0.26983   0.00000  Uiso   1.00
C238   C     0.19894   0.53160   0.23007   0.00000  Uiso   1.00
C239   C     0.30539   0.49798   0.33615   0.00000  Uiso   1.00
C240   C     0.02769   0.50055   0.16394   0.00000  Uiso   1.00
C241   C     0.28827   0.48839   0.38494   0.00000  Uiso   1.00
C242   C     0.04309   0.49958   0.11473   0.00000  Uiso   1.00
C243   C     0.30178   0.45962   0.45281   0.00000  Uiso   1.00
C244   C     0.02460   0.50404   0.04384   0.00000  Uiso   1.00
C245   C     0.31985   0.47312   0.40797   0.00000  Uiso   1.00
C246   C     0.00972   0.50603   0.09038   0.00000  Uiso   1.00
C247   C     0.23833   0.48950   0.40736   0.00000  Uiso   1.00
C248   C     0.09127   0.49076   0.09200   0.00000  Uiso   1.00
C249   C     0.21911   0.47416   0.45189   0.00000  Uiso   1.00
C250   C     0.10562   0.48373   0.04568   0.00000  Uiso   1.00
C251   C     0.25193   0.46102   0.47520   0.00000  Uiso   1.00
C252   C     0.07228   0.49332   0.02135   0.00000  Uiso   1.00
C253   C     0.16847   0.47437   0.47472   0.00000  Uiso   1.00
C254   C     0.15298   0.47010   0.02242   0.00000  Uiso   1.00
Cu255  Cu    0.04689   0.50001   0.25000   0.00000  Uiso   1.00
Cu256  Cu    0.28645   0.49999   0.25000   0.00000  Uiso   1.00
H257   H     0.25953   0.43537   0.03693   0.00000  Uiso   1.00
H258   H     0.05954   0.49513   0.45682   0.00000  Uiso   1.00
H259   H     0.11734   0.48974   0.11086   0.00000  Uiso   1.00
H260   H     0.21475   0.50322   0.38989   0.00000  Uiso   1.00
H261   H     0.30570   0.51327   0.10719   0.00000  Uiso   1.00
H262   H     0.02495   0.47078   0.39111   0.00000  Uiso   1.00
H263   H     0.32669   0.44765   0.47001   0.00000  Uiso   1.00
H264   H     0.33191   0.51022   0.02548   0.00000  Uiso   1.00
H265   H     0.27106   0.37032   0.22410   0.00000  Uiso   1.00
H266   H     0.06191   0.62970   0.27642   0.00000  Uiso   1.00
H267   H     0.27150   0.62865   0.22390   0.00000  Uiso   1.00
H268   H     0.06167   0.37138   0.27633   0.00000  Uiso   1.00
H269   H     0.10953   0.44334   0.28607   0.00000  Uiso   1.00
H270   H     0.22372   0.55660   0.21365   0.00000  Uiso   1.00
N271   N     0.11736   0.50001   0.24999   0.00000  Uiso   1.00
N272   N     0.21597   0.49999   0.25001   0.00000  Uiso   1.00
O273   O     0.03958   0.43989   0.25000   0.00000  Uiso   1.00
O274   O     0.29375   0.56011   0.25000   0.00000  Uiso   1.00
O275   O     0.29372   0.43988   0.25000   0.00000  Uiso   1.00
O276   O     0.03961   0.56012   0.24999   0.00000  Uiso   1.00
O277   O     0.01852   0.50001   0.31491   0.00000  Uiso   1.00
O278   O     0.31481   0.49999   0.18508   0.00000  Uiso   1.00
O279   O     0.27267   0.50000   0.31492   0.00000  Uiso   1.00
O280   O     0.06067   0.50000   0.18508   0.00000  Uiso   1.00
C281   C     0.16862   0.42956   0.08854   0.00000  Uiso   1.00
O282   O     0.19426   0.42938   0.11378   0.00000  Uiso   1.00
O283   O     0.12404   0.40778   0.10094   0.00000  Uiso   1.00
H284   H     0.11658   0.39402   0.13191   0.00000  Uiso   1.00
C285   C     0.13718   0.45924   0.40861   0.00000  Uiso   1.00
O286   O     0.12646   0.47802   0.37841   0.00000  Uiso   1.00
O287   O     0.14888   0.41762   0.40462   0.00000  Uiso   1.00
H288   H     0.14224   0.40507   0.37744   0.00000  Uiso   1.00
C289   C     0.19798   0.43034   0.29026   0.00000  Uiso   1.00
O290   O     0.18647   0.39634   0.27984   0.00000  Uiso   1.00
O291   O     0.22204   0.43327   0.32308   0.00000  Uiso   1.00
H292   H     0.23070   0.40533   0.33353   0.00000  Uiso   1.00
C293   C     0.13633   0.56710   0.20538   0.00000  Uiso   1.00
O294   O     0.14066   0.60202   0.21795   0.00000  Uiso   1.00
O295   O     0.12274   0.56134   0.16637   0.00000  Uiso   1.00
H296   H     0.11519   0.58820   0.15270   0.00000  Uiso   1.00
C297   C     0.66634   0.42077   0.25017   0.00000  Uiso   1.00
C298   C     0.33366   0.57924   0.24984   0.00000  Uiso   1.00
C299   C     0.51876   0.45177   0.04414   0.00000  Uiso   1.00
C300   C     0.46598   0.47879   0.45179   0.00000  Uiso   1.00
C301   C     0.56792   0.44847   0.02032   0.00000  Uiso   1.00
C302   C     0.41938   0.49044   0.47496   0.00000  Uiso   1.00
C303   C     0.63133   0.35438   0.23589   0.00000  Uiso   1.00
C304   C     0.36846   0.64564   0.26442   0.00000  Uiso   1.00
C305   C     0.63179   0.64504   0.23559   0.00000  Uiso   1.00
C306   C     0.36806   0.35499   0.26463   0.00000  Uiso   1.00
C307   C     0.33380   0.62390   0.24974   0.00000  Uiso   1.00
C308   C     0.66611   0.37612   0.25041   0.00000  Uiso   1.00
C309   C     0.51697   0.46774   0.26972   0.00000  Uiso   1.00
C310   C     0.48325   0.53171   0.22936   0.00000  Uiso   1.00
C311   C     0.46768   0.46837   0.26983   0.00000  Uiso   1.00
C312   C     0.53227   0.53160   0.23007   0.00000  Uiso   1.00
C313   C     0.63873   0.49798   0.33615   0.00000  Uiso   1.00
C314   C     0.36102   0.50055   0.16394   0.00000  Uiso   1.00
C315   C     0.62161   0.48839   0.38494   0.00000  Uiso   1.00
C316   C     0.37642   0.49958   0.11473   0.00000  Uiso   1.00
C317   C     0.63512   0.45962   0.45281   0.00000  Uiso   1.00
C318   C     0.35793   0.50404   0.04384   0.00000  Uiso   1.00
C319   C     0.65319   0.47312   0.40797   0.00000  Uiso   1.00
C320   C     0.34305   0.50603   0.09038   0.00000  Uiso   1.00
C321   C     0.57166   0.48950   0.40736   0.00000  Uiso   1.00
C322   C     0.42460   0.49076   0.09200   0.00000  Uiso   1.00
C323   C     0.55244   0.47416   0.45189   0.00000  Uiso   1.00
C324   C     0.43895   0.48373   0.04568   0.00000  Uiso   1.00
C325   C     0.58526   0.46102   0.47520   0.00000  Uiso   1.00
C326   C     0.40561   0.49332   0.02135   0.00000  Uiso   1.00
C327   C     0.50181   0.47437   0.47472   0.00000  Uiso   1.00
C328   C     0.48631   0.47010   0.02242   0.00000  Uiso   1.00
Cu329  Cu    0.38022   0.50001   0.25000   0.00000  Uiso   1.00
Cu330  Cu    0.61978   0.49999   0.25000   0.00000  Uiso   1.00
H331   H     0.59286   0.43537   0.03693   0.00000  Uiso   1.00
H332   H     0.39287   0.49513   0.45682   0.00000  Uiso   1.00
H333   H     0.45067   0.48974   0.11086   0.00000  Uiso   1.00
H334   H     0.54808   0.50322   0.38989   0.00000  Uiso   1.00
H335   H     0.63903   0.51327   0.10719   0.00000  Uiso   1.00
H336   H     0.35828   0.47078   0.39111   0.00000  Uiso   1.00
H337   H     0.66002   0.44765   0.47001   0.00000  Uiso   1.00
H338   H     0.66524   0.51022   0.02548   0.00000  Uiso   1.00
H339   H     0.60439   0.37032   0.22410   0.00000  Uiso   1.00
H340   H     0.39524   0.62970   0.27642   0.00000  Uiso   1.00
H341   H     0.60484   0.62865   0.22390   0.00000  Uiso   1.00
H342   H     0.39501   0.37138   0.27633   0.00000  Uiso   1.00
H343   H     0.44286   0.44334   0.28607   0.00000  Uiso   1.00
H344   H     0.55705   0.55660   0.21365   0.00000  Uiso   1.00
N345   N     0.45069   0.50001   0.24999   0.00000  Uiso   1.00
N346   N     0.54931   0.49999   0.25001   0.00000  Uiso   1.00
O347   O     0.37291   0.43989   0.25000   0.00000  Uiso   1.00
O348   O     0.62709   0.56011   0.25000   0.00000  Uiso   1.00
O349   O     0.62706   0.43988   0.25000   0.00000  Uiso   1.00
O350   O     0.37294   0.56012   0.24999   0.00000  Uiso   1.00
O351   O     0.35186   0.50001   0.31491   0.00000  Uiso   1.00
O352   O     0.64814   0.49999   0.18508   0.00000  Uiso   1.00
O353   O     0.60600   0.50000   0.31492   0.00000  Uiso   1.00
O354   O     0.39400   0.50000   0.18508   0.00000  Uiso   1.00
C355   C     0.50195   0.42956   0.08854   0.00000  Uiso   1.00
O356   O     0.52759   0.42938   0.11378   0.00000  Uiso   1.00
O357   O     0.45737   0.40778   0.10094   0.00000  Uiso   1.00
H358   H     0.44991   0.39402   0.13191   0.00000  Uiso   1.00
C359   C     0.47051   0.45924   0.40861   0.00000  Uiso   1.00
O360   O     0.45980   0.47802   0.37841   0.00000  Uiso   1.00
O361   O     0.48221   0.41762   0.40462   0.00000  Uiso   1.00
H362   H     0.47558   0.40507   0.37744   0.00000  Uiso   1.00
C363   C     0.53131   0.43034   0.29026   0.00000  Uiso   1.00
O364   O     0.51980   0.39634   0.27984   0.00000  Uiso   1.00
O365   O     0.55538   0.43327   0.32308   0.00000  Uiso   1.00
H366   H     0.56404   0.40533   0.33353   0.00000  Uiso   1.00
C367   C     0.46967   0.56710   0.20538   0.00000  Uiso   1.00
O368   O     0.47399   0.60202   0.21795   0.00000  Uiso   1.00
O369   O     0.45608   0.56134   0.16637   0.00000  Uiso   1.00
H370   H     0.44852   0.58820   0.15270   0.00000  Uiso   1.00
C371   C     0.99967   0.42077   0.25017   0.00000  Uiso   1.00
C372   C     0.66699   0.57924   0.24984   0.00000  Uiso   1.00
C373   C     0.85209   0.45177   0.04414   0.00000  Uiso   1.00
C374   C     0.79931   0.47879   0.45179   0.00000  Uiso   1.00
C375   C     0.90125   0.44847   0.02032   0.00000  Uiso   1.00
C376   C     0.75271   0.49044   0.47496   0.00000  Uiso   1.00
C377   C     0.96466   0.35438   0.23589   0.00000  Uiso   1.00
C378   C     0.70179   0.64564   0.26442   0.00000  Uiso   1.00
C379   C     0.96513   0.64504   0.23559   0.00000  Uiso   1.00
C380   C     0.70140   0.35499   0.26463   0.00000  Uiso   1.00
C381   C     0.66713   0.62390   0.24974   0.00000  Uiso   1.00
C382   C     0.99944   0.37612   0.25041   0.00000  Uiso   1.00
C383   C     0.85030   0.46774   0.26972   0.00000  Uiso   1.00
C384   C     0.81658   0.53171   0.22936   0.00000  Uiso   1.00
C385   C     0.80102   0.46837   0.26983   0.00000  Uiso   1.00
C386   C     0.86561   0.53160   0.23007   0.00000  Uiso   1.00
C387   C     0.97206   0.49798   0.33615   0.00000  Uiso   1.00
C388   C     0.69435   0.50055   0.16394   0.00000  Uiso   1.00
C389   C     0.95494   0.48839   0.38494   0.00000  Uiso   1.00
C390   C     0.70975   0.49958   0.11473   0.00000  Uiso   1.00
C391   C     0.96845   0.45962   0.45281   0.00000  Uiso   1.00
C392   C     0.69127   0.50404   0.04384   0.00000  Uiso   1.00
C393   C     0.98652   0.47312   0.40797   0.00000  Uiso   1.00
C394   C     0.67639   0.50603   0.09038   0.00000  Uiso   1.00
C395   C     0.90499   0.48950   0.40736   0.00000  Uiso   1.00
C396   C     0.75794   0.49076   0.09200   0.00000  Uiso   1.00
C397   C     0.88578   0.47416   0.45189   0.00000  Uiso   1.00
C398   C     0.77229   0.48373   0.04568   0.00000  Uiso   1.00
C399   C     0.91859   0.46102   0.47520   0.00000  Uiso   1.00
C400   C     0.73895   0.49332   0.02135   0.00000  Uiso   1.00
C401   C     0.83514   0.47437   0.47472   0.00000  Uiso   1.00
C402   C     0.81965   0.47010   0.02242   0.00000  Uiso   1.00
Cu403  Cu    0.71355   0.50001   0.25000   0.00000  Uiso   1.00
Cu404  Cu    0.95311   0.49999   0.25000   0.00000  Uiso   1.00
H405   H     0.92620   0.43537   0.03693   0.00000  Uiso   1.00
H406   H     0.72620   0.49513   0.45682   0.00000  Uiso   1.00
H407   H     0.78400   0.48974   0.11086   0.00000  Uiso   1.00
H408   H     0.88141   0.50322   0.38989   0.00000  Uiso   1.00
H409   H     0.97237   0.51327   0.10719   0.00000  Uiso   1.00
H410   H     0.69162   0.47078   0.39111   0.00000  Uiso   1.00
H411   H     0.99336   0.44765   0.47001   0.00000  Uiso   1.00
H412   H     0.99857   0.51022   0.02548   0.00000  Uiso   1.00
H413   H     0.93773   0.37032   0.22410   0.00000  Uiso   1.00
H414   H     0.72857   0.62970   0.27642   0.00000  Uiso   1.00
H415   H     0.93817   0.62865   0.22390   0.00000  Uiso   1.00
H416   H     0.72834   0.37138   0.27633   0.00000  Uiso   1.00
H417   H     0.77619   0.44334   0.28607   0.00000  Uiso   1.00
H418   H     0.89038   0.55660   0.21365   0.00000  Uiso   1.00
N419   N     0.78403   0.50001   0.24999   0.00000  Uiso   1.00
N420   N     0.88264   0.49999   0.25001   0.00000  Uiso   1.00
O421   O     0.70625   0.43989   0.25000   0.00000  Uiso   1.00
O422   O     0.96042   0.56011   0.25000   0.00000  Uiso   1.00
O423   O     0.96039   0.43988   0.25000   0.00000  Uiso   1.00
O424   O     0.70628   0.56012   0.24999   0.00000  Uiso   1.00
O425   O     0.68519   0.50001   0.31491   0.00000  Uiso   1.00
O426   O     0.98148   0.49999   0.18508   0.00000  Uiso   1.00
O427   O     0.93933   0.50000   0.31492   0.00000  Uiso   1.00
O428   O     0.72733   0.50000   0.18508   0.00000  Uiso   1.00
C429   C     0.83528   0.42956   0.08854   0.00000  Uiso   1.00
O430   O     0.86093   0.42938   0.11378   0.00000  Uiso   1.00
O431   O     0.79070   0.40778   0.10094   0.00000  Uiso   1.00
H432   H     0.78324   0.39402   0.13191   0.00000  Uiso   1.00
C433   C     0.80384   0.45924   0.40861   0.00000  Uiso   1.00
O434   O     0.79313   0.47802   0.37841   0.00000  Uiso   1.00
O435   O     0.81555   0.41762   0.40462   0.00000  Uiso   1.00
H436   H     0.80891   0.40507   0.37744   0.00000  Uiso   1.00
C437   C     0.86464   0.43034   0.29026   0.00000  Uiso   1.00
O438   O     0.85313   0.39634   0.27984   0.00000  Uiso   1.00
O439   O     0.88871   0.43327   0.32308   0.00000  Uiso   1.00
H440   H     0.89737   0.40533   0.33353   0.00000  Uiso   1.00
C441   C     0.80300   0.56710   0.20538   0.00000  Uiso   1.00
O442   O     0.80732   0.60202   0.21795   0.00000  Uiso   1.00
O443   O     0.78941   0.56134   0.16637   0.00000  Uiso   1.00
H444   H     0.78186   0.58820   0.15270   0.00000  Uiso   1.00
C445   C     0.33300   0.75410   0.25017   0.00000  Uiso   1.00
C446   C     0.00033   0.91257   0.24984   0.00000  Uiso   1.00
C447   C     0.18542   0.78511   0.04414   0.00000  Uiso   1.00
C448   C     0.13264   0.81213   0.45179   0.00000  Uiso   1.00
C449   C     0.23459   0.78181   0.02032   0.00000  Uiso   1.00
C450   C     0.08604   0.82377   0.47496   0.00000  Uiso   1.00
C451   C     0.29800   0.68771   0.23589   0.00000  Uiso   1.00
C452   C     0.03512   0.97898   0.26442   0.00000  Uiso   1.00
C453   C     0.29846   0.97837   0.23559   0.00000  Uiso   1.00
C454   C     0.03473   0.68832   0.26463   0.00000  Uiso   1.00
C455   C     0.00046   0.95723   0.24974   0.00000  Uiso   1.00
C456   C     0.33278   0.70946   0.25041   0.00000  Uiso   1.00
C457   C     0.18363   0.80108   0.26972   0.00000  Uiso   1.00
C458   C     0.14992   0.86504   0.22936   0.00000  Uiso   1.00
C459   C     0.13435   0.80171   0.26983   0.00000  Uiso   1.00
C460   C     0.19894   0.86494   0.23007   0.00000  Uiso   1.00
C461   C     0.30539   0.83131   0.33615   0.00000  Uiso   1.00
C462   C     0.02769   0.83388   0.16394   0.00000  Uiso   1.00
C463   C     0.28827   0.82173   0.38494   0.00000  Uiso   1.00
C464   C     0.04309   0.83291   0.11473   0.00000  Uiso   1.00
C465   C     0.30178   0.79295   0.45281   0.00000  Uiso   1.00
C466   C     0.02460   0.83737   0.04384   0.00000  Uiso   1.00
C467   C     0.31985   0.80645   0.40797   0.00000  Uiso   1.00
C468   C     0.00972   0.83936   0.09038   0.00000  Uiso   1.00
C469   C     0.23833   0.82283   0.40736   0.00000  Uiso   1.00
C470   C     0.09127   0.82409   0.09200   0.00000  Uiso   1.00
C471   C     0.21911   0.80750   0.45189   0.00000  Uiso   1.00
C472   C     0.10562   0.81706   0.04568   0.00000  Uiso   1.00
C473   C     0.25193   0.79436   0.47520   0.00000  Uiso   1.00
C474   C     0.07228   0.82665   0.02135   0.00000  Uiso   1.00
C475   C     0.16847   0.80770   0.47472   0.00000  Uiso   1.00
C476   C     0.15298   0.80343   0.02242   0.00000  Uiso   1.00
Cu477  Cu    0.04689   0.83334   0.25000   0.00000  Uiso   1.00
Cu478  Cu    0.28645   0.83333   0.25000   0.00000  Uiso   1.00
H479   H     0.25953   0.76870   0.03693   0.00000  Uiso   1.00
H480   H     0.05954   0.82846   0.45682   0.00000  Uiso   1.00
H481   H     0.11734   0.82307   0.11086   0.00000  Uiso   1.00
H482   H     0.21475   0.83655   0.38989   0.00000  Uiso   1.00
H483   H     0.30570   0.84661   0.10719   0.00000  Uiso   1.00
H484   H     0.02495   0.80411   0.39111   0.00000  Uiso   1.00
H485   H     0.32669   0.78098   0.47001   0.00000  Uiso   1.00
H486   H     0.33191   0.84356   0.02548   0.00000  Uiso   1.00
H487   H     0.27106   0.70366   0.22410   0.00000  Uiso   1.00
H488   H     0.06191   0.96304   0.27642   0.00000  Uiso   1.00
H489   H     0.27150   0.96198   0.22390   0.00000  Uiso   1.00
H490   H     0.06167   0.70472   0.27633   0.00000  Uiso   1.00
H491   H     0.10953   0.77667   0.28607   0.00000  Uiso   1.00
H492   H     0.22372   0.88994   0.21365   0.00000  Uiso   1.00
N493   N     0.11736   0.83334   0.24999   0.00000  Uiso   1.00
N494   N     0.21597   0.83332   0.25001   0.00000  Uiso   1.00
O495   O     0.03958   0.77322   0.25000   0.00000  Uiso   1.00
O496   O     0.29375   0.89345   0.25000   0.00000  Uiso   1.00
O497   O     0.29372   0.77321   0.25000   0.00000  Uiso   1.00
O498   O     0.03961   0.89346   0.24999   0.00000  Uiso   1.00
O499   O     0.01852   0.83334   0.31491   0.00000  Uiso   1.00
O500   O     0.31481   0.83332   0.18508   0.00000  Uiso   1.00
O501   O     0.27267   0.83333   0.31492   0.00000  Uiso   1.00
O502   O     0.06067   0.83333   0.18508   0.00000  Uiso   1.00
C503   C     0.16862   0.76289   0.08854   0.00000  Uiso   1.00
O504   O     0.19426   0.76271   0.11378   0.00000  Uiso   1.00
O505   O     0.12404   0.74112   0.10094   0.00000  Uiso   1.00
H506   H     0.11658   0.72735   0.13191   0.00000  Uiso   1.00
C507   C     0.13718   0.79257   0.40861   0.00000  Uiso   1.00
O508   O     0.12646   0.81136   0.37841   0.00000  Uiso   1.00
O509   O     0.14888   0.75095   0.40462   0.00000  Uiso   1.00
H510   H     0.14224   0.73840   0.37744   0.00000  Uiso   1.00
C511   C     0.19798   0.76368   0.29026   0.00000  Uiso   1.00
O512   O     0.18647   0.72968   0.27984   0.00000  Uiso   1.00
O513   O     0.22204   0.76660   0.32308   0.00000  Uiso   1.00
H514   H     0.23070   0.73866   0.33353   0.00000  Uiso   1.00
C515   C     0.13633   0.90044   0.20538   0.00000  Uiso   1.00
O516   O     0.14066   0.93535   0.21795   0.00000  Uiso   1.00
O517   O     0.12274   0.89467   0.16637   0.00000  Uiso   1.00
H518   H     0.11519   0.92153   0.15270   0.00000  Uiso   1.00
C519   C     0.66634   0.75410   0.25017   0.00000  Uiso   1.00
C520   C     0.33366   0.91257   0.24984   0.00000  Uiso   1.00
C521   C     0.51876   0.78511   0.04414   0.00000  Uiso   1.00
C522   C     0.46598   0.81213   0.45179   0.00000  Uiso   1.00
C523   C     0.56792   0.78181   0.02032   0.00000  Uiso   1.00
C524   C     0.41938   0.82377   0.47496   0.00000  Uiso   1.00
C525   C     0.63133   0.68771   0.23589   0.00000  Uiso   1.00
C526   C     0.36846   0.97898   0.26442   0.00000  Uiso   1.00
C527   C     0.63179   0.97837   0.23559   0.00000  Uiso   1.00
C528   C     0.36806   0.68832   0.26463   0.00000  Uiso   1.00
C529   C     0.33380   0.95723   0.24974   0.00000  Uiso   1.00
C530   C     0.66611   0.70946   0.25041   0.00000  Uiso   1.00
C531   C     0.51697   0.80108   0.26972   0.00000  Uiso   1.00
C532   C     0.48325   0.86504   0.22936   0.00000  Uiso   1.00
C533   C     0.46768   0.80171   0.26983   0.00000  Uiso   1.00
C534   C     0.53227   0.86494   0.23007   0.00000  Uiso   1.00
C535   C     0.63873   0.83131   0.33615   0.00000  Uiso   1.00
C536   C     0.36102   0.83388   0.16394   0.00000  Uiso   1.00
C537   C     0.62161   0.82173   0.38494   0.00000  Uiso   1.00
C538   C     0.37642   0.83291   0.11473   0.00000  Uiso   1.00
C539   C     0.63512   0.79295   0.45281   0.00000  Uiso   1.00
C540   C     0.35793   0.83737   0.04384   0.00000  Uiso   1.00
C541   C     0.65319   0.80645   0.40797   0.00000  Uiso   1.00
C542   C     0.34305   0.83936   0.09038   0.00000  Uiso   1.00
C543   C     0.57166   0.82283   0.40736   0.00000  Uiso   1.00
C544   C     0.42460   0.82409   0.09200   0.00000  Uiso   1.00
C545   C     0.55244   0.80750   0.45189   0.00000  Uiso   1.00
C546   C     0.43895   0.81706   0.04568   0.00000  Uiso   1.00
C547   C     0.58526   0.79436   0.47520   0.00000  Uiso   1.00
C548   C     0.40561   0.82665   0.02135   0.00000  Uiso   1.00
C549   C     0.50181   0.80770   0.47472   0.00000  Uiso   1.00
C550   C     0.48631   0.80343   0.02242   0.00000  Uiso   1.00
Cu551  Cu    0.38022   0.83334   0.25000   0.00000  Uiso   1.00
Cu552  Cu    0.61978   0.83333   0.25000   0.00000  Uiso   1.00
H553   H     0.59286   0.76870   0.03693   0.00000  Uiso   1.00
H554   H     0.39287   0.82846   0.45682   0.00000  Uiso   1.00
H555   H     0.45067   0.82307   0.11086   0.00000  Uiso   1.00
H556   H     0.54808   0.83655   0.38989   0.00000  Uiso   1.00
H557   H     0.63903   0.84661   0.10719   0.00000  Uiso   1.00
H558   H     0.35828   0.80411   0.39111   0.00000  Uiso   1.00
H559   H     0.66002   0.78098   0.47001   0.00000  Uiso   1.00
H560   H     0.66524   0.84356   0.02548   0.00000  Uiso   1.00
H561   H     0.60439   0.70366   0.22410   0.00000  Uiso   1.00
H562   H     0.39524   0.96304   0.27642   0.00000  Uiso   1.00
H563   H     0.60484   0.96198   0.22390   0.00000  Uiso   1.00
H564   H     0.39501   0.70472   0.27633   0.00000  Uiso   1.00
H565   H     0.44286   0.77667   0.28607   0.00000  Uiso   1.00
H566   H     0.55705   0.88994   0.21365   0.00000  Uiso   1.00
N567   N     0.45069   0.83334   0.24999   0.00000  Uiso   1.00
N568   N     0.54931   0.83332   0.25001   0.00000  Uiso   1.00
O569   O     0.37291   0.77322   0.25000   0.00000  Uiso   1.00
O570   O     0.62709   0.89345   0.25000   0.00000  Uiso   1.00
O571   O     0.62706   0.77321   0.25000   0.00000  Uiso   1.00
O572   O     0.37294   0.89346   0.24999   0.00000  Uiso   1.00
O573   O     0.35186   0.83334   0.31491   0.00000  Uiso   1.00
O574   O     0.64814   0.83332   0.18508   0.00000  Uiso   1.00
O575   O     0.60600   0.83333   0.31492   0.00000  Uiso   1.00
O576   O     0.39400   0.83333   0.18508   0.00000  Uiso   1.00
C577   C     0.50195   0.76289   0.08854   0.00000  Uiso   1.00
O578   O     0.52759   0.76271   0.11378   0.00000  Uiso   1.00
O579   O     0.45737   0.74112   0.10094   0.00000  Uiso   1.00
H580   H     0.44991   0.72735   0.13191   0.00000  Uiso   1.00
C581   C     0.47051   0.79257   0.40861   0.00000  Uiso   1.00
O582   O     0.45980   0.81136   0.37841   0.00000  Uiso   1.00
O583   O     0.48221   0.75095   0.40462   0.00000  Uiso   1.00
H584   H     0.47558   0.73840   0.37744   0.00000  Uiso   1.00
C585   C     0.53131   0.76368   0.29026   0.00000  Uiso   1.00
O586   O     0.51980   0.72968   0.27984   0.00000  Uiso   1.00
O587   O     0.55538   0.76660   0.32308   0.00000  Uiso   1.00
H588   H     0.56404   0.73866   0.33353   0.00000  Uiso   1.00
C589   C     0.46967   0.90044   0.20538   0.00000  Uiso   1.00
O590   O     0.47399   0.93535   0.21795   0.00000  Uiso   1.00
O591   O     0.45608   0.89467   0.16637   0.00000  Uiso   1.00
H592   H     0.44852   0.92153   0.15270   0.00000  Uiso   1.00
C593   C     0.99967   0.75410   0.25017   0.00000  Uiso   1.00
C594   C     0.66699   0.91257   0.24984   0.00000  Uiso   1.00
C595   C     0.85209   0.78511   0.04414   0.00000  Uiso   1.00
C596   C     0.79931   0.81213   0.45179   0.00000  Uiso   1.00
C597   C     0.90125   0.78181   0.02032   0.00000  Uiso   1.00
C598   C     0.75271   0.82377   0.47496   0.00000  Uiso   1.00
C599   C     0.96466   0.68771   0.23589   0.00000  Uiso   1.00
C600   C     0.70179   0.97898   0.26442   0.00000  Uiso   1.00
C601   C     0.96513   0.97837   0.23559   0.00000  Uiso   1.00
C602   C     0.70140   0.68832   0.26463   0.00000  Uiso   1.00
C603   C     0.66713   0.95723   0.24974   0.00000  Uiso   1.00
C604   C     0.99944   0.70946   0.25041   0.00000  Uiso   1.00
C605   C     0.85030   0.80108   0.26972   0.00000  Uiso   1.00
C606   C     0.81658   0.86504   0.22936   0.00000  Uiso   1.00
C607   C     0.80102   0.80171   0.26983   0.00000  Uiso   1.00
C608   C     0.86561   0.86494   0.23007   0.00000  Uiso   1.00
C609   C     0.97206   0.83131   0.33615   0.00000  Uiso   1.00
C610   C     0.69435   0.83388   0.16394   0.00000  Uiso   1.00
C611   C     0.95494   0.82173   0.38494   0.00000  Uiso   1.00
C612   C     0.70975   0.83291   0.11473   0.00000  Uiso   1.00
C613   C     0.96845   0.79295   0.45281   0.00000  Uiso   1.00
C614   C     0.69127   0.83737   0.04384   0.00000  Uiso   1.00
C615   C     0.98652   0.80645   0.40797   0.00000  Uiso   1.00
C616   C     0.67639   0.83936   0.09038   0.00000  Uiso   1.00
C617   C     0.90499   0.82283   0.40736   0.00000  Uiso   1.00
C618   C     0.75794   0.82409   0.09200   0.00000  Uiso   1.00
C619   C     0.88578   0.80750   0.45189   0.00000  Uiso   1.00
C620   C     0.77229   0.81706   0.04568   0.00000  Uiso   1.00
C621   C     0.91859   0.79436   0.47520   0.00000  Uiso   1.00
C622   C     0.73895   0.82665   0.02135   0.00000  Uiso   1.00
C623   C     0.83514   0.80770   0.47472   0.00000  Uiso   1.00
C624   C     0.81965   0.80343   0.02242   0.00000  Uiso   1.00
Cu625  Cu    0.71355   0.83334   0.25000   0.00000  Uiso   1.00
Cu626  Cu    0.95311   0.83333   0.25000   0.00000  Uiso   1.00
H627   H     0.92620   0.76870   0.03693   0.00000  Uiso   1.00
H628   H     0.72620   0.82846   0.45682   0.00000  Uiso   1.00
H629   H     0.78400   0.82307   0.11086   0.00000  Uiso   1.00
H630   H     0.88141   0.83655   0.38989   0.00000  Uiso   1.00
H631   H     0.97237   0.84661   0.10719   0.00000  Uiso   1.00
H632   H     0.69162   0.80411   0.39111   0.00000  Uiso   1.00
H633   H     0.99336   0.78098   0.47001   0.00000  Uiso   1.00
H634   H     0.99857   0.84356   0.02548   0.00000  Uiso   1.00
H635   H     0.93773   0.70366   0.22410   0.00000  Uiso   1.00
H636   H     0.72857   0.96304   0.27642   0.00000  Uiso   1.00
H637   H     0.93817   0.96198   0.22390   0.00000  Uiso   1.00
H638   H     0.72834   0.70472   0.27633   0.00000  Uiso   1.00
H639   H     0.77619   0.77667   0.28607   0.00000  Uiso   1.00
H640   H     0.89038   0.88994   0.21365   0.00000  Uiso   1.00
N641   N     0.78403   0.83334   0.24999   0.00000  Uiso   1.00
N642   N     0.88264   0.83332   0.25001   0.00000  Uiso   1.00
O643   O     0.70625   0.77322   0.25000   0.00000  Uiso   1.00
O644   O     0.96042   0.89345   0.25000   0.00000  Uiso   1.00
O645   O     0.96039   0.77321   0.25000   0.00000  Uiso   1.00
O646   O     0.70628   0.89346   0.24999   0.00000  Uiso   1.00
O647   O     0.68519   0.83334   0.31491   0.00000  Uiso   1.00
O648   O     0.98148   0.83332   0.18508   0.00000  Uiso   1.00
O649   O     0.93933   0.83333   0.31492   0.00000  Uiso   1.00
O650   O     0.72733   0.83333   0.18508   0.00000  Uiso   1.00
C651   C     0.83528   0.76289   0.08854   0.00000  Uiso   1.00
O652   O     0.86093   0.76271   0.11378   0.00000  Uiso   1.00
O653   O     0.79070   0.74112   0.10094   0.00000  Uiso   1.00
H654   H     0.78324   0.72735   0.13191   0.00000  Uiso   1.00
C655   C     0.80384   0.79257   0.40861   0.00000  Uiso   1.00
O656   O     0.79313   0.81136   0.37841   0.00000  Uiso   1.00
O657   O     0.81555   0.75095   0.40462   0.00000  Uiso   1.00
H658   H     0.80891   0.73840   0.37744   0.00000  Uiso   1.00
C659   C     0.86464   0.76368   0.29026   0.00000  Uiso   1.00
O660   O     0.85313   0.72968   0.27984   0.00000  Uiso   1.00
O661   O     0.88871   0.76660   0.32308   0.00000  Uiso   1.00
H662   H     0.89737   0.73866   0.33353   0.00000  Uiso   1.00
C663   C     0.80300   0.90044   0.20538   0.00000  Uiso   1.00
O664   O     0.80732   0.93535   0.21795   0.00000  Uiso   1.00
O665   O     0.78941   0.89467   0.16637   0.00000  Uiso   1.00
H666   H     0.78186   0.92153   0.15270   0.00000  Uiso   1.00
C667   C     0.33300   0.08744   0.75017   0.00000  Uiso   1.00
C668   C     0.00033   0.24590   0.74984   0.00000  Uiso   1.00
C669   C     0.18542   0.11844   0.54414   0.00000  Uiso   1.00
C670   C     0.13264   0.14546   0.95179   0.00000  Uiso   1.00
C671   C     0.23459   0.11514   0.52032   0.00000  Uiso   1.00
C672   C     0.08604   0.15710   0.97496   0.00000  Uiso   1.00
C673   C     0.29800   0.02105   0.73589   0.00000  Uiso   1.00
C674   C     0.03512   0.31231   0.76442   0.00000  Uiso   1.00
C675   C     0.29846   0.31170   0.73559   0.00000  Uiso   1.00
C676   C     0.03473   0.02166   0.76463   0.00000  Uiso   1.00
C677   C     0.00046   0.29056   0.74974   0.00000  Uiso   1.00
C678   C     0.33278   0.04279   0.75041   0.00000  Uiso   1.00
C679   C     0.18363   0.13441   0.76972   0.00000  Uiso   1.00
C680   C     0.14992   0.19837   0.72936   0.00000  Uiso   1.00
C681   C     0.13435   0.13504   0.76983   0.00000  Uiso   1.00
C682   C     0.19894   0.19827   0.73007   0.00000  Uiso   1.00
C683   C     0.30539   0.16464   0.83615   0.00000  Uiso   1.00
C684   C     0.02769   0.16721   0.66394   0.00000  Uiso   1.00
C685   C     0.28827   0.15506   0.88494   0.00000  Uiso   1.00
C686   C     0.04309   0.16625   0.61473   0.00000  Uiso   1.00
C687   C     0.30178   0.12628   0.95281   0.00000  Uiso   1.00
C688   C     0.02460   0.17071   0.54384   0.00000  Uiso   1.00
C689   C     0.31985   0.13978   0.90797   0.00000  Uiso   1.00
C690   C     0.00972   0.17270   0.59038   0.00000  Uiso   1.00
C691   C     0.23833   0.15616   0.90736   0.00000  Uiso   1.00
C692   C     0.09127   0.15743   0.59200   0.00000  Uiso   1.00
C693   C     0.21911   0.14083   0.95189   0.00000  Uiso   1.00
C694   C     0.10562   0.15040   0.54568   0.00000  Uiso   1.00
C695   C     0.25193   0.12769   0.97520   0.00000  Uiso   1.00
C696   C     0.07228   0.15998   0.52135   0.00000  Uiso   1.00
C697   C     0.16847   0.14104   0.97472   0.00000  Uiso   1.00
C698   C     0.15298   0.13676   0.52242   0.00000  Uiso   1.00
Cu699  Cu    0.04689   0.16667   0.75000   0.00000  Uiso   1.00
Cu700  Cu    0.28645   0.16666   0.75000   0.00000  Uiso   1.00
H701   H     0.25953   0.10204   0.53693   0.00000  Uiso   1.00
H702   H     0.05954   0.16180   0.95682   0.00000  Uiso   1.00
H703   H     0.11734   0.15640   0.61086   0.00000  Uiso   1.00
H704   H     0.21475   0.16989   0.88989   0.00000  Uiso   1.00
H705   H     0.30570   0.17994   0.60719   0.00000  Uiso   1.00
H706   H     0.02495   0.13745   0.89111   0.00000  Uiso   1.00
H707   H     0.32669   0.11432   0.97001   0.00000  Uiso   1.00
H708   H     0.33191   0.17689   0.52548   0.00000  Uiso   1.00
H709   H     0.27106   0.03699   0.72410   0.00000  Uiso   1.00
H710   H     0.06191   0.29637   0.77642   0.00000  Uiso   1.00
H711   H     0.27150   0.29531   0.72390   0.00000  Uiso   1.00
H712   H     0.06167   0.03805   0.77633   0.00000  Uiso   1.00
H713   H     0.10953   0.11001   0.78607   0.00000  Uiso   1.00
H714   H     0.22372   0.22327   0.71365   0.00000  Uiso   1.00
N715   N     0.11736   0.16668   0.74999   0.00000  Uiso   1.00
N716   N     0.21597   0.16666   0.75001   0.00000  Uiso   1.00
O717   O     0.03958   0.10655   0.75000   0.00000  Uiso   1.00
O718   O     0.29375   0.22678   0.75000   0.00000  Uiso   1.00
O719   O     0.29372   0.10654   0.75000   0.00000  Uiso   1.00
O720   O     0.03961   0.22679   0.74999   0.00000  Uiso   1.00
O721   O     0.01852   0.16668   0.81491   0.00000  Uiso   1.00
O722   O     0.31481   0.16666   0.68508   0.00000  Uiso   1.00
O723   O     0.27267   0.16667   0.81492   0.00000  Uiso   1.00
O724   O     0.06067   0.16667   0.68508   0.00000  Uiso   1.00
C725   C     0.16862   0.09623   0.58854   0.00000  Uiso   1.00
O726   O     0.19426   0.09605   0.61378   0.00000  Uiso   1.00
O727   O     0.12404   0.07445   0.60094   0.00000  Uiso   1.00
H728   H     0.11658   0.06068   0.63191   0.00000  Uiso   1.00
C729   C     0.13718   0.12591   0.90861   0.00000  Uiso   1.00
O730   O     0.12646   0.14469   0.87841   0.00000  Uiso   1.00
O731   O     0.14888   0.08428   0.90462   0.00000  Uiso   1.00
H732   H     0.14224   0.07173   0.87744   0.00000  Uiso   1.00
C733   C     0.19798   0.09701   0.79026   0.00000  Uiso   1.00
O734   O     0.18647   0.06301   0.77984   0.00000  Uiso   1.00
O735   O     0.22204   0.09993   0.82308   0.00000  Uiso   1.00
H736   H     0.23070   0.07199   0.83353   0.00000  Uiso   1.00
C737   C     0.13633   0.23377   0.70538   0.00000  Uiso   1.00
O738   O     0.14066   0.26868   0.71795   0.00000  Uiso   1.00
O739   O     0.12274   0.22801   0.66637   0.00000  Uiso   1.00
H740   H     0.11519   0.25486   0.65270   0.00000  Uiso   1.00
C741   C     0.66634   0.08744   0.75017   0.00000  Uiso   1.00
C742   C     0.33366   0.24590   0.74984   0.00000  Uiso   1.00
C743   C     0.51876   0.11844   0.54414   0.00000  Uiso   1.00
C744   C     0.46598   0.14546   0.95179   0.00000  Uiso   1.00
C745   C     0.56792   0.11514   0.52032   0.00000  Uiso   1.00
C746   C     0.41938   0.15710   0.97496   0.00000  Uiso   1.00
C747   C     0.63133   0.02105   0.73589   0.00000  Uiso   1.00
C748   C     0.36846   0.31231   0.76442   0.00000  Uiso   1.00
C749   C     0.63179   0.31170   0.73559   0.00000  Uiso   1.00
C750   C     0.36806   0.02166   0.76463   0.00000  Uiso   1.00
C751   C     0.33380   0.29056   0.74974   0.00000  Uiso   1.00
C752   C     0.66611   0.04279   0.75041   0.00000  Uiso   1.00
C753   C     0.51697   0.13441   0.76972   0.00000  Uiso   1.00
C754   C     0.48325   0.19837   0.72936   0.00000  Uiso   1.00
C755   C     0.46768   0.13504   0.76983   0.00000  Uiso   1.00
C756   C     0.53227   0.19827   0.73007   0.00000  Uiso   1.00
C757   C     0.63873   0.16464   0.83615   0.00000  Uiso   1.00
C758   C     0.36102   0.16721   0.66394   0.00000  Uiso   1.00
C759   C     0.62161   0.15506   0.88494   0.00000  Uiso   1.00
C760   C     0.37642   0.16625   0.61473   0.00000  Uiso   1.00
C761   C     0.63512   0.12628   0.95281   0.00000  Uiso   1.00
C762   C     0.35793   0.17071   0.54384   0.00000  Uiso   1.00
C763   C     0.65319   0.13978   0.90797   0.00000  Uiso   1.00
C764   C     0.34305   0.17270   0.59038   0.00000  Uiso   1.00
C765   C     0.57166   0.15616   0.90736   0.00000  Uiso   1.00
C766   C     0.42460   0.15743   0.59200   0.00000  Uiso   1.00
C767   C     0.55244   0.14083   0.95189   0.00000  Uiso   1.00
C768   C     0.43895   0.15040   0.54568   0.00000  Uiso   1.00
C769   C     0.58526   0.12769   0.97520   0.00000  Uiso   1.00
C770   C     0.40561   0.15998   0.52135   0.00000  Uiso   1.00
C771   C     0.50181   0.14104   0.97472   0.00000  Uiso   1.00
C772   C     0.48631   0.13676   0.52242   0.00000  Uiso   1.00
Cu773  Cu    0.38022   0.16667   0.75000   0.00000  Uiso   1.00
Cu774  Cu    0.61978   0.16666   0.75000   0.00000  Uiso   1.00
H775   H     0.59286   0.10204   0.53693   0.00000  Uiso   1.00
H776   H     0.39287   0.16180   0.95682   0.00000  Uiso   1.00
H777   H     0.45067   0.15640   0.61086   0.00000  Uiso   1.00
H778   H     0.54808   0.16989   0.88989   0.00000  Uiso   1.00
H779   H     0.63903   0.17994   0.60719   0.00000  Uiso   1.00
H780   H     0.35828   0.13745   0.89111   0.00000  Uiso   1.00
H781   H     0.66002   0.11432   0.97001   0.00000  Uiso   1.00
H782   H     0.66524   0.17689   0.52548   0.00000  Uiso   1.00
H783   H     0.60439   0.03699   0.72410   0.00000  Uiso   1.00
H784   H     0.39524   0.29637   0.77642   0.00000  Uiso   1.00
H785   H     0.60484   0.29531   0.72390   0.00000  Uiso   1.00
H786   H     0.39501   0.03805   0.77633   0.00000  Uiso   1.00
H787   H     0.44286   0.11001   0.78607   0.00000  Uiso   1.00
H788   H     0.55705   0.22327   0.71365   0.00000  Uiso   1.00
N789   N     0.45069   0.16668   0.74999   0.00000  Uiso   1.00
N790   N     0.54931   0.16666   0.75001   0.00000  Uiso   1.00
O791   O     0.37291   0.10655   0.75000   0.00000  Uiso   1.00
O792   O     0.62709   0.22678   0.75000   0.00000  Uiso   1.00
O793   O     0.62706   0.10654   0.75000   0.00000  Uiso   1.00
O794   O     0.37294   0.22679   0.74999   0.00000  Uiso   1.00
O795   O     0.35186   0.16668   0.81491   0.00000  Uiso   1.00
O796   O     0.64814   0.16666   0.68508   0.00000  Uiso   1.00
O797   O     0.60600   0.16667   0.81492   0.00000  Uiso   1.00
O798   O     0.39400   0.16667   0.68508   0.00000  Uiso   1.00
C799   C     0.50195   0.09623   0.58854   0.00000  Uiso   1.00
O800   O     0.52759   0.09605   0.61378   0.00000  Uiso   1.00
O801   O     0.45737   0.07445   0.60094   0.00000  Uiso   1.00
H802   H     0.44991   0.06068   0.63191   0.00000  Uiso   1.00
C803   C     0.47051   0.12591   0.90861   0.00000  Uiso   1.00
O804   O     0.45980   0.14469   0.87841   0.00000  Uiso   1.00
O805   O     0.48221   0.08428   0.90462   0.00000  Uiso   1.00
H806   H     0.47558   0.07173   0.87744   0.00000  Uiso   1.00
C807   C     0.53131   0.09701   0.79026   0.00000  Uiso   1.00
O808   O     0.51980   0.06301   0.77984   0.00000  Uiso   1.00
O809   O     0.55538   0.09993   0.82308   0.00000  Uiso   1.00
H810   H     0.56404   0.07199   0.83353   0.00000  Uiso   1.00
C811   C     0.46967   0.23377   0.70538   0.00000  Uiso   1.00
O812   O     0.47399   0.26868   0.71795   0.00000  Uiso   1.00
O813   O     0.45608   0.22801   0.66637   0.00000  Uiso   1.00
H814   H     0.44852   0.25486   0.65270   0.00000  Uiso   1.00
C815   C     0.99967   0.08744   0.75017   0.00000  Uiso   1.00
C816   C     0.66699   0.24590   0.74984   0.00000  Uiso   1.00
C817   C     0.85209   0.11844   0.54414   0.00000  Uiso   1.00
C818   C     0.79931   0.14546   0.95179   0.00000  Uiso   1.00
C819   C     0.90125   0.11514   0.52032   0.00000  Uiso   1.00
C820   C     0.75271   0.15710   0.97496   0.00000  Uiso   1.00
C821   C     0.96466   0.02105   0.73589   0.00000  Uiso   1.00
C822   C     0.70179   0.31231   0.76442   0.00000  Uiso   1.00
C823   C     0.96513   0.31170   0.73559   0.00000  Uiso   1.00
C824   C     0.70140   0.02166   0.76463   0.00000  Uiso   1.00
C825   C     0.66713   0.29056   0.74974   0.00000  Uiso   1.00
C826   C     0.99944   0.04279   0.75041   0.00000  Uiso   1.00
C827   C     0.85030   0.13441   0.76972   0.00000  Uiso   1.00
C828   C     0.81658   0.19837   0.72936   0.00000  Uiso   1.00
C829   C     0.80102   0.13504   0.76983   0.00000  Uiso   1.00
C830   C     0.86561   0.19827   0.73007   0.00000  Uiso   1.00
C831   C     0.97206   0.16464   0.83615   0.00000  Uiso   1.00
C832   C     0.69435   0.16721   0.66394   0.00000  Uiso   1.00
C833   C     0.95494   0.15506   0.88494   0.00000  Uiso   1.00
C834   C     0.70975   0.16625   0.61473   0.00000  Uiso   1.00
C835   C     0.96845   0.12628   0.95281   0.00000  Uiso   1.00
C836   C     0.69127   0.17071   0.54384   0.00000  Uiso   1.00
C837   C     0.98652   0.13978   0.90797   0.00000  Uiso   1.00
C838   C     0.67639   0.17270   0.59038   0.00000  Uiso   1.00
C839   C     0.90499   0.15616   0.90736   0.00000  Uiso   1.00
C840   C     0.75794   0.15743   0.59200   0.00000  Uiso   1.00
C841   C     0.88578   0.14083   0.95189   0.00000  Uiso   1.00
C842   C     0.77229   0.15040   0.54568   0.00000  Uiso   1.00
C843   C     0.91859   0.12769   0.97520   0.00000  Uiso   1.00
C844   C     0.73895   0.15998   0.52135   0.00000  Uiso   1.00
C845   C     0.83514   0.14104   0.97472   0.00000  Uiso   1.00
C846   C     0.81965   0.13676   0.52242   0.00000  Uiso   1.00
Cu847  Cu    0.71355   0.16667   0.75000   0.00000  Uiso   1.00
Cu848  Cu    0.95311   0.16666   0.75000   0.00000  Uiso   1.00
H849   H     0.92620   0.10204   0.53693   0.00000  Uiso   1.00
H850   H     0.72620   0.16180   0.95682   0.00000  Uiso   1.00
H851   H     0.78400   0.15640   0.61086   0.00000  Uiso   1.00
H852   H     0.88141   0.16989   0.88989   0.00000  Uiso   1.00
H853   H     0.97237   0.17994   0.60719   0.00000  Uiso   1.00
H854   H     0.69162   0.13745   0.89111   0.00000  Uiso   1.00
H855   H     0.99336   0.11432   0.97001   0.00000  Uiso   1.00
H856   H     0.99857   0.17689   0.52548   0.00000  Uiso   1.00
H857   H     0.93773   0.03699   0.72410   0.00000  Uiso   1.00
H858   H     0.72857   0.29637   0.77642   0.00000  Uiso   1.00
H859   H     0.93817   0.29531   0.72390   0.00000  Uiso   1.00
H860   H     0.72834   0.03805   0.77633   0.00000  Uiso   1.00
H861   H     0.77619   0.11001   0.78607   0.00000  Uiso   1.00
H862   H     0.89038   0.22327   0.71365   0.00000  Uiso   1.00
N863   N     0.78403   0.16668   0.74999   0.00000  Uiso   1.00
N864   N     0.88264   0.16666   0.75001   0.00000  Uiso   1.00
O865   O     0.70625   0.10655   0.75000   0.00000  Uiso   1.00
O866   O     0.96042   0.22678   0.75000   0.00000  Uiso   1.00
O867   O     0.96039   0.10654   0.75000   0.00000  Uiso   1.00
O868   O     0.70628   0.22679   0.74999   0.00000  Uiso   1.00
O869   O     0.68519   0.16668   0.81491   0.00000  Uiso   1.00
O870   O     0.98148   0.16666   0.68508   0.00000  Uiso   1.00
O871   O     0.93933   0.16667   0.81492   0.00000  Uiso   1.00
O872   O     0.72733   0.16667   0.68508   0.00000  Uiso   1.00
C873   C     0.83528   0.09623   0.58854   0.00000  Uiso   1.00
O874   O     0.86093   0.09605   0.61378   0.00000  Uiso   1.00
O875   O     0.79070   0.07445   0.60094   0.00000  Uiso   1.00
H876   H     0.78324   0.06068   0.63191   0.00000  Uiso   1.00
C877   C     0.80384   0.12591   0.90861   0.00000  Uiso   1.00
O878   O     0.79313   0.14469   0.87841   0.00000  Uiso   1.00
O879   O     0.81555   0.08428   0.90462   0.00000  Uiso   1.00
H880   H     0.80891   0.07173   0.87744   0.00000  Uiso   1.00
C881   C     0.86464   0.09701   0.79026   0.00000  Uiso   1.00
O882   O     0.85313   0.06301   0.77984   0.00000  Uiso   1.00
O883   O     0.88871   0.09993   0.82308   0.00000  Uiso   1.00
H884   H     0.89737   0.07199   0.83353   0.00000  Uiso   1.00
C885   C     0.80300   0.23377   0.70538   0.00000  Uiso   1.00
O886   O     0.80732   0.26868   0.71795   0.00000  Uiso   1.00
O887   O     0.78941   0.22801   0.66637   0.00000  Uiso   1.00
H888   H     0.78186   0.25486   0.65270   0.00000  Uiso   1.00
C889   C     0.33300   0.42077   0.75017   0.00000  Uiso   1.00
C890   C     0.00033   0.57924   0.74984   0.00000  Uiso   1.00
C891   C     0.18542   0.45177   0.54414   0.00000  Uiso   1.00
C892   C     0.13264   0.47879   0.95179   0.00000  Uiso   1.00
C893   C     0.23459   0.44847   0.52032   0.00000  Uiso   1.00
C894   C     0.08604   0.49044   0.97496   0.00000  Uiso   1.00
C895   C     0.29800   0.35438   0.73589   0.00000  Uiso   1.00
C896   C     0.03512   0.64564   0.76442   0.00000  Uiso   1.00
C897   C     0.29846   0.64504   0.73559   0.00000  Uiso   1.00
C898   C     0.03473   0.35499   0.76463   0.00000  Uiso   1.00
C899   C     0.00046   0.62390   0.74974   0.00000  Uiso   1.00
C900   C     0.33278   0.37612   0.75041   0.00000  Uiso   1.00
C901   C     0.18363   0.46774   0.76972   0.00000  Uiso   1.00
C902   C     0.14992   0.53171   0.72936   0.00000  Uiso   1.00
C903   C     0.13435   0.46837   0.76983   0.00000  Uiso   1.00
C904   C     0.19894   0.53160   0.73007   0.00000  Uiso   1.00
C905   C     0.30539   0.49798   0.83615   0.00000  Uiso   1.00
C906   C     0.02769   0.50055   0.66394   0.00000  Uiso   1.00
C907   C     0.28827   0.48839   0.88494   0.00000  Uiso   1.00
C908   C     0.04309   0.49958   0.61473   0.00000  Uiso   1.00
C909   C     0.30178   0.45962   0.95281   0.00000  Uiso   1.00
C910   C     0.02460   0.50404   0.54384   0.00000  Uiso   1.00
C911   C     0.31985   0.47312   0.90797   0.00000  Uiso   1.00
C912   C     0.00972   0.50603   0.59038   0.00000  Uiso   1.00
C913   C     0.23833   0.48950   0.90736   0.00000  Uiso   1.00
C914   C     0.09127   0.49076   0.59200   0.00000  Uiso   1.00
C915   C     0.21911   0.47416   0.95189   0.00000  Uiso   1.00
C916   C     0.10562   0.48373   0.54568   0.00000  Uiso   1.00
C917   C     0.25193   0.46102   0.97520   0.00000  Uiso   1.00
C918   C     0.07228   0.49332   0.52135   0.00000  Uiso   1.00
C919   C     0.16847   0.47437   0.97472   0.00000  Uiso   1.00
C920   C     0.15298   0.47010   0.52242   0.00000  Uiso   1.00
Cu921  Cu    0.04689   0.50001   0.75000   0.00000  Uiso   1.00
Cu922  Cu    0.28645   0.49999   0.75000   0.00000  Uiso   1.00
H923   H     0.25953   0.43537   0.53693   0.00000  Uiso   1.00
H924   H     0.05954   0.49513   0.95682   0.00000  Uiso   1.00
H925   H     0.11734   0.48974   0.61086   0.00000  Uiso   1.00
H926   H     0.21475   0.50322   0.88989   0.00000  Uiso   1.00
H927   H     0.30570   0.51327   0.60719   0.00000  Uiso   1.00
H928   H     0.02495   0.47078   0.89111   0.00000  Uiso   1.00
H929   H     0.32669   0.44765   0.97001   0.00000  Uiso   1.00
H930   H     0.33191   0.51022   0.52548   0.00000  Uiso   1.00
H931   H     0.27106   0.37032   0.72410   0.00000  Uiso   1.00
H932   H     0.06191   0.62970   0.77642   0.00000  Uiso   1.00
H933   H     0.27150   0.62865   0.72390   0.00000  Uiso   1.00
H934   H     0.06167   0.37138   0.77633   0.00000  Uiso   1.00
H935   H     0.10953   0.44334   0.78607   0.00000  Uiso   1.00
H936   H     0.22372   0.55660   0.71365   0.00000  Uiso   1.00
N937   N     0.11736   0.50001   0.74999   0.00000  Uiso   1.00
N938   N     0.21597   0.49999   0.75001   0.00000  Uiso   1.00
O939   O     0.03958   0.43989   0.75000   0.00000  Uiso   1.00
O940   O     0.29375   0.56011   0.75000   0.00000  Uiso   1.00
O941   O     0.29372   0.43988   0.75000   0.00000  Uiso   1.00
O942   O     0.03961   0.56012   0.74999   0.00000  Uiso   1.00
O943   O     0.01852   0.50001   0.81491   0.00000  Uiso   1.00
O944   O     0.31481   0.49999   0.68508   0.00000  Uiso   1.00
O945   O     0.27267   0.50000   0.81492   0.00000  Uiso   1.00
O946   O     0.06067   0.50000   0.68508   0.00000  Uiso   1.00
C947   C     0.16862   0.42956   0.58854   0.00000  Uiso   1.00
O948   O     0.19426   0.42938   0.61378   0.00000  Uiso   1.00
O949   O     0.12404   0.40778   0.60094   0.00000  Uiso   1.00
H950   H     0.11658   0.39402   0.63191   0.00000  Uiso   1.00
C951   C     0.13718   0.45924   0.90861   0.00000  Uiso   1.00
O952   O     0.12646   0.47802   0.87841   0.00000  Uiso   1.00
O953   O     0.14888   0.41762   0.90462   0.00000  Uiso   1.00
H954   H     0.14224   0.40507   0.87744   0.00000  Uiso   1.00
C955   C     0.19798   0.43034   0.79026   0.00000  Uiso   1.00
O956   O     0.18647   0.39634   0.77984   0.00000  Uiso   1.00
O957   O     0.22204   0.43327   0.82308   0.00000  Uiso   1.00
H958   H     0.23070   0.40533   0.83353   0.00000  Uiso   1.00
C959   C     0.13633   0.56710   0.70538   0.00000  Uiso   1.00
O960   O     0.14066   0.60202   0.71795   0.00000  Uiso   1.00
O961   O     0.12274   0.56134   0.66637   0.00000  Uiso   1.00
H962   H     0.11519   0.58820   0.65270   0.00000  Uiso   1.00
C963   C     0.66634   0.42077   0.75017   0.00000  Uiso   1.00
C964   C     0.33366   0.57924   0.74984   0.00000  Uiso   1.00
C965   C     0.51876   0.45177   0.54414   0.00000  Uiso   1.00
C966   C     0.46598   0.47879   0.95179   0.00000  Uiso   1.00
C967   C     0.56792   0.44847   0.52032   0.00000  Uiso   1.00
C968   C     0.41938   0.49044   0.97496   0.00000  Uiso   1.00
C969   C     0.63133   0.35438   0.73589   0.00000  Uiso   1.00
C970   C     0.36846   0.64564   0.76442   0.00000  Uiso   1.00
C971   C     0.63179   0.64504   0.73559   0.00000  Uiso   1.00
C972   C     0.36806   0.35499   0.76463   0.00000  Uiso   1.00
C973   C     0.33380   0.62390   0.74974   0.00000  Uiso   1.00
C974   C     0.66611   0.37612   0.75041   0.00000  Uiso   1.00
C975   C     0.51697   0.46774   0.76972   0.00000  Uiso   1.00
C976   C     0.48325   0.53171   0.72936   0.00000  Uiso   1.00
C977   C     0.46768   0.46837   0.76983   0.00000  Uiso   1.00
C978   C     0.53227   0.53160   0.73007   0.00000  Uiso   1.00
C979   C     0.63873   0.49798   0.83615   0.00000  Uiso   1.00
C980   C     0.36102   0.50055   0.66394   0.00000  Uiso   1.00
C981   C     0.62161   0.48839   0.88494   0.00000  Uiso   1.00
C982   C     0.37642   0.49958   0.61473   0.00000  Uiso   1.00
C983   C     0.63512   0.45962   0.95281   0.00000  Uiso   1.00
C984   C     0.35793   0.50404   0.54384   0.00000  Uiso   1.00
C985   C     0.65319   0.47312   0.90797   0.00000  Uiso   1.00
C986   C     0.34305   0.50603   0.59038   0.00000  Uiso   1.00
C987   C     0.57166   0.48950   0.90736   0.00000  Uiso   1.00
C988   C     0.42460   0.49076   0.59200   0.00000  Uiso   1.00
C989   C     0.55244   0.47416   0.95189   0.00000  Uiso   1.00
C990   C     0.43895   0.48373   0.54568   0.00000  Uiso   1.00
C991   C     0.58526   0.46102   0.97520   0.00000  Uiso   1.00
C992   C     0.40561   0.49332   0.52135   0.00000  Uiso   1.00
C993   C     0.50181   0.47437   0.97472   0.00000  Uiso   1.00
C994   C     0.48631   0.47010   0.52242   0.00000  Uiso   1.00
Cu995  Cu    0.38022   0.50001   0.75000   0.00000  Uiso   1.00
Cu996  Cu    0.61978   0.49999   0.75000   0.00000  Uiso   1.00
H997   H     0.59286   0.43537   0.53693   0.00000  Uiso   1.00
H998   H     0.39287   0.49513   0.95682   0.00000  Uiso   1.00
H999   H     0.45067   0.48974   0.61086   0.00000  Uiso   1.00
H1000  H     0.54808   0.50322   0.88989   0.00000  Uiso   1.00
H1001  H     0.63903   0.51327   0.60719   0.00000  Uiso   1.00
H1002  H     0.35828   0.47078   0.89111   0.00000  Uiso   1.00
H1003  H     0.66002   0.44765   0.97001   0.00000  Uiso   1.00
H1004  H     0.66524   0.51022   0.52548   0.00000  Uiso   1.00
H1005  H     0.60439   0.37032   0.72410   0.00000  Uiso   1.00
H1006  H     0.39524   0.62970   0.77642   0.00000  Uiso   1.00
H1007  H     0.60484   0.62865   0.72390   0.00000  Uiso   1.00
H1008  H     0.39501   0.37138   0.77633   0.00000  Uiso   1.00
H1009  H     0.44286   0.44334   0.78607   0.00000  Uiso   1.00
H1010  H     0.55705   0.55660   0.71365   0.00000  Uiso   1.00
N1011  N     0.45069   0.50001   0.74999   0.00000  Uiso   1.00
N1012  N     0.54931   0.49999   0.75001   0.00000  Uiso   1.00
O1013  O     0.37291   0.43989   0.75000   0.00000  Uiso   1.00
O1014  O     0.62709   0.56011   0.75000   0.00000  Uiso   1.00
O1015  O     0.62706   0.43988   0.75000   0.00000  Uiso   1.00
O1016  O     0.37294   0.56012   0.74999   0.00000  Uiso   1.00
O1017  O     0.35186   0.50001   0.81491   0.00000  Uiso   1.00
O1018  O     0.64814   0.49999   0.68508   0.00000  Uiso   1.00
O1019  O     0.60600   0.50000   0.81492   0.00000  Uiso   1.00
O1020  O     0.39400   0.50000   0.68508   0.00000  Uiso   1.00
C1021  C     0.50195   0.42956   0.58854   0.00000  Uiso   1.00
O1022  O     0.52759   0.42938   0.61378   0.00000  Uiso   1.00
O1023  O     0.45737   0.40778   0.60094   0.00000  Uiso   1.00
H1024  H     0.44991   0.39402   0.63191   0.00000  Uiso   1.00
C1025  C     0.47051   0.45924   0.90861   0.00000  Uiso   1.00
O1026  O     0.45980   0.47802   0.87841   0.00000  Uiso   1.00
O1027  O     0.48221   0.41762   0.90462   0.00000  Uiso   1.00
H1028  H     0.47558   0.40507   0.87744   0.00000  Uiso   1.00
C1029  C     0.53131   0.43034   0.79026   0.00000  Uiso   1.00
O1030  O     0.51980   0.39634   0.77984   0.00000  Uiso   1.00
O1031  O     0.55538   0.43327   0.82308   0.00000  Uiso   1.00
H1032  H     0.56404   0.40533   0.83353   0.00000  Uiso   1.00
C1033  C     0.46967   0.56710   0.70538   0.00000  Uiso   1.00
O1034  O     0.47399   0.60202   0.71795   0.00000  Uiso   1.00
O1035  O     0.45608   0.56134   0.66637   0.00000  Uiso   1.00
H1036  H     0.44852   0.58820   0.65270   0.00000  Uiso   1.00
C1037  C     0.99967   0.42077   0.75017   0.00000  Uiso   1.00
C1038  C     0.66699   0.57924   0.74984   0.00000  Uiso   1.00
C1039  C     0.85209   0.45177   0.54414   0.00000  Uiso   1.00
C1040  C     0.79931   0.47879   0.95179   0.00000  Uiso   1.00
C1041  C     0.90125   0.44847   0.52032   0.00000  Uiso   1.00
C1042  C     0.75271   0.49044   0.97496   0.00000  Uiso   1.00
C1043  C     0.96466   0.35438   0.73589   0.00000  Uiso   1.00
C1044  C     0.70179   0.64564   0.76442   0.00000  Uiso   1.00
C1045  C     0.96513   0.64504   0.73559   0.00000  Uiso   1.00
C1046  C     0.70140   0.35499   0.76463   0.00000  Uiso   1.00
C1047  C     0.66713   0.62390   0.74974   0.00000  Uiso   1.00
C1048  C     0.99944   0.37612   0.75041   0.00000  Uiso   1.00
C1049  C     0.85030   0.46774   0.76972   0.00000  Uiso   1.00
C1050  C     0.81658   0.53171   0.72936   0.00000  Uiso   1.00
C1051  C     0.80102   0.46837   0.76983   0.00000  Uiso   1.00
C1052  C     0.86561   0.53160   0.73007   0.00000  Uiso   1.00
C1053  C     0.97206   0.49798   0.83615   0.00000  Uiso   1.00
C1054  C     0.69435   0.50055   0.66394   0.00000  Uiso   1.00
C1055  C     0.95494   0.48839   0.88494   0.00000  Uiso   1.00
C1056  C     0.70975   0.49958   0.61473   0.00000  Uiso   1.00
C1057  C     0.96845   0.45962   0.95281   0.00000  Uiso   1.00
C1058  C     0.69127   0.50404   0.54384   0.00000  Uiso   1.00
C1059  C     0.98652   0.47312   0.90797   0.00000  Uiso   1.00
C1060  C     0.67639   0.50603   0.59038   0.00000  Uiso   1.00
C1061  C     0.90499   0.48950   0.90736   0.00000  Uiso   1.00
C1062  C     0.75794   0.49076   0.59200   0.00000  Uiso   1.00
C1063  C     0.88578   0.47416   0.95189   0.00000  Uiso   1.00
C1064  C     0.77229   0.48373   0.54568   0.00000  Uiso   1.00
C1065  C     0.91859   0.46102   0.97520   0.00000  Uiso   1.00
C1066  C     0.73895   0.49332   0.52135   0.00000  Uiso   1.00
C1067  C     0.83514   0.47437   0.97472   0.00000  Uiso   1.00
C1068  C     0.81965   0.47010   0.52242   0.00000  Uiso   1.00
Cu1069 Cu    0.71355   0.50001   0.75000   0.00000  Uiso   1.00
Cu1070 Cu    0.95311   0.49999   0.75000   0.00000  Uiso   1.00
H1071  H     0.92620   0.43537   0.53693   0.00000  Uiso   1.00
H1072  H     0.72620   0.49513   0.95682   0.00000  Uiso   1.00
H1073  H     0.78400   0.48974   0.61086   0.00000  Uiso   1.00
H1074  H     0.88141   0.50322   0.88989   0.00000  Uiso   1.00
H1075  H     0.97237   0.51327   0.60719   0.00000  Uiso   1.00
H1076  H     0.69162   0.47078   0.89111   0.00000  Uiso   1.00
H1077  H     0.99336   0.44765   0.97001   0.00000  Uiso   1.00
H1078  H     0.99857   0.51022   0.52548   0.00000  Uiso   1.00
H1079  H     0.93773   0.37032   0.72410   0.00000  Uiso   1.00
H1080  H     0.72857   0.62970   0.77642   0.00000  Uiso   1.00
H1081  H     0.93817   0.62865   0.72390   0.00000  Uiso   1.00
H1082  H     0.72834   0.37138   0.77633   0.00000  Uiso   1.00
H1083  H     0.77619   0.44334   0.78607   0.00000  Uiso   1.00
H1084  H     0.89038   0.55660   0.71365   0.00000  Uiso   1.00
N1085  N     0.78403   0.50001   0.74999   0.00000  Uiso   1.00
N1086  N     0.88264   0.49999   0.75001   0.00000  Uiso   1.00
O1087  O     0.70625   0.43989   0.75000   0.00000  Uiso   1.00
O1088  O     0.96042   0.56011   0.75000   0.00000  Uiso   1.00
O1089  O     0.96039   0.43988   0.75000   0.00000  Uiso   1.00
O1090  O     0.70628   0.56012   0.74999   0.00000  Uiso   1.00
O1091  O     0.68519   0.50001   0.81491   0.00000  Uiso   1.00
O1092  O     0.98148   0.49999   0.68508   0.00000  Uiso   1.00
O1093  O     0.93933   0.50000   0.81492   0.00000  Uiso   1.00
O1094  O     0.72733   0.50000   0.68508   0.00000  Uiso   1.00
C1095  C     0.83528   0.42956   0.58854   0.00000  Uiso   1.00
O1096  O     0.86093   0.42938   0.61378   0.00000  Uiso   1.00
O1097  O     0.79070   0.40778   0.60094   0.00000  Uiso   1.00
H1098  H     0.78324   0.39402   0.63191   0.00000  Uiso   1.00
C1099  C     0.80384   0.45924   0.90861   0.00000  Uiso   1.00
O1100  O     0.79313   0.47802   0.87841   0.00000  Uiso   1.00
O1101  O     0.81555   0.41762   0.90462   0.00000  Uiso   1.00
H1102  H     0.80891   0.40507   0.87744   0.00000  Uiso   1.00
C1103  C     0.86464   0.43034   0.79026   0.00000  Uiso   1.00
O1104  O     0.85313   0.39634   0.77984   0.00000  Uiso   1.00
O1105  O     0.88871   0.43327   0.82308   0.00000  Uiso   1.00
H1106  H     0.89737   0.40533   0.83353   0.00000  Uiso   1.00
C1107  C     0.80300   0.56710   0.70538   0.00000  Uiso   1.00
O1108  O     0.80732   0.60202   0.71795   0.00000  Uiso   1.00
O1109  O     0.78941   0.56134   0.66637   0.00000  Uiso   1.00
H1110  H     0.78186   0.58820   0.65270   0.00000  Uiso   1.00
C1111  C     0.33300   0.75410   0.75017   0.00000  Uiso   1.00
C1112  C     0.00033   0.91257   0.74984   0.00000  Uiso   1.00
C1113  C     0.18542   0.78511   0.54414   0.00000  Uiso   1.00
C1114  C     0.13264   0.81213   0.95179   0.00000  Uiso   1.00
C1115  C     0.23459   0.78181   0.52032   0.00000  Uiso   1.00
C1116  C     0.08604   0.82377   0.97496   0.00000  Uiso   1.00
C1117  C     0.29800   0.68771   0.73589   0.00000  Uiso   1.00
C1118  C     0.03512   0.97898   0.76442   0.00000  Uiso   1.00
C1119  C     0.29846   0.97837   0.73559   0.00000  Uiso   1.00
C1120  C     0.03473   0.68832   0.76463   0.00000  Uiso   1.00
C1121  C     0.00046   0.95723   0.74974   0.00000  Uiso   1.00
C1122  C     0.33278   0.70946   0.75041   0.00000  Uiso   1.00
C1123  C     0.18363   0.80108   0.76972   0.00000  Uiso   1.00
C1124  C     0.14992   0.86504   0.72936   0.00000  Uiso   1.00
C1125  C     0.13435   0.80171   0.76983   0.00000  Uiso   1.00
C1126  C     0.19894   0.86494   0.73007   0.00000  Uiso   1.00
C1127  C     0.30539   0.83131   0.83615   0.00000  Uiso   1.00
C1128  C     0.02769   0.83388   0.66394   0.00000  Uiso   1.00
C1129  C     0.28827   0.82173   0.88494   0.00000  Uiso   1.00
C1130  C     0.04309   0.83291   0.61473   0.00000  Uiso   1.00
C1131  C     0.30178   0.79295   0.95281   0.00000  Uiso   1.00
C1132  C     0.02460   0.83737   0.54384   0.00000  Uiso   1.00
C1133  C     0.31985   0.80645   0.90797   0.00000  Uiso   1.00
C1134  C     0.00972   0.83936   0.59038   0.00000  Uiso   1.00
C1135  C     0.23833   0.82283   0.90736   0.00000  Uiso   1.00
C1136  C     0.09127   0.82409   0.59200   0.00000  Uiso   1.00
C1137  C     0.21911   0.80750   0.95189   0.00000  Uiso   1.00
C1138  C     0.10562   0.81706   0.54568   0.00000  Uiso   1.00
C1139  C     0.25193   0.79436   0.97520   0.00000  Uiso   1.00
C1140  C     0.07228   0.82665   0.52135   0.00000  Uiso   1.00
C1141  C     0.16847   0.80770   0.97472   0.00000  Uiso   1.00
C1142  C     0.15298   0.80343   0.52242   0.00000  Uiso   1.00
Cu1143 Cu    0.04689   0.83334   0.75000   0.00000  Uiso   1.00
Cu1144 Cu    0.28645   0.83333   0.75000   0.00000  Uiso   1.00
H1145  H     0.25953   0.76870   0.53693   0.00000  Uiso   1.00
H1146  H     0.05954   0.82846   0.95682   0.00000  Uiso   1.00
H1147  H     0.11734   0.82307   0.61086   0.00000  Uiso   1.00
H1148  H     0.21475   0.83655   0.88989   0.00000  Uiso   1.00
H1149  H     0.30570   0.84661   0.60719   0.00000  Uiso   1.00
H1150  H     0.02495   0.80411   0.89111   0.00000  Uiso   1.00
H1151  H     0.32669   0.78098   0.97001   0.00000  Uiso   1.00
H1152  H     0.33191   0.84356   0.52548   0.00000  Uiso   1.00
H1153  H     0.27106   0.70366   0.72410   0.00000  Uiso   1.00
H1154  H     0.06191   0.96304   0.77642   0.00000  Uiso   1.00
H1155  H     0.27150   0.96198   0.72390   0.00000  Uiso   1.00
H1156  H     0.06167   0.70472   0.77633   0.00000  Uiso   1.00
H1157  H     0.10953   0.77667   0.78607   0.00000  Uiso   1.00
H1158  H     0.22372   0.88994   0.71365   0.00000  Uiso   1.00
N1159  N     0.11736   0.83334   0.74999   0.00000  Uiso   1.00
N1160  N     0.21597   0.83332   0.75001   0.00000  Uiso   1.00
O1161  O     0.03958   0.77322   0.75000   0.00000  Uiso   1.00
O1162  O     0.29375   0.89345   0.75000   0.00000  Uiso   1.00
O1163  O     0.29372   0.77321   0.75000   0.00000  Uiso   1.00
O1164  O     0.03961   0.89346   0.74999   0.00000  Uiso   1.00
O1165  O     0.01852   0.83334   0.81491   0.00000  Uiso   1.00
O1166  O     0.31481   0.83332   0.68508   0.00000  Uiso   1.00
O1167  O     0.27267   0.83333   0.81492   0.00000  Uiso   1.00
O1168  O     0.06067   0.83333   0.68508   0.00000  Uiso   1.00
C1169  C     0.16862   0.76289   0.58854   0.00000  Uiso   1.00
O1170  O     0.19426   0.76271   0.61378   0.00000  Uiso   1.00
O1171  O     0.12404   0.74112   0.60094   0.00000  Uiso   1.00
H1172  H     0.11658   0.72735   0.63191   0.00000  Uiso   1.00
C1173  C     0.13718   0.79257   0.90861   0.00000  Uiso   1.00
O1174  O     0.12646   0.81136   0.87841   0.00000  Uiso   1.00
O1175  O     0.14888   0.75095   0.90462   0.00000  Uiso   1.00
H1176  H     0.14224   0.73840   0.87744   0.00000  Uiso   1.00
C1177  C     0.19798   0.76368   0.79026   0.00000  Uiso   1.00
O1178  O     0.18647   0.72968   0.77984   0.00000  Uiso   1.00
O1179  O     0.22204   0.76660   0.82308   0.00000  Uiso   1.00
H1180  H     0.23070   0.73866   0.83353   0.00000  Uiso   1.00
C1181  C     0.13633   0.90044   0.70538   0.00000  Uiso   1.00
O1182  O     0.14066   0.93535   0.71795   0.00000  Uiso   1.00
O1183  O     0.12274   0.89467   0.66637   0.00000  Uiso   1.00
H1184  H     0.11519   0.92153   0.65270   0.00000  Uiso   1.00
C1185  C     0.66634   0.75410   0.75017   0.00000  Uiso   1.00
C1186  C     0.33366   0.91257   0.74984   0.00000  Uiso   1.00
C1187  C     0.51876   0.78511   0.54414   0.00000  Uiso   1.00
C1188  C     0.46598   0.81213   0.95179   0.00000  Uiso   1.00
C1189  C     0.56792   0.78181   0.52032   0.00000  Uiso   1.00
C1190  C     0.41938   0.82377   0.97496   0.00000  Uiso   1.00
C1191  C     0.63133   0.68771   0.73589   0.00000  Uiso   1.00
C1192  C     0.36846   0.97898   0.76442   0.00000  Uiso   1.00
C1193  C     0.63179   0.97837   0.73559   0.00000  Uiso   1.00
C1194  C     0.36806   0.68832   0.76463   0.00000  Uiso   1.00
C1195  C     0.33380   0.95723   0.74974   0.00000  Uiso   1.00
C1196  C     0.66611   0.70946   0.75041   0.00000  Uiso   1.00
C1197  C     0.51697   0.80108   0.76972   0.00000  Uiso   1.00
C1198  C     0.48325   0.86504   0.72936   0.00000  Uiso   1.00
C1199  C     0.46768   0.80171   0.76983   0.00000  Uiso   1.00
C1200  C     0.53227   0.86494   0.73007   0.00000  Uiso   1.00
C1201  C     0.63873   0.83131   0.83615   0.00000  Uiso   1.00
C1202  C     0.36102   0.83388   0.66394   0.00000  Uiso   1.00
C1203  C     0.62161   0.82173   0.88494   0.00000  Uiso   1.00
C1204  C     0.37642   0.83291   0.61473   0.00000  Uiso   1.00
C1205  C     0.63512   0.79295   0.95281   0.00000  Uiso   1.00
C1206  C     0.35793   0.83737   0.54384   0.00000  Uiso   1.00
C1207  C     0.65319   0.80645   0.90797   0.00000  Uiso   1.00
C1208  C     0.34305   0.83936   0.59038   0.00000  Uiso   1.00
C1209  C     0.57166   0.82283   0.90736   0.00000  Uiso   1.00
C1210  C     0.42460   0.82409   0.59200   0.00000  Uiso   1.00
C1211  C     0.55244   0.80750   0.95189   0.00000  Uiso   1.00
C1212  C     0.43895   0.81706   0.54568   0.00000  Uiso   1.00
C1213  C     0.58526   0.79436   0.97520   0.00000  Uiso   1.00
C1214  C     0.40561   0.82665   0.52135   0.00000  Uiso   1.00
C1215  C     0.50181   0.80770   0.97472   0.00000  Uiso   1.00
C1216  C     0.48631   0.80343   0.52242   0.00000  Uiso   1.00
Cu1217 Cu    0.38022   0.83334   0.75000   0.00000  Uiso   1.00
Cu1218 Cu    0.61978   0.83333   0.75000   0.00000  Uiso   1.00
H1219  H     0.59286   0.76870   0.53693   0.00000  Uiso   1.00
H1220  H     0.39287   0.82846   0.95682   0.00000  Uiso   1.00
H1221  H     0.45067   0.82307   0.61086   0.00000  Uiso   1.00
H1222  H     0.54808   0.83655   0.88989   0.00000  Uiso   1.00
H1223  H     0.63903   0.84661   0.60719   0.00000  Uiso   1.00
H1224  H     0.35828   0.80411   0.89111   0.00000  Uiso   1.00
H1225  H     0.66002   0.78098   0.97001   0.00000  Uiso   1.00
H1226  H     0.66524   0.84356   0.52548   0.00000  Uiso   1.00
H1227  H     0.60439   0.70366   0.72410   0.00000  Uiso   1.00
H1228  H     0.39524   0.96304   0.77642   0.00000  Uiso   1.00
H1229  H     0.60484   0.96198   0.72390   0.00000  Uiso   1.00
H1230  H     0.39501   0.70472   0.77633   0.00000  Uiso   1.00
H1231  H     0.44286   0.77667   0.78607   0.00000  Uiso   1.00
H1232  H     0.55705   0.88994   0.71365   0.00000  Uiso   1.00
N1233  N     0.45069   0.83334   0.74999   0.00000  Uiso   1.00
N1234  N     0.54931   0.83332   0.75001   0.00000  Uiso   1.00
O1235  O     0.37291   0.77322   0.75000   0.00000  Uiso   1.00
O1236  O     0.62709   0.89345   0.75000   0.00000  Uiso   1.00
O1237  O     0.62706   0.77321   0.75000   0.00000  Uiso   1.00
O1238  O     0.37294   0.89346   0.74999   0.00000  Uiso   1.00
O1239  O     0.35186   0.83334   0.81491   0.00000  Uiso   1.00
O1240  O     0.64814   0.83332   0.68508   0.00000  Uiso   1.00
O1241  O     0.60600   0.83333   0.81492   0.00000  Uiso   1.00
O1242  O     0.39400   0.83333   0.68508   0.00000  Uiso   1.00
C1243  C     0.50195   0.76289   0.58854   0.00000  Uiso   1.00
O1244  O     0.52759   0.76271   0.61378   0.00000  Uiso   1.00
O1245  O     0.45737   0.74112   0.60094   0.00000  Uiso   1.00
H1246  H     0.44991   0.72735   0.63191   0.00000  Uiso   1.00
C1247  C     0.47051   0.79257   0.90861   0.00000  Uiso   1.00
O1248  O     0.45980   0.81136   0.87841   0.00000  Uiso   1.00
O1249  O     0.48221   0.75095   0.90462   0.00000  Uiso   1.00
H1250  H     0.47558   0.73840   0.87744   0.00000  Uiso   1.00
C1251  C     0.53131   0.76368   0.79026   0.00000  Uiso   1.00
O1252  O     0.51980   0.72968   0.77984   0.00000  Uiso   1.00
O1253  O     0.55538   0.76660   0.82308   0.00000  Uiso   1.00
H1254  H     0.56404   0.73866   0.83353   0.00000  Uiso   1.00
C1255  C     0.46967   0.90044   0.70538   0.00000  Uiso   1.00
O1256  O     0.47399   0.93535   0.71795   0.00000  Uiso   1.00
O1257  O     0.45608   0.89467   0.66637   0.00000  Uiso   1.00
H1258  H     0.44852   0.92153   0.65270   0.00000  Uiso   1.00
C1259  C     0.99967   0.75410   0.75017   0.00000  Uiso   1.00
C1260  C     0.66699   0.91257   0.74984   0.00000  Uiso   1.00
C1261  C     0.85209   0.78511   0.54414   0.00000  Uiso   1.00
C1262  C     0.79931   0.81213   0.95179   0.00000  Uiso   1.00
C1263  C     0.90125   0.78181   0.52032   0.00000  Uiso   1.00
C1264  C     0.75271   0.82377   0.97496   0.00000  Uiso   1.00
C1265  C     0.96466   0.68771   0.73589   0.00000  Uiso   1.00
C1266  C     0.70179   0.97898   0.76442   0.00000  Uiso   1.00
C1267  C     0.96513   0.97837   0.73559   0.00000  Uiso   1.00
C1268  C     0.70140   0.68832   0.76463   0.00000  Uiso   1.00
C1269  C     0.66713   0.95723   0.74974   0.00000  Uiso   1.00
C1270  C     0.99944   0.70946   0.75041   0.00000  Uiso   1.00
C1271  C     0.85030   0.80108   0.76972   0.00000  Uiso   1.00
C1272  C     0.81658   0.86504   0.72936   0.00000  Uiso   1.00
C1273  C     0.80102   0.80171   0.76983   0.00000  Uiso   1.00
C1274  C     0.86561   0.86494   0.73007   0.00000  Uiso   1.00
C1275  C     0.97206   0.83131   0.83615   0.00000  Uiso   1.00
C1276  C     0.69435   0.83388   0.66394   0.00000  Uiso   1.00
C1277  C     0.95494   0.82173   0.88494   0.00000  Uiso   1.00
C1278  C     0.70975   0.83291   0.61473   0.00000  Uiso   1.00
C1279  C     0.96845   0.79295   0.95281   0.00000  Uiso   1.00
C1280  C     0.69127   0.83737   0.54384   0.00000  Uiso   1.00
C1281  C     0.98652   0.80645   0.90797   0.00000  Uiso   1.00
C1282  C     0.67639   0.83936   0.59038   0.00000  Uiso   1.00
C1283  C     0.90499   0.82283   0.90736   0.00000  Uiso   1.00
C1284  C     0.75794   0.82409   0.59200   0.00000  Uiso   1.00
C1285  C     0.88578   0.80750   0.95189   0.00000  Uiso   1.00
C1286  C     0.77229   0.81706   0.54568   0.00000  Uiso   1.00
C1287  C     0.91859   0.79436   0.97520   0.00000  Uiso   1.00
C1288  C     0.73895   0.82665   0.52135   0.00000  Uiso   1.00
C1289  C     0.83514   0.80770   0.97472   0.00000  Uiso   1.00
C1290  C     0.81965   0.80343   0.52242   0.00000  Uiso   1.00
Cu1291 Cu    0.71355   0.83334   0.75000   0.00000  Uiso   1.00
Cu1292 Cu    0.95311   0.83333   0.75000   0.00000  Uiso   1.00
H1293  H     0.92620   0.76870   0.53693   0.00000  Uiso   1.00
H1294  H     0.72620   0.82846   0.95682   0.00000  Uiso   1.00
H1295  H     0.78400   0.82307   0.61086   0.00000  Uiso   1.00
H1296  H     0.88141   0.83655   0.88989   0.00000  Uiso   1.00
H1297  H     0.97237   0.84661   0.60719   0.00000  Uiso   1.00
H1298  H     0.69162   0.80411   0.89111   0.00000  Uiso   1.00
H1299  H     0.99336   0.78098   0.97001   0.00000  Uiso   1.00
H1300  H     0.99857   0.84356   0.52548   0.00000  Uiso   1.00
H1301  H     0.93773   0.70366   0.72410   0.00000  Uiso   1.00
H1302  H     0.72857   0.96304   0.77642   0.00000  Uiso   1.00
H1303  H     0.93817   0.96198   0.72390   0.00000  Uiso   1.00
H1304  H     0.72834   0.70472   0.77633   0.00000  Uiso   1.00
H1305  H     0.77619   0.77667   0.78607   0.00000  Uiso   1.00
H1306  H     0.89038   0.88994   0.71365   0.00000  Uiso   1.00
N1307  N     0.78403   0.83334   0.74999   0.00000  Uiso   1.00
N1308  N     0.88264   0.83332   0.75001   0.00000  Uiso   1.00
O1309  O     0.70625   0.77322   0.75000   0.00000  Uiso   1.00
O1310  O     0.96042   0.89345   0.75000   0.00000  Uiso   1.00
O1311  O     0.96039   0.77321   0.75000   0.00000  Uiso   1.00
O1312  O     0.70628   0.89346   0.74999   0.00000  Uiso   1.00
O1313  O     0.68519   0.83334   0.81491   0.00000  Uiso   1.00
O1314  O     0.98148   0.83332   0.68508   0.00000  Uiso   1.00
O1315  O     0.93933   0.83333   0.81492   0.00000  Uiso   1.00
O1316  O     0.72733   0.83333   0.68508   0.00000  Uiso   1.00
C1317  C     0.83528   0.76289   0.58854   0.00000  Uiso   1.00
O1318  O     0.86093   0.76271   0.61378   0.00000  Uiso   1.00
O1319  O     0.79070   0.74112   0.60094   0.00000  Uiso   1.00
H1320  H     0.78324   0.72735   0.63191   0.00000  Uiso   1.00
C1321  C     0.80384   0.79257   0.90861   0.00000  Uiso   1.00
O1322  O     0.79313   0.81136   0.87841   0.00000  Uiso   1.00
O1323  O     0.81555   0.75095   0.90462   0.00000  Uiso   1.00
H1324  H     0.80891   0.73840   0.87744   0.00000  Uiso   1.00
C1325  C     0.86464   0.76368   0.79026   0.00000  Uiso   1.00
O1326  O     0.85313   0.72968   0.77984   0.00000  Uiso   1.00
O1327  O     0.88871   0.76660   0.82308   0.00000  Uiso   1.00
H1328  H     0.89737   0.73866   0.83353   0.00000  Uiso   1.00
C1329  C     0.80300   0.90044   0.70538   0.00000  Uiso   1.00
O1330  O     0.80732   0.93535   0.71795   0.00000  Uiso   1.00
O1331  O     0.78941   0.89467   0.66637   0.00000  Uiso   1.00
H1332  H     0.78186   0.92153   0.65270   0.00000  Uiso   1.00
loop_
_geom_bond_atom_site_label_1
_geom_bond_atom_site_label_2
_geom_bond_distance
_geom_bond_site_symmetry_2
_ccdc_geom_bond_type
C1     O53     1.300   .     A
C1     C12     1.447   .     S
C1     O125    1.293   .     S
C2     C11     1.448   .     S
C2     O54     1.300   .     A
C2     O200    1.293   1_455 S
C3     C5      1.401   .     A
C3     C32     1.430   .     A
C3     C59     1.486   .     S
C4     C63     1.473   .     S
C4     C6      1.390   .     A
C4     C31     1.421   .     A
C5     H35     1.085   .     S
C5     C695    1.394   1_554 S
C6     H36     1.083   .     S
C6     C696    1.388   .     S
C7     H43     1.083   .     S
C7     C12     1.398   .     A
C7     C453    1.384   1_545 S
C8     H44     1.082   .     S
C8     C11     1.398   .     A
C8     C232    1.384   .     S
C9     H45     1.083   .     S
C9     C229    1.384   .     S
C9     C85     1.403   .     S
C10    H46     1.083   .     S
C10    C452    1.384   1_545 S
C10    C160    1.402   1_455 S
C11    C157    1.403   1_455 S
C12    C84     1.402   .     S
C13    C15     1.417   .     A
C13    C67     1.477   .     S
C13    N50     1.391   .     A
C14    C71     1.473   .     S
C14    N49     1.388   .     A
C14    C16     1.417   .     A
C15    H47     1.083   .     S
C15    N49     1.354   .     A
C16    H48     1.083   .     S
C16    N50     1.356   .     A
C17    C19     1.477   .     S
C17    O57     1.299   .     A
C17    O129    1.308   .     S
C18    O58     1.302   .     A
C18    C20     1.467   .     S
C18    O204    1.301   1_455 S
C19    C23     1.400   .     A
C19    C25     1.405   .     A
C20    C24     1.400   .     A
C20    C26     1.400   .     A
C21    C23     1.396   .     A
C21    C29     1.403   .     A
C21    H41     1.083   .     S
C22    C24     1.389   .     A
C22    C30     1.402   .     A
C22    H190    1.084   1_455 S
C23    H114    1.083   .     S
C24    H187    1.083   1_455 S
C25    H38     1.080   .     S
C25    C27     1.408   .     A
C26    H37     1.078   .     S
C26    C28     1.405   .     A
C27    C29     1.412   .     A
C27    C31     1.424   .     A
C28    C32     1.429   .     A
C28    C30     1.418   .     A
C29    C671    1.394   .     S
C30    C672    1.388   1_554 S
C31    C698    1.423   .     S
C32    C697    1.423   1_554 S
Cu33   O55     1.947   .     S
Cu33   O58     1.942   .     S
Cu33   N49     2.027   .     S
Cu33   O54     1.964   .     S
Cu33   O51     1.956   .     S
Cu33   Cu182   2.698   1_455 S
Cu34   O56     1.947   .     S
Cu34   O57     1.942   .     S
Cu34   N50     2.027   .     S
Cu34   O52     1.956   .     S
Cu34   O53     1.964   .     S
Cu34   Cu107   2.698   .     S
H39    C98     1.083   .     S
H40    C171    1.083   1_455 S
H42    C96     1.084   .     S
O51    C149    1.293   1_455 S
O52    C76     1.293   .     S
O55    C165    1.308   1_455 S
O56    C92     1.301   .     S
C59    O60     1.224   .     D
C59    O61     1.399   .     S
O61    H62     1.014   .     S
C63    O65     1.397   .     S
C63    O64     1.223   .     D
O65    H66     1.013   .     S
C67    O68     1.223   .     D
C67    O69     1.394   .     S
O69    H70     1.014   .     S
C71    O73     1.395   .     S
C71    O72     1.223   .     D
O73    H74     1.014   .     S
C75    O127    1.300   .     A
C75    C86     1.447   .     S
C75    O199    1.293   .     S
C76    C85     1.448   .     S
C76    O128    1.300   .     A
C77    C79     1.401   .     A
C77    C106    1.430   .     A
C77    C133    1.486   .     S
C78    C137    1.473   .     S
C78    C80     1.390   .     A
C78    C105    1.421   .     A
C79    H109    1.085   .     S
C79    C769    1.394   1_554 S
C80    H110    1.083   .     S
C80    C770    1.388   .     S
C81    H117    1.083   .     S
C81    C86     1.398   .     A
C81    C527    1.384   1_545 S
C82    H118    1.082   .     S
C82    C85     1.398   .     A
C82    C306    1.384   .     S
C83    H119    1.083   .     S
C83    C303    1.384   .     S
C83    C159    1.403   .     S
C84    H120    1.083   .     S
C84    C526    1.384   1_545 S
C86    C158    1.402   .     S
C87    C89     1.417   .     A
C87    C141    1.477   .     S
C87    N124    1.391   .     A
C88    C145    1.473   .     S
C88    N123    1.388   .     A
C88    C90     1.417   .     A
C89    H121    1.083   .     S
C89    N123    1.354   .     A
C90    H122    1.083   .     S
C90    N124    1.356   .     A
C91    C93     1.477   .     S
C91    O131    1.299   .     A
C91    O203    1.308   .     S
C92    O132    1.302   .     A
C92    C94     1.467   .     S
C93    C97     1.400   .     A
C93    C99     1.405   .     A
C94    C98     1.400   .     A
C94    C100    1.400   .     A
C95    C97     1.396   .     A
C95    C103    1.403   .     A
C95    H115    1.083   .     S
C96    C98     1.389   .     A
C96    C104    1.402   .     A
C97    H188    1.083   .     S
C99    H112    1.080   .     S
C99    C101    1.408   .     A
C100   H111    1.078   .     S
C100   C102    1.405   .     A
C101   C103    1.412   .     A
C101   C105    1.424   .     A
C102   C106    1.429   .     A
C102   C104    1.418   .     A
C103   C745    1.394   .     S
C104   C746    1.388   1_554 S
C105   C772    1.423   .     S
C106   C771    1.423   1_554 S
Cu107  O129    1.947   .     S
Cu107  O132    1.942   .     S
Cu107  N123    2.027   .     S
Cu107  O128    1.964   .     S
Cu107  O125    1.956   .     S
Cu108  O130    1.947   .     S
Cu108  O131    1.942   .     S
Cu108  N124    2.027   .     S
Cu108  O126    1.956   .     S
Cu108  O127    1.964   .     S
Cu108  Cu181   2.698   .     S
H113   C172    1.083   .     S
H116   C170    1.084   .     S
O126   C150    1.293   .     S
O130   C166    1.301   .     S
C133   O134    1.224   .     D
C133   O135    1.399   .     S
O135   H136    1.014   .     S
C137   O139    1.397   .     S
C137   O138    1.223   .     D
O139   H140    1.013   .     S
C141   O142    1.223   .     D
C141   O143    1.394   .     S
O143   H144    1.014   .     S
C145   O147    1.395   .     S
C145   O146    1.223   .     D
O147   H148    1.014   .     S
C149   O201    1.300   .     A
C149   C160    1.447   .     S
C149   O51     1.293   1_655 S
C150   C159    1.448   .     S
C150   O202    1.300   .     A
C151   C153    1.401   .     A
C151   C180    1.430   .     A
C151   C207    1.486   .     S
C152   C211    1.473   .     S
C152   C154    1.390   .     A
C152   C179    1.421   .     A
C153   H183    1.085   .     S
C153   C843    1.394   1_554 S
C154   H184    1.083   .     S
C154   C844    1.388   .     S
C155   H191    1.083   .     S
C155   C160    1.398   .     A
C155   C601    1.384   1_545 S
C156   H192    1.082   .     S
C156   C159    1.398   .     A
C156   C380    1.384   .     S
C157   H193    1.083   .     S
C157   C377    1.384   .     S
C157   C11     1.403   1_655 S
C158   H194    1.083   .     S
C158   C600    1.384   1_545 S
C160   C10     1.402   1_655 S
C161   C163    1.417   .     A
C161   C215    1.477   .     S
C161   N198    1.391   .     A
C162   C219    1.473   .     S
C162   N197    1.388   .     A
C162   C164    1.417   .     A
C163   H195    1.083   .     S
C163   N197    1.354   .     A
C164   H196    1.083   .     S
C164   N198    1.356   .     A
C165   C167    1.477   .     S
C165   O205    1.299   .     A
C165   O55     1.308   1_655 S
C166   O206    1.302   .     A
C166   C168    1.467   .     S
C167   C171    1.400   .     A
C167   C173    1.405   .     A
C168   C172    1.400   .     A
C168   C174    1.400   .     A
C169   C171    1.396   .     A
C169   C177    1.403   .     A
C169   H189    1.083   .     S
C170   C172    1.389   .     A
C170   C178    1.402   .     A
C171   H40     1.083   1_655 S
C173   H186    1.080   .     S
C173   C175    1.408   .     A
C174   H185    1.078   .     S
C174   C176    1.405   .     A
C175   C177    1.412   .     A
C175   C179    1.424   .     A
C176   C180    1.429   .     A
C176   C178    1.418   .     A
C177   C819    1.394   .     S
C178   C820    1.388   1_554 S
C179   C846    1.423   .     S
C180   C845    1.423   1_554 S
Cu181  O203    1.947   .     S
Cu181  O206    1.942   .     S
Cu181  N197    2.027   .     S
Cu181  O202    1.964   .     S
Cu181  O199    1.956   .     S
Cu182  O204    1.947   .     S
Cu182  O205    1.942   .     S
Cu182  N198    2.027   .     S
Cu182  O200    1.956   .     S
Cu182  O201    1.964   .     S
Cu182  Cu33    2.698   1_655 S
H187   C24     1.083   1_655 S
H190   C22     1.084   1_655 S
O200   C2      1.293   1_655 S
O204   C18     1.301   1_655 S
C207   O208    1.224   .     D
C207   O209    1.399   .     S
O209   H210    1.014   .     S
C211   O213    1.397   .     S
C211   O212    1.223   .     D
O213   H214    1.013   .     S
C215   O216    1.223   .     D
C215   O217    1.394   .     S
O217   H218    1.014   .     S
C219   O221    1.395   .     S
C219   O220    1.223   .     D
O221   H222    1.014   .     S
C223   O275    1.300   .     A
C223   C234    1.447   .     S
C223   O347    1.293   .     S
C224   C233    1.448   .     S
C224   O276    1.300   .     A
C224   O422    1.293   1_455 S
C225   C227    1.401   .     A
C225   C254    1.430   .     A
C225   C281    1.486   .     S
C226   C285    1.473   .     S
C226   C228    1.390   .     A
C226   C253    1.421   .     A
C227   H257    1.085   .     S
C227   C917    1.394   1_554 S
C228   H258    1.083   .     S
C228   C918    1.388   .     S
C229   H265    1.083   .     S
C229   C234    1.398   .     A
C230   H266    1.082   .     S
C230   C233    1.398   .     A
C230   C454    1.384   .     S
C231   H267    1.083   .     S
C231   C451    1.384   .     S
C231   C307    1.403   .     S
C232   H268    1.083   .     S
C232   C382    1.402   1_455 S
C233   C379    1.403   1_455 S
C234   C306    1.402   .     S
C235   C237    1.417   .     A
C235   C289    1.477   .     S
C235   N272    1.391   .     A
C236   C293    1.473   .     S
C236   N271    1.388   .     A
C236   C238    1.417   .     A
C237   H269    1.083   .     S
C237   N271    1.354   .     A
C238   H270    1.083   .     S
C238   N272    1.356   .     A
C239   C241    1.477   .     S
C239   O279    1.299   .     A
C239   O351    1.308   .     S
C240   O280    1.302   .     A
C240   C242    1.467   .     S
C240   O426    1.301   1_455 S
C241   C245    1.400   .     A
C241   C247    1.405   .     A
C242   C246    1.400   .     A
C242   C248    1.400   .     A
C243   C245    1.396   .     A
C243   C251    1.403   .     A
C243   H263    1.083   .     S
C244   C246    1.389   .     A
C244   C252    1.402   .     A
C244   H412    1.084   1_455 S
C245   H336    1.083   .     S
C246   H409    1.083   1_455 S
C247   H260    1.080   .     S
C247   C249    1.408   .     A
C248   H259    1.078   .     S
C248   C250    1.405   .     A
C249   C251    1.412   .     A
C249   C253    1.424   .     A
C250   C254    1.429   .     A
C250   C252    1.418   .     A
C251   C893    1.394   .     S
C252   C894    1.388   1_554 S
C253   C920    1.423   .     S
C254   C919    1.423   1_554 S
Cu255  O277    1.947   .     S
Cu255  O280    1.942   .     S
Cu255  N271    2.027   .     S
Cu255  O276    1.964   .     S
Cu255  O273    1.956   .     S
Cu255  Cu404   2.698   1_455 S
Cu256  O278    1.947   .     S
Cu256  O279    1.942   .     S
Cu256  N272    2.027   .     S
Cu256  O274    1.956   .     S
Cu256  O275    1.964   .     S
Cu256  Cu329   2.698   .     S
H261   C320    1.083   .     S
H262   C393    1.083   1_455 S
H264   C318    1.084   .     S
O273   C371    1.293   1_455 S
O274   C298    1.293   .     S
O277   C387    1.308   1_455 S
O278   C314    1.301   .     S
C281   O282    1.224   .     D
C281   O283    1.399   .     S
O283   H284    1.014   .     S
C285   O287    1.397   .     S
C285   O286    1.223   .     D
O287   H288    1.013   .     S
C289   O290    1.223   .     D
C289   O291    1.394   .     S
O291   H292    1.014   .     S
C293   O295    1.395   .     S
C293   O294    1.223   .     D
O295   H296    1.014   .     S
C297   O349    1.300   .     A
C297   C308    1.447   .     S
C297   O421    1.293   .     S
C298   C307    1.448   .     S
C298   O350    1.300   .     A
C299   C301    1.401   .     A
C299   C328    1.430   .     A
C299   C355    1.486   .     S
C300   C359    1.473   .     S
C300   C302    1.390   .     A
C300   C327    1.421   .     A
C301   H331    1.085   .     S
C301   C991    1.394   1_554 S
C302   H332    1.083   .     S
C302   C992    1.388   .     S
C303   H339    1.083   .     S
C303   C308    1.398   .     A
C304   H340    1.082   .     S
C304   C307    1.398   .     A
C304   C528    1.384   .     S
C305   H341    1.083   .     S
C305   C525    1.384   .     S
C305   C381    1.403   .     S
C306   H342    1.083   .     S
C308   C380    1.402   .     S
C309   C311    1.417   .     A
C309   C363    1.477   .     S
C309   N346    1.391   .     A
C310   C367    1.473   .     S
C310   N345    1.388   .     A
C310   C312    1.417   .     A
C311   H343    1.083   .     S
C311   N345    1.354   .     A
C312   H344    1.083   .     S
C312   N346    1.356   .     A
C313   C315    1.477   .     S
C313   O353    1.299   .     A
C313   O425    1.308   .     S
C314   O354    1.302   .     A
C314   C316    1.467   .     S
C315   C319    1.400   .     A
C315   C321    1.405   .     A
C316   C320    1.400   .     A
C316   C322    1.400   .     A
C317   C319    1.396   .     A
C317   C325    1.403   .     A
C317   H337    1.083   .     S
C318   C320    1.389   .     A
C318   C326    1.402   .     A
C319   H410    1.083   .     S
C321   H334    1.080   .     S
C321   C323    1.408   .     A
C322   H333    1.078   .     S
C322   C324    1.405   .     A
C323   C325    1.412   .     A
C323   C327    1.424   .     A
C324   C328    1.429   .     A
C324   C326    1.418   .     A
C325   C967    1.394   .     S
C326   C968    1.388   1_554 S
C327   C994    1.423   .     S
C328   C993    1.423   1_554 S
Cu329  O351    1.947   .     S
Cu329  O354    1.942   .     S
Cu329  N345    2.027   .     S
Cu329  O350    1.964   .     S
Cu329  O347    1.956   .     S
Cu330  O352    1.947   .     S
Cu330  O353    1.942   .     S
Cu330  N346    2.027   .     S
Cu330  O348    1.956   .     S
Cu330  O349    1.964   .     S
Cu330  Cu403   2.698   .     S
H335   C394    1.083   .     S
H338   C392    1.084   .     S
O348   C372    1.293   .     S
O352   C388    1.301   .     S
C355   O356    1.224   .     D
C355   O357    1.399   .     S
O357   H358    1.014   .     S
C359   O361    1.397   .     S
C359   O360    1.223   .     D
O361   H362    1.013   .     S
C363   O364    1.223   .     D
C363   O365    1.394   .     S
O365   H366    1.014   .     S
C367   O369    1.395   .     S
C367   O368    1.223   .     D
O369   H370    1.014   .     S
C371   O423    1.300   .     A
C371   C382    1.447   .     S
C371   O273    1.293   1_655 S
C372   C381    1.448   .     S
C372   O424    1.300   .     A
C373   C375    1.401   .     A
C373   C402    1.430   .     A
C373   C429    1.486   .     S
C374   C433    1.473   .     S
C374   C376    1.390   .     A
C374   C401    1.421   .     A
C375   H405    1.085   .     S
C375   C1065   1.394   1_554 S
C376   H406    1.083   .     S
C376   C1066   1.388   .     S
C377   H413    1.083   .     S
C377   C382    1.398   .     A
C378   H414    1.082   .     S
C378   C381    1.398   .     A
C378   C602    1.384   .     S
C379   H415    1.083   .     S
C379   C599    1.384   .     S
C379   C233    1.403   1_655 S
C380   H416    1.083   .     S
C382   C232    1.402   1_655 S
C383   C385    1.417   .     A
C383   C437    1.477   .     S
C383   N420    1.391   .     A
C384   C441    1.473   .     S
C384   N419    1.388   .     A
C384   C386    1.417   .     A
C385   H417    1.083   .     S
C385   N419    1.354   .     A
C386   H418    1.083   .     S
C386   N420    1.356   .     A
C387   C389    1.477   .     S
C387   O427    1.299   .     A
C387   O277    1.308   1_655 S
C388   O428    1.302   .     A
C388   C390    1.467   .     S
C389   C393    1.400   .     A
C389   C395    1.405   .     A
C390   C394    1.400   .     A
C390   C396    1.400   .     A
C391   C393    1.396   .     A
C391   C399    1.403   .     A
C391   H411    1.083   .     S
C392   C394    1.389   .     A
C392   C400    1.402   .     A
C393   H262    1.083   1_655 S
C395   H408    1.080   .     S
C395   C397    1.408   .     A
C396   H407    1.078   .     S
C396   C398    1.405   .     A
C397   C399    1.412   .     A
C397   C401    1.424   .     A
C398   C402    1.429   .     A
C398   C400    1.418   .     A
C399   C1041   1.394   .     S
C400   C1042   1.388   1_554 S
C401   C1068   1.423   .     S
C402   C1067   1.423   1_554 S
Cu403  O425    1.947   .     S
Cu403  O428    1.942   .     S
Cu403  N419    2.027   .     S
Cu403  O424    1.964   .     S
Cu403  O421    1.956   .     S
Cu404  O426    1.947   .     S
Cu404  O427    1.942   .     S
Cu404  N420    2.027   .     S
Cu404  O422    1.956   .     S
Cu404  O423    1.964   .     S
Cu404  Cu255   2.698   1_655 S
H409   C246    1.083   1_655 S
H412   C244    1.084   1_655 S
O422   C224    1.293   1_655 S
O426   C240    1.301   1_655 S
C429   O430    1.224   .     D
C429   O431    1.399   .     S
O431   H432    1.014   .     S
C433   O435    1.397   .     S
C433   O434    1.223   .     D
O435   H436    1.013   .     S
C437   O438    1.223   .     D
C437   O439    1.394   .     S
O439   H440    1.014   .     S
C441   O443    1.395   .     S
C441   O442    1.223   .     D
O443   H444    1.014   .     S
C445   O497    1.300   .     A
C445   C456    1.447   .     S
C445   O569    1.293   .     S
C446   C455    1.448   .     S
C446   O498    1.300   .     A
C446   O644    1.293   1_455 S
C447   C449    1.401   .     A
C447   C476    1.430   .     A
C447   C503    1.486   .     S
C448   C507    1.473   .     S
C448   C450    1.390   .     A
C448   C475    1.421   .     A
C449   H479    1.085   .     S
C449   C1139   1.394   1_554 S
C450   H480    1.083   .     S
C450   C1140   1.388   .     S
C451   H487    1.083   .     S
C451   C456    1.398   .     A
C452   H488    1.082   .     S
C452   C455    1.398   .     A
C452   C10     1.384   1_565 S
C453   H489    1.083   .     S
C453   C7      1.384   1_565 S
C453   C529    1.403   .     S
C454   H490    1.083   .     S
C454   C604    1.402   1_455 S
C455   C601    1.403   1_455 S
C456   C528    1.402   .     S
C457   C459    1.417   .     A
C457   C511    1.477   .     S
C457   N494    1.391   .     A
C458   C515    1.473   .     S
C458   N493    1.388   .     A
C458   C460    1.417   .     A
C459   H491    1.083   .     S
C459   N493    1.354   .     A
C460   H492    1.083   .     S
C460   N494    1.356   .     A
C461   C463    1.477   .     S
C461   O501    1.299   .     A
C461   O573    1.308   .     S
C462   O502    1.302   .     A
C462   C464    1.467   .     S
C462   O648    1.301   1_455 S
C463   C467    1.400   .     A
C463   C469    1.405   .     A
C464   C468    1.400   .     A
C464   C470    1.400   .     A
C465   C467    1.396   .     A
C465   C473    1.403   .     A
C465   H485    1.083   .     S
C466   C468    1.389   .     A
C466   C474    1.402   .     A
C466   H634    1.084   1_455 S
C467   H558    1.083   .     S
C468   H631    1.083   1_455 S
C469   H482    1.080   .     S
C469   C471    1.408   .     A
C470   H481    1.078   .     S
C470   C472    1.405   .     A
C471   C473    1.412   .     A
C471   C475    1.424   .     A
C472   C476    1.429   .     A
C472   C474    1.418   .     A
C473   C1115   1.394   .     S
C474   C1116   1.388   1_554 S
C475   C1142   1.423   .     S
C476   C1141   1.423   1_554 S
Cu477  O499    1.947   .     S
Cu477  O502    1.942   .     S
Cu477  N493    2.027   .     S
Cu477  O498    1.964   .     S
Cu477  O495    1.956   .     S
Cu477  Cu626   2.698   1_455 S
Cu478  O500    1.947   .     S
Cu478  O501    1.942   .     S
Cu478  N494    2.027   .     S
Cu478  O496    1.956   .     S
Cu478  O497    1.964   .     S
Cu478  Cu551   2.698   .     S
H483   C542    1.083   .     S
H484   C615    1.083   1_455 S
H486   C540    1.084   .     S
O495   C593    1.293   1_455 S
O496   C520    1.293   .     S
O499   C609    1.308   1_455 S
O500   C536    1.301   .     S
C503   O504    1.224   .     D
C503   O505    1.399   .     S
O505   H506    1.014   .     S
C507   O509    1.397   .     S
C507   O508    1.223   .     D
O509   H510    1.013   .     S
C511   O512    1.223   .     D
C511   O513    1.394   .     S
O513   H514    1.014   .     S
C515   O517    1.395   .     S
C515   O516    1.223   .     D
O517   H518    1.014   .     S
C519   O571    1.300   .     A
C519   C530    1.447   .     S
C519   O643    1.293   .     S
C520   C529    1.448   .     S
C520   O572    1.300   .     A
C521   C523    1.401   .     A
C521   C550    1.430   .     A
C521   C577    1.486   .     S
C522   C581    1.473   .     S
C522   C524    1.390   .     A
C522   C549    1.421   .     A
C523   H553    1.085   .     S
C523   C1213   1.394   1_554 S
C524   H554    1.083   .     S
C524   C1214   1.388   .     S
C525   H561    1.083   .     S
C525   C530    1.398   .     A
C526   H562    1.082   .     S
C526   C529    1.398   .     A
C526   C84     1.384   1_565 S
C527   H563    1.083   .     S
C527   C81     1.384   1_565 S
C527   C603    1.403   .     S
C528   H564    1.083   .     S
C530   C602    1.402   .     S
C531   C533    1.417   .     A
C531   C585    1.477   .     S
C531   N568    1.391   .     A
C532   C589    1.473   .     S
C532   N567    1.388   .     A
C532   C534    1.417   .     A
C533   H565    1.083   .     S
C533   N567    1.354   .     A
C534   H566    1.083   .     S
C534   N568    1.356   .     A
C535   C537    1.477   .     S
C535   O575    1.299   .     A
C535   O647    1.308   .     S
C536   O576    1.302   .     A
C536   C538    1.467   .     S
C537   C541    1.400   .     A
C537   C543    1.405   .     A
C538   C542    1.400   .     A
C538   C544    1.400   .     A
C539   C541    1.396   .     A
C539   C547    1.403   .     A
C539   H559    1.083   .     S
C540   C542    1.389   .     A
C540   C548    1.402   .     A
C541   H632    1.083   .     S
C543   H556    1.080   .     S
C543   C545    1.408   .     A
C544   H555    1.078   .     S
C544   C546    1.405   .     A
C545   C547    1.412   .     A
C545   C549    1.424   .     A
C546   C550    1.429   .     A
C546   C548    1.418   .     A
C547   C1189   1.394   .     S
C548   C1190   1.388   1_554 S
C549   C1216   1.423   .     S
C550   C1215   1.423   1_554 S
Cu551  O573    1.947   .     S
Cu551  O576    1.942   .     S
Cu551  N567    2.027   .     S
Cu551  O572    1.964   .     S
Cu551  O569    1.956   .     S
Cu552  O574    1.947   .     S
Cu552  O575    1.942   .     S
Cu552  N568    2.027   .     S
Cu552  O570    1.956   .     S
Cu552  O571    1.964   .     S
Cu552  Cu625   2.698   .     S
H557   C616    1.083   .     S
H560   C614    1.084   .     S
O570   C594    1.293   .     S
O574   C610    1.301   .     S
C577   O578    1.224   .     D
C577   O579    1.399   .     S
O579   H580    1.014   .     S
C581   O583    1.397   .     S
C581   O582    1.223   .     D
O583   H584    1.013   .     S
C585   O586    1.223   .     D
C585   O587    1.394   .     S
O587   H588    1.014   .     S
C589   O591    1.395   .     S
C589   O590    1.223   .     D
O591   H592    1.014   .     S
C593   O645    1.300   .     A
C593   C604    1.447   .     S
C593   O495    1.293   1_655 S
C594   C603    1.448   .     S
C594   O646    1.300   .     A
C595   C597    1.401   .     A
C595   C624    1.430   .     A
C595   C651    1.486   .     S
C596   C655    1.473   .     S
C596   C598    1.390   .     A
C596   C623    1.421   .     A
C597   H627    1.085   .     S
C597   C1287   1.394   1_554 S
C598   H628    1.083   .     S
C598   C1288   1.388   .     S
C599   H635    1.083   .     S
C599   C604    1.398   .     A
C600   H636    1.082   .     S
C600   C603    1.398   .     A
C600   C158    1.384   1_565 S
C601   H637    1.083   .     S
C601   C155    1.384   1_565 S
C601   C455    1.403   1_655 S
C602   H638    1.083   .     S
C604   C454    1.402   1_655 S
C605   C607    1.417   .     A
C605   C659    1.477   .     S
C605   N642    1.391   .     A
C606   C663    1.473   .     S
C606   N641    1.388   .     A
C606   C608    1.417   .     A
C607   H639    1.083   .     S
C607   N641    1.354   .     A
C608   H640    1.083   .     S
C608   N642    1.356   .     A
C609   C611    1.477   .     S
C609   O649    1.299   .     A
C609   O499    1.308   1_655 S
C610   O650    1.302   .     A
C610   C612    1.467   .     S
C611   C615    1.400   .     A
C611   C617    1.405   .     A
C612   C616    1.400   .     A
C612   C618    1.400   .     A
C613   C615    1.396   .     A
C613   C621    1.403   .     A
C613   H633    1.083   .     S
C614   C616    1.389   .     A
C614   C622    1.402   .     A
C615   H484    1.083   1_655 S
C617   H630    1.080   .     S
C617   C619    1.408   .     A
C618   H629    1.078   .     S
C618   C620    1.405   .     A
C619   C621    1.412   .     A
C619   C623    1.424   .     A
C620   C624    1.429   .     A
C620   C622    1.418   .     A
C621   C1263   1.394   .     S
C622   C1264   1.388   1_554 S
C623   C1290   1.423   .     S
C624   C1289   1.423   1_554 S
Cu625  O647    1.947   .     S
Cu625  O650    1.942   .     S
Cu625  N641    2.027   .     S
Cu625  O646    1.964   .     S
Cu625  O643    1.956   .     S
Cu626  O648    1.947   .     S
Cu626  O649    1.942   .     S
Cu626  N642    2.027   .     S
Cu626  O644    1.956   .     S
Cu626  O645    1.964   .     S
Cu626  Cu477   2.698   1_655 S
H631   C468    1.083   1_655 S
H634   C466    1.084   1_655 S
O644   C446    1.293   1_655 S
O648   C462    1.301   1_655 S
C651   O652    1.224   .     D
C651   O653    1.399   .     S
O653   H654    1.014   .     S
C655   O657    1.397   .     S
C655   O656    1.223   .     D
O657   H658    1.013   .     S
C659   O660    1.223   .     D
C659   O661    1.394   .     S
O661   H662    1.014   .     S
C663   O665    1.395   .     S
C663   O664    1.223   .     D
O665   H666    1.014   .     S
C667   O719    1.300   .     A
C667   C678    1.447   .     S
C667   O791    1.293   .     S
C668   C677    1.448   .     S
C668   O720    1.300   .     A
C668   O866    1.293   1_455 S
C669   C671    1.401   .     A
C669   C698    1.430   .     A
C669   C725    1.486   .     S
C670   C729    1.473   .     S
C670   C672    1.390   .     A
C670   C697    1.421   .     A
C671   H701    1.085   .     S
C672   H702    1.083   .     S
C672   C30     1.388   1_556 S
C673   H709    1.083   .     S
C673   C678    1.398   .     A
C673   C1119   1.384   1_545 S
C674   H710    1.082   .     S
C674   C677    1.398   .     A
C674   C898    1.384   .     S
C675   H711    1.083   .     S
C675   C895    1.384   .     S
C675   C751    1.403   .     S
C676   H712    1.083   .     S
C676   C1118   1.384   1_545 S
C676   C826    1.402   1_455 S
C677   C823    1.403   1_455 S
C678   C750    1.402   .     S
C679   C681    1.417   .     A
C679   C733    1.477   .     S
C679   N716    1.391   .     A
C680   C737    1.473   .     S
C680   N715    1.388   .     A
C680   C682    1.417   .     A
C681   H713    1.083   .     S
C681   N715    1.354   .     A
C682   H714    1.083   .     S
C682   N716    1.356   .     A
C683   C685    1.477   .     S
C683   O723    1.299   .     A
C683   O795    1.308   .     S
C684   O724    1.302   .     A
C684   C686    1.467   .     S
C684   O870    1.301   1_455 S
C685   C689    1.400   .     A
C685   C691    1.405   .     A
C686   C690    1.400   .     A
C686   C692    1.400   .     A
C687   C689    1.396   .     A
C687   C695    1.403   .     A
C687   H707    1.083   .     S
C688   C690    1.389   .     A
C688   C696    1.402   .     A
C688   H856    1.084   1_455 S
C689   H780    1.083   .     S
C690   H853    1.083   1_455 S
C691   H704    1.080   .     S
C691   C693    1.408   .     A
C692   H703    1.078   .     S
C692   C694    1.405   .     A
C693   C695    1.412   .     A
C693   C697    1.424   .     A
C694   C698    1.429   .     A
C694   C696    1.418   .     A
C695   C5      1.394   1_556 S
C697   C32     1.423   1_556 S
Cu699  O721    1.947   .     S
Cu699  O724    1.942   .     S
Cu699  N715    2.027   .     S
Cu699  O720    1.964   .     S
Cu699  O717    1.956   .     S
Cu699  Cu848   2.698   1_455 S
Cu700  O722    1.947   .     S
Cu700  O723    1.942   .     S
Cu700  N716    2.027   .     S
Cu700  O718    1.956   .     S
Cu700  O719    1.964   .     S
Cu700  Cu773   2.698   .     S
H705   C764    1.083   .     S
H706   C837    1.083   1_455 S
H708   C762    1.084   .     S
O717   C815    1.293   1_455 S
O718   C742    1.293   .     S
O721   C831    1.308   1_455 S
O722   C758    1.301   .     S
C725   O726    1.224   .     D
C725   O727    1.399   .     S
O727   H728    1.014   .     S
C729   O731    1.397   .     S
C729   O730    1.223   .     D
O731   H732    1.013   .     S
C733   O734    1.223   .     D
C733   O735    1.394   .     S
O735   H736    1.014   .     S
C737   O739    1.395   .     S
C737   O738    1.223   .     D
O739   H740    1.014   .     S
C741   O793    1.300   .     A
C741   C752    1.447   .     S
C741   O865    1.293   .     S
C742   C751    1.448   .     S
C742   O794    1.300   .     A
C743   C745    1.401   .     A
C743   C772    1.430   .     A
C743   C799    1.486   .     S
C744   C803    1.473   .     S
C744   C746    1.390   .     A
C744   C771    1.421   .     A
C745   H775    1.085   .     S
C746   H776    1.083   .     S
C746   C104    1.388   1_556 S
C747   H783    1.083   .     S
C747   C752    1.398   .     A
C747   C1193   1.384   1_545 S
C748   H784    1.082   .     S
C748   C751    1.398   .     A
C748   C972    1.384   .     S
C749   H785    1.083   .     S
C749   C969    1.384   .     S
C749   C825    1.403   .     S
C750   H786    1.083   .     S
C750   C1192   1.384   1_545 S
C752   C824    1.402   .     S
C753   C755    1.417   .     A
C753   C807    1.477   .     S
C753   N790    1.391   .     A
C754   C811    1.473   .     S
C754   N789    1.388   .     A
C754   C756    1.417   .     A
C755   H787    1.083   .     S
C755   N789    1.354   .     A
C756   H788    1.083   .     S
C756   N790    1.356   .     A
C757   C759    1.477   .     S
C757   O797    1.299   .     A
C757   O869    1.308   .     S
C758   O798    1.302   .     A
C758   C760    1.467   .     S
C759   C763    1.400   .     A
C759   C765    1.405   .     A
C760   C764    1.400   .     A
C760   C766    1.400   .     A
C761   C763    1.396   .     A
C761   C769    1.403   .     A
C761   H781    1.083   .     S
C762   C764    1.389   .     A
C762   C770    1.402   .     A
C763   H854    1.083   .     S
C765   H778    1.080   .     S
C765   C767    1.408   .     A
C766   H777    1.078   .     S
C766   C768    1.405   .     A
C767   C769    1.412   .     A
C767   C771    1.424   .     A
C768   C772    1.429   .     A
C768   C770    1.418   .     A
C769   C79     1.394   1_556 S
C771   C106    1.423   1_556 S
Cu773  O795    1.947   .     S
Cu773  O798    1.942   .     S
Cu773  N789    2.027   .     S
Cu773  O794    1.964   .     S
Cu773  O791    1.956   .     S
Cu774  O796    1.947   .     S
Cu774  O797    1.942   .     S
Cu774  N790    2.027   .     S
Cu774  O792    1.956   .     S
Cu774  O793    1.964   .     S
Cu774  Cu847   2.698   .     S
H779   C838    1.083   .     S
H782   C836    1.084   .     S
O792   C816    1.293   .     S
O796   C832    1.301   .     S
C799   O800    1.224   .     D
C799   O801    1.399   .     S
O801   H802    1.014   .     S
C803   O805    1.397   .     S
C803   O804    1.223   .     D
O805   H806    1.013   .     S
C807   O808    1.223   .     D
C807   O809    1.394   .     S
O809   H810    1.014   .     S
C811   O813    1.395   .     S
C811   O812    1.223   .     D
O813   H814    1.014   .     S
C815   O867    1.300   .     A
C815   C826    1.447   .     S
C815   O717    1.293   1_655 S
C816   C825    1.448   .     S
C816   O868    1.300   .     A
C817   C819    1.401   .     A
C817   C846    1.430   .     A
C817   C873    1.486   .     S
C818   C877    1.473   .     S
C818   C820    1.390   .     A
C818   C845    1.421   .     A
C819   H849    1.085   .     S
C820   H850    1.083   .     S
C820   C178    1.388   1_556 S
C821   H857    1.083   .     S
C821   C826    1.398   .     A
C821   C1267   1.384   1_545 S
C822   H858    1.082   .     S
C822   C825    1.398   .     A
C822   C1046   1.384   .     S
C823   H859    1.083   .     S
C823   C1043   1.384   .     S
C823   C677    1.403   1_655 S
C824   H860    1.083   .     S
C824   C1266   1.384   1_545 S
C826   C676    1.402   1_655 S
C827   C829    1.417   .     A
C827   C881    1.477   .     S
C827   N864    1.391   .     A
C828   C885    1.473   .     S
C828   N863    1.388   .     A
C828   C830    1.417   .     A
C829   H861    1.083   .     S
C829   N863    1.354   .     A
C830   H862    1.083   .     S
C830   N864    1.356   .     A
C831   C833    1.477   .     S
C831   O871    1.299   .     A
C831   O721    1.308   1_655 S
C832   O872    1.302   .     A
C832   C834    1.467   .     S
C833   C837    1.400   .     A
C833   C839    1.405   .     A
C834   C838    1.400   .     A
C834   C840    1.400   .     A
C835   C837    1.396   .     A
C835   C843    1.403   .     A
C835   H855    1.083   .     S
C836   C838    1.389   .     A
C836   C844    1.402   .     A
C837   H706    1.083   1_655 S
C839   H852    1.080   .     S
C839   C841    1.408   .     A
C840   H851    1.078   .     S
C840   C842    1.405   .     A
C841   C843    1.412   .     A
C841   C845    1.424   .     A
C842   C846    1.429   .     A
C842   C844    1.418   .     A
C843   C153    1.394   1_556 S
C845   C180    1.423   1_556 S
Cu847  O869    1.947   .     S
Cu847  O872    1.942   .     S
Cu847  N863    2.027   .     S
Cu847  O868    1.964   .     S
Cu847  O865    1.956   .     S
Cu848  O870    1.947   .     S
Cu848  O871    1.942   .     S
Cu848  N864    2.027   .     S
Cu848  O866    1.956   .     S
Cu848  O867    1.964   .     S
Cu848  Cu699   2.698   1_655 S
H853   C690    1.083   1_655 S
H856   C688    1.084   1_655 S
O866   C668    1.293   1_655 S
O870   C684    1.301   1_655 S
C873   O874    1.224   .     D
C873   O875    1.399   .     S
O875   H876    1.014   .     S
C877   O879    1.397   .     S
C877   O878    1.223   .     D
O879   H880    1.013   .     S
C881   O882    1.223   .     D
C881   O883    1.394   .     S
O883   H884    1.014   .     S
C885   O887    1.395   .     S
C885   O886    1.223   .     D
O887   H888    1.014   .     S
C889   O941    1.300   .     A
C889   C900    1.447   .     S
C889   O1013   1.293   .     S
C890   C899    1.448   .     S
C890   O942    1.300   .     A
C890   O1088   1.293   1_455 S
C891   C893    1.401   .     A
C891   C920    1.430   .     A
C891   C947    1.486   .     S
C892   C951    1.473   .     S
C892   C894    1.390   .     A
C892   C919    1.421   .     A
C893   H923    1.085   .     S
C894   H924    1.083   .     S
C894   C252    1.388   1_556 S
C895   H931    1.083   .     S
C895   C900    1.398   .     A
C896   H932    1.082   .     S
C896   C899    1.398   .     A
C896   C1120   1.384   .     S
C897   H933    1.083   .     S
C897   C1117   1.384   .     S
C897   C973    1.403   .     S
C898   H934    1.083   .     S
C898   C1048   1.402   1_455 S
C899   C1045   1.403   1_455 S
C900   C972    1.402   .     S
C901   C903    1.417   .     A
C901   C955    1.477   .     S
C901   N938    1.391   .     A
C902   C959    1.473   .     S
C902   N937    1.388   .     A
C902   C904    1.417   .     A
C903   H935    1.083   .     S
C903   N937    1.354   .     A
C904   H936    1.083   .     S
C904   N938    1.356   .     A
C905   C907    1.477   .     S
C905   O945    1.299   .     A
C905   O1017   1.308   .     S
C906   O946    1.302   .     A
C906   C908    1.467   .     S
C906   O1092   1.301   1_455 S
C907   C911    1.400   .     A
C907   C913    1.405   .     A
C908   C912    1.400   .     A
C908   C914    1.400   .     A
C909   C911    1.396   .     A
C909   C917    1.403   .     A
C909   H929    1.083   .     S
C910   C912    1.389   .     A
C910   C918    1.402   .     A
C910   H1078   1.084   1_455 S
C911   H1002   1.083   .     S
C912   H1075   1.083   1_455 S
C913   H926    1.080   .     S
C913   C915    1.408   .     A
C914   H925    1.078   .     S
C914   C916    1.405   .     A
C915   C917    1.412   .     A
C915   C919    1.424   .     A
C916   C920    1.429   .     A
C916   C918    1.418   .     A
C917   C227    1.394   1_556 S
C919   C254    1.423   1_556 S
Cu921  O943    1.947   .     S
Cu921  O946    1.942   .     S
Cu921  N937    2.027   .     S
Cu921  O942    1.964   .     S
Cu921  O939    1.956   .     S
Cu921  Cu1070  2.698   1_455 S
Cu922  O944    1.947   .     S
Cu922  O945    1.942   .     S
Cu922  N938    2.027   .     S
Cu922  O940    1.956   .     S
Cu922  O941    1.964   .     S
Cu922  Cu995   2.698   .     S
H927   C986    1.083   .     S
H928   C1059   1.083   1_455 S
H930   C984    1.084   .     S
O939   C1037   1.293   1_455 S
O940   C964    1.293   .     S
O943   C1053   1.308   1_455 S
O944   C980    1.301   .     S
C947   O948    1.224   .     D
C947   O949    1.399   .     S
O949   H950    1.014   .     S
C951   O953    1.397   .     S
C951   O952    1.223   .     D
O953   H954    1.013   .     S
C955   O956    1.223   .     D
C955   O957    1.394   .     S
O957   H958    1.014   .     S
C959   O961    1.395   .     S
C959   O960    1.223   .     D
O961   H962    1.014   .     S
C963   O1015   1.300   .     A
C963   C974    1.447   .     S
C963   O1087   1.293   .     S
C964   C973    1.448   .     S
C964   O1016   1.300   .     A
C965   C967    1.401   .     A
C965   C994    1.430   .     A
C965   C1021   1.486   .     S
C966   C1025   1.473   .     S
C966   C968    1.390   .     A
C966   C993    1.421   .     A
C967   H997    1.085   .     S
C968   H998    1.083   .     S
C968   C326    1.388   1_556 S
C969   H1005   1.083   .     S
C969   C974    1.398   .     A
C970   H1006   1.082   .     S
C970   C973    1.398   .     A
C970   C1194   1.384   .     S
C971   H1007   1.083   .     S
C971   C1191   1.384   .     S
C971   C1047   1.403   .     S
C972   H1008   1.083   .     S
C974   C1046   1.402   .     S
C975   C977    1.417   .     A
C975   C1029   1.477   .     S
C975   N1012   1.391   .     A
C976   C1033   1.473   .     S
C976   N1011   1.388   .     A
C976   C978    1.417   .     A
C977   H1009   1.083   .     S
C977   N1011   1.354   .     A
C978   H1010   1.083   .     S
C978   N1012   1.356   .     A
C979   C981    1.477   .     S
C979   O1019   1.299   .     A
C979   O1091   1.308   .     S
C980   O1020   1.302   .     A
C980   C982    1.467   .     S
C981   C985    1.400   .     A
C981   C987    1.405   .     A
C982   C986    1.400   .     A
C982   C988    1.400   .     A
C983   C985    1.396   .     A
C983   C991    1.403   .     A
C983   H1003   1.083   .     S
C984   C986    1.389   .     A
C984   C992    1.402   .     A
C985   H1076   1.083   .     S
C987   H1000   1.080   .     S
C987   C989    1.408   .     A
C988   H999    1.078   .     S
C988   C990    1.405   .     A
C989   C991    1.412   .     A
C989   C993    1.424   .     A
C990   C994    1.429   .     A
C990   C992    1.418   .     A
C991   C301    1.394   1_556 S
C993   C328    1.423   1_556 S
Cu995  O1017   1.947   .     S
Cu995  O1020   1.942   .     S
Cu995  N1011   2.027   .     S
Cu995  O1016   1.964   .     S
Cu995  O1013   1.956   .     S
Cu996  O1018   1.947   .     S
Cu996  O1019   1.942   .     S
Cu996  N1012   2.027   .     S
Cu996  O1014   1.956   .     S
Cu996  O1015   1.964   .     S
Cu996  Cu1069  2.698   .     S
H1001  C1060   1.083   .     S
H1004  C1058   1.084   .     S
O1014  C1038   1.293   .     S
O1018  C1054   1.301   .     S
C1021  O1022   1.224   .     D
C1021  O1023   1.399   .     S
O1023  H1024   1.014   .     S
C1025  O1027   1.397   .     S
C1025  O1026   1.223   .     D
O1027  H1028   1.013   .     S
C1029  O1030   1.223   .     D
C1029  O1031   1.394   .     S
O1031  H1032   1.014   .     S
C1033  O1035   1.395   .     S
C1033  O1034   1.223   .     D
O1035  H1036   1.014   .     S
C1037  O1089   1.300   .     A
C1037  C1048   1.447   .     S
C1037  O939    1.293   1_655 S
C1038  C1047   1.448   .     S
C1038  O1090   1.300   .     A
C1039  C1041   1.401   .     A
C1039  C1068   1.430   .     A
C1039  C1095   1.486   .     S
C1040  C1099   1.473   .     S
C1040  C1042   1.390   .     A
C1040  C1067   1.421   .     A
C1041  H1071   1.085   .     S
C1042  H1072   1.083   .     S
C1042  C400    1.388   1_556 S
C1043  H1079   1.083   .     S
C1043  C1048   1.398   .     A
C1044  H1080   1.082   .     S
C1044  C1047   1.398   .     A
C1044  C1268   1.384   .     S
C1045  H1081   1.083   .     S
C1045  C1265   1.384   .     S
C1045  C899    1.403   1_655 S
C1046  H1082   1.083   .     S
C1048  C898    1.402   1_655 S
C1049  C1051   1.417   .     A
C1049  C1103   1.477   .     S
C1049  N1086   1.391   .     A
C1050  C1107   1.473   .     S
C1050  N1085   1.388   .     A
C1050  C1052   1.417   .     A
C1051  H1083   1.083   .     S
C1051  N1085   1.354   .     A
C1052  H1084   1.083   .     S
C1052  N1086   1.356   .     A
C1053  C1055   1.477   .     S
C1053  O1093   1.299   .     A
C1053  O943    1.308   1_655 S
C1054  O1094   1.302   .     A
C1054  C1056   1.467   .     S
C1055  C1059   1.400   .     A
C1055  C1061   1.405   .     A
C1056  C1060   1.400   .     A
C1056  C1062   1.400   .     A
C1057  C1059   1.396   .     A
C1057  C1065   1.403   .     A
C1057  H1077   1.083   .     S
C1058  C1060   1.389   .     A
C1058  C1066   1.402   .     A
C1059  H928    1.083   1_655 S
C1061  H1074   1.080   .     S
C1061  C1063   1.408   .     A
C1062  H1073   1.078   .     S
C1062  C1064   1.405   .     A
C1063  C1065   1.412   .     A
C1063  C1067   1.424   .     A
C1064  C1068   1.429   .     A
C1064  C1066   1.418   .     A
C1065  C375    1.394   1_556 S
C1067  C402    1.423   1_556 S
Cu1069 O1091   1.947   .     S
Cu1069 O1094   1.942   .     S
Cu1069 N1085   2.027   .     S
Cu1069 O1090   1.964   .     S
Cu1069 O1087   1.956   .     S
Cu1070 O1092   1.947   .     S
Cu1070 O1093   1.942   .     S
Cu1070 N1086   2.027   .     S
Cu1070 O1088   1.956   .     S
Cu1070 O1089   1.964   .     S
Cu1070 Cu921   2.698   1_655 S
H1075  C912    1.083   1_655 S
H1078  C910    1.084   1_655 S
O1088  C890    1.293   1_655 S
O1092  C906    1.301   1_655 S
C1095  O1096   1.224   .     D
C1095  O1097   1.399   .     S
O1097  H1098   1.014   .     S
C1099  O1101   1.397   .     S
C1099  O1100   1.223   .     D
O1101  H1102   1.013   .     S
C1103  O1104   1.223   .     D
C1103  O1105   1.394   .     S
O1105  H1106   1.014   .     S
C1107  O1109   1.395   .     S
C1107  O1108   1.223   .     D
O1109  H1110   1.014   .     S
C1111  O1163   1.300   .     A
C1111  C1122   1.447   .     S
C1111  O1235   1.293   .     S
C1112  C1121   1.448   .     S
C1112  O1164   1.300   .     A
C1112  O1310   1.293   1_455 S
C1113  C1115   1.401   .     A
C1113  C1142   1.430   .     A
C1113  C1169   1.486   .     S
C1114  C1173   1.473   .     S
C1114  C1116   1.390   .     A
C1114  C1141   1.421   .     A
C1115  H1145   1.085   .     S
C1116  H1146   1.083   .     S
C1116  C474    1.388   1_556 S
C1117  H1153   1.083   .     S
C1117  C1122   1.398   .     A
C1118  H1154   1.082   .     S
C1118  C1121   1.398   .     A
C1118  C676    1.384   1_565 S
C1119  H1155   1.083   .     S
C1119  C673    1.384   1_565 S
C1119  C1195   1.403   .     S
C1120  H1156   1.083   .     S
C1120  C1270   1.402   1_455 S
C1121  C1267   1.403   1_455 S
C1122  C1194   1.402   .     S
C1123  C1125   1.417   .     A
C1123  C1177   1.477   .     S
C1123  N1160   1.391   .     A
C1124  C1181   1.473   .     S
C1124  N1159   1.388   .     A
C1124  C1126   1.417   .     A
C1125  H1157   1.083   .     S
C1125  N1159   1.354   .     A
C1126  H1158   1.083   .     S
C1126  N1160   1.356   .     A
C1127  C1129   1.477   .     S
C1127  O1167   1.299   .     A
C1127  O1239   1.308   .     S
C1128  O1168   1.302   .     A
C1128  C1130   1.467   .     S
C1128  O1314   1.301   1_455 S
C1129  C1133   1.400   .     A
C1129  C1135   1.405   .     A
C1130  C1134   1.400   .     A
C1130  C1136   1.400   .     A
C1131  C1133   1.396   .     A
C1131  C1139   1.403   .     A
C1131  H1151   1.083   .     S
C1132  C1134   1.389   .     A
C1132  C1140   1.402   .     A
C1132  H1300   1.084   1_455 S
C1133  H1224   1.083   .     S
C1134  H1297   1.083   1_455 S
C1135  H1148   1.080   .     S
C1135  C1137   1.408   .     A
C1136  H1147   1.078   .     S
C1136  C1138   1.405   .     A
C1137  C1139   1.412   .     A
C1137  C1141   1.424   .     A
C1138  C1142   1.429   .     A
C1138  C1140   1.418   .     A
C1139  C449    1.394   1_556 S
C1141  C476    1.423   1_556 S
Cu1143 O1165   1.947   .     S
Cu1143 O1168   1.942   .     S
Cu1143 N1159   2.027   .     S
Cu1143 O1164   1.964   .     S
Cu1143 O1161   1.956   .     S
Cu1143 Cu1292  2.698   1_455 S
Cu1144 O1166   1.947   .     S
Cu1144 O1167   1.942   .     S
Cu1144 N1160   2.027   .     S
Cu1144 O1162   1.956   .     S
Cu1144 O1163   1.964   .     S
Cu1144 Cu1217  2.698   .     S
H1149  C1208   1.083   .     S
H1150  C1281   1.083   1_455 S
H1152  C1206   1.084   .     S
O1161  C1259   1.293   1_455 S
O1162  C1186   1.293   .     S
O1165  C1275   1.308   1_455 S
O1166  C1202   1.301   .     S
C1169  O1170   1.224   .     D
C1169  O1171   1.399   .     S
O1171  H1172   1.014   .     S
C1173  O1175   1.397   .     S
C1173  O1174   1.223   .     D
O1175  H1176   1.013   .     S
C1177  O1178   1.223   .     D
C1177  O1179   1.394   .     S
O1179  H1180   1.014   .     S
C1181  O1183   1.395   .     S
C1181  O1182   1.223   .     D
O1183  H1184   1.014   .     S
C1185  O1237   1.300   .     A
C1185  C1196   1.447   .     S
C1185  O1309   1.293   .     S
C1186  C1195   1.448   .     S
C1186  O1238   1.300   .     A
C1187  C1189   1.401   .     A
C1187  C1216   1.430   .     A
C1187  C1243   1.486   .     S
C1188  C1247   1.473   .     S
C1188  C1190   1.390   .     A
C1188  C1215   1.421   .     A
C1189  H1219   1.085   .     S
C1190  H1220   1.083   .     S
C1190  C548    1.388   1_556 S
C1191  H1227   1.083   .     S
C1191  C1196   1.398   .     A
C1192  H1228   1.082   .     S
C1192  C1195   1.398   .     A
C1192  C750    1.384   1_565 S
C1193  H1229   1.083   .     S
C1193  C747    1.384   1_565 S
C1193  C1269   1.403   .     S
C1194  H1230   1.083   .     S
C1196  C1268   1.402   .     S
C1197  C1199   1.417   .     A
C1197  C1251   1.477   .     S
C1197  N1234   1.391   .     A
C1198  C1255   1.473   .     S
C1198  N1233   1.388   .     A
C1198  C1200   1.417   .     A
C1199  H1231   1.083   .     S
C1199  N1233   1.354   .     A
C1200  H1232   1.083   .     S
C1200  N1234   1.356   .     A
C1201  C1203   1.477   .     S
C1201  O1241   1.299   .     A
C1201  O1313   1.308   .     S
C1202  O1242   1.302   .     A
C1202  C1204   1.467   .     S
C1203  C1207   1.400   .     A
C1203  C1209   1.405   .     A
C1204  C1208   1.400   .     A
C1204  C1210   1.400   .     A
C1205  C1207   1.396   .     A
C1205  C1213   1.403   .     A
C1205  H1225   1.083   .     S
C1206  C1208   1.389   .     A
C1206  C1214   1.402   .     A
C1207  H1298   1.083   .     S
C1209  H1222   1.080   .     S
C1209  C1211   1.408   .     A
C1210  H1221   1.078   .     S
C1210  C1212   1.405   .     A
C1211  C1213   1.412   .     A
C1211  C1215   1.424   .     A
C1212  C1216   1.429   .     A
C1212  C1214   1.418   .     A
C1213  C523    1.394   1_556 S
C1215  C550    1.423   1_556 S
Cu1217 O1239   1.947   .     S
Cu1217 O1242   1.942   .     S
Cu1217 N1233   2.027   .     S
Cu1217 O1238   1.964   .     S
Cu1217 O1235   1.956   .     S
Cu1218 O1240   1.947   .     S
Cu1218 O1241   1.942   .     S
Cu1218 N1234   2.027   .     S
Cu1218 O1236   1.956   .     S
Cu1218 O1237   1.964   .     S
Cu1218 Cu1291  2.698   .     S
H1223  C1282   1.083   .     S
H1226  C1280   1.084   .     S
O1236  C1260   1.293   .     S
O1240  C1276   1.301   .     S
C1243  O1244   1.224   .     D
C1243  O1245   1.399   .     S
O1245  H1246   1.014   .     S
C1247  O1249   1.397   .     S
C1247  O1248   1.223   .     D
O1249  H1250   1.013   .     S
C1251  O1252   1.223   .     D
C1251  O1253   1.394   .     S
O1253  H1254   1.014   .     S
C1255  O1257   1.395   .     S
C1255  O1256   1.223   .     D
O1257  H1258   1.014   .     S
C1259  O1311   1.300   .     A
C1259  C1270   1.447   .     S
C1259  O1161   1.293   1_655 S
C1260  C1269   1.448   .     S
C1260  O1312   1.300   .     A
C1261  C1263   1.401   .     A
C1261  C1290   1.430   .     A
C1261  C1317   1.486   .     S
C1262  C1321   1.473   .     S
C1262  C1264   1.390   .     A
C1262  C1289   1.421   .     A
C1263  H1293   1.085   .     S
C1264  H1294   1.083   .     S
C1264  C622    1.388   1_556 S
C1265  H1301   1.083   .     S
C1265  C1270   1.398   .     A
C1266  H1302   1.082   .     S
C1266  C1269   1.398   .     A
C1266  C824    1.384   1_565 S
C1267  H1303   1.083   .     S
C1267  C821    1.384   1_565 S
C1267  C1121   1.403   1_655 S
C1268  H1304   1.083   .     S
C1270  C1120   1.402   1_655 S
C1271  C1273   1.417   .     A
C1271  C1325   1.477   .     S
C1271  N1308   1.391   .     A
C1272  C1329   1.473   .     S
C1272  N1307   1.388   .     A
C1272  C1274   1.417   .     A
C1273  H1305   1.083   .     S
C1273  N1307   1.354   .     A
C1274  H1306   1.083   .     S
C1274  N1308   1.356   .     A
C1275  C1277   1.477   .     S
C1275  O1315   1.299   .     A
C1275  O1165   1.308   1_655 S
C1276  O1316   1.302   .     A
C1276  C1278   1.467   .     S
C1277  C1281   1.400   .     A
C1277  C1283   1.405   .     A
C1278  C1282   1.400   .     A
C1278  C1284   1.400   .     A
C1279  C1281   1.396   .     A
C1279  C1287   1.403   .     A
C1279  H1299   1.083   .     S
C1280  C1282   1.389   .     A
C1280  C1288   1.402   .     A
C1281  H1150   1.083   1_655 S
C1283  H1296   1.080   .     S
C1283  C1285   1.408   .     A
C1284  H1295   1.078   .     S
C1284  C1286   1.405   .     A
C1285  C1287   1.412   .     A
C1285  C1289   1.424   .     A
C1286  C1290   1.429   .     A
C1286  C1288   1.418   .     A
C1287  C597    1.394   1_556 S
C1289  C624    1.423   1_556 S
Cu1291 O1313   1.947   .     S
Cu1291 O1316   1.942   .     S
Cu1291 N1307   2.027   .     S
Cu1291 O1312   1.964   .     S
Cu1291 O1309   1.956   .     S
Cu1292 O1314   1.947   .     S
Cu1292 O1315   1.942   .     S
Cu1292 N1308   2.027   .     S
Cu1292 O1310   1.956   .     S
Cu1292 O1311   1.964   .     S
Cu1292 Cu1143  2.698   1_655 S
H1297  C1134   1.083   1_655 S
H1300  C1132   1.084   1_655 S
O1310  C1112   1.293   1_655 S
O1314  C1128   1.301   1_655 S
C1317  O1318   1.224   .     D
C1317  O1319   1.399   .     S
O1319  H1320   1.014   .     S
C1321  O1323   1.397   .     S
C1321  O1322   1.223   .     D
O1323  H1324   1.013   .     S
C1325  O1326   1.223   .     D
C1325  O1327   1.394   .     S
O1327  H1328   1.014   .     S
C1329  O1331   1.395   .     S
C1329  O1330   1.223   .     D
O1331  H1332   1.014   .     S
