data_str_m3_o10_o18_pcu_sym.93
_audit_creation_date              2020-01-03
_audit_creation_method            'Materials Studio'
_symmetry_space_group_name_H-M    'P1'
_symmetry_Int_Tables_number       1
_symmetry_cell_setting            triclinic
loop_
_symmetry_equiv_pos_as_xyz
  x,y,z
_cell_length_a                    23.5508
_cell_length_b                    25.6844
_cell_length_c                    27.6619
_cell_angle_alpha                 92.9512
_cell_angle_beta                  96.0055
_cell_angle_gamma                 93.6797
loop_
_atom_site_label
_atom_site_type_symbol
_atom_site_fract_x
_atom_site_fract_y
_atom_site_fract_z
_atom_site_U_iso_or_equiv
_atom_site_adp_type
_atom_site_occupancy
C1     C     0.01492   0.26479   0.24892   0.00000  Uiso   1.00
C2     C     0.30941   0.15392   0.16030   0.00000  Uiso   1.00
C3     C     0.03726   0.17321   0.39484   0.00000  Uiso   1.00
C4     C     0.29004   0.12601   0.11270   0.00000  Uiso   1.00
C5     C     0.01495   0.19899   0.47608   0.00000  Uiso   1.00
C6     C     0.29758   0.06808   0.04145   0.00000  Uiso   1.00
C7     C     0.00360   0.20033   0.42580   0.00000  Uiso   1.00
C8     C     0.32227   0.09193   0.08648   0.00000  Uiso   1.00
C9     C     0.08558   0.14842   0.41570   0.00000  Uiso   1.00
C10    C     0.23121   0.11593   0.10327   0.00000  Uiso   1.00
C11    C     0.09174   0.14115   0.46628   0.00000  Uiso   1.00
C12    C     0.31859   0.06859   0.25171   0.00000  Uiso   1.00
C13    C     0.20870   0.10602   0.05531   0.00000  Uiso   1.00
C14    C     0.05925   0.17083   0.49652   0.00000  Uiso   1.00
C15    C     0.24094   0.07735   0.02452   0.00000  Uiso   1.00
C16    C     0.13521   0.11164   0.48843   0.00000  Uiso   1.00
C17    C     0.15563   0.12363   0.03767   0.00000  Uiso   1.00
C18    C     0.12464   0.15551   0.06676   0.00000  Uiso   1.00
C19    C     0.16006   0.07126   0.46305   0.00000  Uiso   1.00
C20    C     0.07529   0.17664   0.04672   0.00000  Uiso   1.00
C21    C     0.21434   0.05633   0.47973   0.00000  Uiso   1.00
C22    C     0.02279   0.31933   0.24855   0.00000  Uiso   1.00
C23    C     0.31093   0.01409   0.25280   0.00000  Uiso   1.00
C24    C     0.02317   0.17151   0.34140   0.00000  Uiso   1.00
H25    H     0.05186   0.20054   0.07005   0.00000  Uiso   1.00
H26    H     0.17144   0.20958   0.28462   0.00000  Uiso   1.00
H27    H     0.23576   0.02971   0.45731   0.00000  Uiso   1.00
H28    H     0.32432   0.22246   0.49934   0.00000  Uiso   1.00
H29    H     0.32126   0.04129   0.02117   0.00000  Uiso   1.00
H30    H     0.13835   0.16434   0.10507   0.00000  Uiso   1.00
H31    H     0.13955   0.05408   0.42856   0.00000  Uiso   1.00
H32    H     0.06550   0.00284   0.24457   0.00000  Uiso   1.00
H33    H     0.26822   0.33059   0.25681   0.00000  Uiso   1.00
H34    H     0.16180   0.12416   0.21516   0.00000  Uiso   1.00
I35    I     0.20641   0.05376   0.14624   0.00000  Uiso   1.00
I36    I     0.16186   0.14453   0.37787   0.00000  Uiso   1.00
I37    I     0.05536   0.05335   0.12201   0.00000  Uiso   1.00
I38    I     0.27922   0.25634   0.40124   0.00000  Uiso   1.00
N39    N     0.14695   0.15216   0.23740   0.00000  Uiso   1.00
N40    N     0.18638   0.18117   0.26261   0.00000  Uiso   1.00
O41    O     0.29719   0.24631   0.25310   0.00000  Uiso   1.00
O42    O     0.03614   0.08702   0.24691   0.00000  Uiso   1.00
O43    O     0.05822   0.23702   0.24502   0.00000  Uiso   1.00
O44    O     0.27512   0.09632   0.25499   0.00000  Uiso   1.00
O45    O     0.30328   0.17397   0.32247   0.00000  Uiso   1.00
O46    O     0.03005   0.15937   0.17753   0.00000  Uiso   1.00
O47    O     0.06431   0.16467   0.31439   0.00000  Uiso   1.00
O48    O     0.26902   0.16866   0.18561   0.00000  Uiso   1.00
Zn49   Zn    0.27033   0.17287   0.25540   0.00000  Uiso   1.00
Zn50   Zn    0.06300   0.16046   0.24461   0.00000  Uiso   1.00
C51    C     0.34825   0.26479   0.24892   0.00000  Uiso   1.00
C52    C     0.64274   0.15392   0.16030   0.00000  Uiso   1.00
C53    C     0.37060   0.17321   0.39484   0.00000  Uiso   1.00
C54    C     0.62337   0.12601   0.11270   0.00000  Uiso   1.00
C55    C     0.34829   0.19899   0.47608   0.00000  Uiso   1.00
C56    C     0.63091   0.06808   0.04145   0.00000  Uiso   1.00
C57    C     0.33693   0.20033   0.42580   0.00000  Uiso   1.00
C58    C     0.65561   0.09193   0.08648   0.00000  Uiso   1.00
C59    C     0.41891   0.14842   0.41570   0.00000  Uiso   1.00
C60    C     0.56454   0.11593   0.10327   0.00000  Uiso   1.00
C61    C     0.42507   0.14115   0.46628   0.00000  Uiso   1.00
C62    C     0.65192   0.06859   0.25171   0.00000  Uiso   1.00
C63    C     0.54203   0.10602   0.05531   0.00000  Uiso   1.00
C64    C     0.39259   0.17083   0.49652   0.00000  Uiso   1.00
C65    C     0.57428   0.07735   0.02452   0.00000  Uiso   1.00
C66    C     0.46854   0.11164   0.48843   0.00000  Uiso   1.00
C67    C     0.48896   0.12363   0.03767   0.00000  Uiso   1.00
C68    C     0.45798   0.15551   0.06676   0.00000  Uiso   1.00
C69    C     0.49340   0.07126   0.46305   0.00000  Uiso   1.00
C70    C     0.40862   0.17664   0.04672   0.00000  Uiso   1.00
C71    C     0.54768   0.05633   0.47973   0.00000  Uiso   1.00
C72    C     0.35612   0.31933   0.24855   0.00000  Uiso   1.00
C73    C     0.64426   0.01409   0.25280   0.00000  Uiso   1.00
C74    C     0.35651   0.17151   0.34140   0.00000  Uiso   1.00
H75    H     0.38519   0.20054   0.07005   0.00000  Uiso   1.00
H76    H     0.50478   0.20958   0.28462   0.00000  Uiso   1.00
H77    H     0.56910   0.02971   0.45731   0.00000  Uiso   1.00
H78    H     0.65766   0.22246   0.49934   0.00000  Uiso   1.00
H79    H     0.65460   0.04129   0.02117   0.00000  Uiso   1.00
H80    H     0.47168   0.16434   0.10507   0.00000  Uiso   1.00
H81    H     0.47289   0.05408   0.42856   0.00000  Uiso   1.00
H82    H     0.39884   0.00284   0.24457   0.00000  Uiso   1.00
H83    H     0.60155   0.33059   0.25681   0.00000  Uiso   1.00
H84    H     0.49514   0.12416   0.21516   0.00000  Uiso   1.00
I85    I     0.53974   0.05376   0.14624   0.00000  Uiso   1.00
I86    I     0.49519   0.14453   0.37787   0.00000  Uiso   1.00
I87    I     0.38870   0.05335   0.12201   0.00000  Uiso   1.00
I88    I     0.61256   0.25634   0.40124   0.00000  Uiso   1.00
N89    N     0.48029   0.15216   0.23740   0.00000  Uiso   1.00
N90    N     0.51971   0.18117   0.26261   0.00000  Uiso   1.00
O91    O     0.63052   0.24631   0.25310   0.00000  Uiso   1.00
O92    O     0.36948   0.08702   0.24691   0.00000  Uiso   1.00
O93    O     0.39155   0.23702   0.24502   0.00000  Uiso   1.00
O94    O     0.60845   0.09632   0.25499   0.00000  Uiso   1.00
O95    O     0.63662   0.17397   0.32247   0.00000  Uiso   1.00
O96    O     0.36338   0.15937   0.17753   0.00000  Uiso   1.00
O97    O     0.39764   0.16467   0.31439   0.00000  Uiso   1.00
O98    O     0.60236   0.16866   0.18561   0.00000  Uiso   1.00
Zn99   Zn    0.60366   0.17287   0.25540   0.00000  Uiso   1.00
Zn100  Zn    0.39634   0.16046   0.24461   0.00000  Uiso   1.00
C101   C     0.68158   0.26479   0.24892   0.00000  Uiso   1.00
C102   C     0.97607   0.15392   0.16030   0.00000  Uiso   1.00
C103   C     0.70393   0.17321   0.39484   0.00000  Uiso   1.00
C104   C     0.95671   0.12601   0.11270   0.00000  Uiso   1.00
C105   C     0.68162   0.19899   0.47608   0.00000  Uiso   1.00
C106   C     0.96425   0.06808   0.04145   0.00000  Uiso   1.00
C107   C     0.67027   0.20033   0.42580   0.00000  Uiso   1.00
C108   C     0.98894   0.09193   0.08648   0.00000  Uiso   1.00
C109   C     0.75224   0.14842   0.41570   0.00000  Uiso   1.00
C110   C     0.89787   0.11593   0.10327   0.00000  Uiso   1.00
C111   C     0.75841   0.14115   0.46628   0.00000  Uiso   1.00
C112   C     0.98525   0.06859   0.25171   0.00000  Uiso   1.00
C113   C     0.87537   0.10602   0.05531   0.00000  Uiso   1.00
C114   C     0.72592   0.17083   0.49652   0.00000  Uiso   1.00
C115   C     0.90761   0.07735   0.02452   0.00000  Uiso   1.00
C116   C     0.80188   0.11164   0.48843   0.00000  Uiso   1.00
C117   C     0.82230   0.12363   0.03767   0.00000  Uiso   1.00
C118   C     0.79131   0.15551   0.06676   0.00000  Uiso   1.00
C119   C     0.82673   0.07126   0.46305   0.00000  Uiso   1.00
C120   C     0.74195   0.17664   0.04672   0.00000  Uiso   1.00
C121   C     0.88101   0.05633   0.47973   0.00000  Uiso   1.00
C122   C     0.68946   0.31933   0.24855   0.00000  Uiso   1.00
C123   C     0.97760   0.01409   0.25280   0.00000  Uiso   1.00
C124   C     0.68984   0.17151   0.34140   0.00000  Uiso   1.00
H125   H     0.71852   0.20054   0.07005   0.00000  Uiso   1.00
H126   H     0.83811   0.20958   0.28462   0.00000  Uiso   1.00
H127   H     0.90243   0.02971   0.45731   0.00000  Uiso   1.00
H128   H     0.99099   0.22246   0.49934   0.00000  Uiso   1.00
H129   H     0.98793   0.04129   0.02117   0.00000  Uiso   1.00
H130   H     0.80501   0.16434   0.10507   0.00000  Uiso   1.00
H131   H     0.80622   0.05408   0.42856   0.00000  Uiso   1.00
H132   H     0.73217   0.00284   0.24457   0.00000  Uiso   1.00
H133   H     0.93489   0.33059   0.25681   0.00000  Uiso   1.00
H134   H     0.82847   0.12416   0.21516   0.00000  Uiso   1.00
I135   I     0.87307   0.05376   0.14624   0.00000  Uiso   1.00
I136   I     0.82853   0.14453   0.37787   0.00000  Uiso   1.00
I137   I     0.72203   0.05335   0.12201   0.00000  Uiso   1.00
I138   I     0.94589   0.25634   0.40124   0.00000  Uiso   1.00
N139   N     0.81362   0.15216   0.23740   0.00000  Uiso   1.00
N140   N     0.85305   0.18117   0.26261   0.00000  Uiso   1.00
O141   O     0.96386   0.24631   0.25310   0.00000  Uiso   1.00
O142   O     0.70281   0.08702   0.24691   0.00000  Uiso   1.00
O143   O     0.72488   0.23702   0.24502   0.00000  Uiso   1.00
O144   O     0.94178   0.09632   0.25499   0.00000  Uiso   1.00
O145   O     0.96995   0.17397   0.32247   0.00000  Uiso   1.00
O146   O     0.69672   0.15937   0.17753   0.00000  Uiso   1.00
O147   O     0.73098   0.16467   0.31439   0.00000  Uiso   1.00
O148   O     0.93569   0.16866   0.18561   0.00000  Uiso   1.00
Zn149  Zn    0.93700   0.17287   0.25540   0.00000  Uiso   1.00
Zn150  Zn    0.72967   0.16046   0.24461   0.00000  Uiso   1.00
C151   C     0.01492   0.59812   0.24892   0.00000  Uiso   1.00
C152   C     0.30941   0.48725   0.16030   0.00000  Uiso   1.00
C153   C     0.03726   0.50654   0.39484   0.00000  Uiso   1.00
C154   C     0.29004   0.45935   0.11270   0.00000  Uiso   1.00
C155   C     0.01495   0.53232   0.47608   0.00000  Uiso   1.00
C156   C     0.29758   0.40141   0.04145   0.00000  Uiso   1.00
C157   C     0.00360   0.53366   0.42580   0.00000  Uiso   1.00
C158   C     0.32227   0.42526   0.08648   0.00000  Uiso   1.00
C159   C     0.08558   0.48175   0.41570   0.00000  Uiso   1.00
C160   C     0.23121   0.44927   0.10327   0.00000  Uiso   1.00
C161   C     0.09174   0.47448   0.46628   0.00000  Uiso   1.00
C162   C     0.31859   0.40192   0.25171   0.00000  Uiso   1.00
C163   C     0.20870   0.43935   0.05531   0.00000  Uiso   1.00
C164   C     0.05925   0.50417   0.49652   0.00000  Uiso   1.00
C165   C     0.24094   0.41068   0.02452   0.00000  Uiso   1.00
C166   C     0.13521   0.44498   0.48843   0.00000  Uiso   1.00
C167   C     0.15563   0.45696   0.03767   0.00000  Uiso   1.00
C168   C     0.12464   0.48885   0.06676   0.00000  Uiso   1.00
C169   C     0.16006   0.40459   0.46305   0.00000  Uiso   1.00
C170   C     0.07529   0.50997   0.04672   0.00000  Uiso   1.00
C171   C     0.21434   0.38966   0.47973   0.00000  Uiso   1.00
C172   C     0.02279   0.65267   0.24855   0.00000  Uiso   1.00
C173   C     0.31093   0.34742   0.25280   0.00000  Uiso   1.00
C174   C     0.02317   0.50485   0.34140   0.00000  Uiso   1.00
H175   H     0.05186   0.53388   0.07005   0.00000  Uiso   1.00
H176   H     0.17144   0.54291   0.28462   0.00000  Uiso   1.00
H177   H     0.23576   0.36304   0.45731   0.00000  Uiso   1.00
H178   H     0.32432   0.55579   0.49934   0.00000  Uiso   1.00
H179   H     0.32126   0.37462   0.02117   0.00000  Uiso   1.00
H180   H     0.13835   0.49767   0.10507   0.00000  Uiso   1.00
H181   H     0.13955   0.38742   0.42856   0.00000  Uiso   1.00
H182   H     0.06550   0.33617   0.24457   0.00000  Uiso   1.00
H183   H     0.26822   0.66393   0.25681   0.00000  Uiso   1.00
H184   H     0.16180   0.45750   0.21516   0.00000  Uiso   1.00
I185   I     0.20641   0.38709   0.14624   0.00000  Uiso   1.00
I186   I     0.16186   0.47786   0.37787   0.00000  Uiso   1.00
I187   I     0.05536   0.38668   0.12201   0.00000  Uiso   1.00
I188   I     0.27922   0.58967   0.40124   0.00000  Uiso   1.00
N189   N     0.14695   0.48550   0.23740   0.00000  Uiso   1.00
N190   N     0.18638   0.51450   0.26261   0.00000  Uiso   1.00
O191   O     0.29719   0.57964   0.25310   0.00000  Uiso   1.00
O192   O     0.03614   0.42036   0.24691   0.00000  Uiso   1.00
O193   O     0.05822   0.57035   0.24502   0.00000  Uiso   1.00
O194   O     0.27512   0.42965   0.25499   0.00000  Uiso   1.00
O195   O     0.30328   0.50730   0.32247   0.00000  Uiso   1.00
O196   O     0.03005   0.49270   0.17753   0.00000  Uiso   1.00
O197   O     0.06431   0.49801   0.31439   0.00000  Uiso   1.00
O198   O     0.26902   0.50199   0.18561   0.00000  Uiso   1.00
Zn199  Zn    0.27033   0.50621   0.25540   0.00000  Uiso   1.00
Zn200  Zn    0.06300   0.49379   0.24461   0.00000  Uiso   1.00
C201   C     0.34825   0.59812   0.24892   0.00000  Uiso   1.00
C202   C     0.64274   0.48725   0.16030   0.00000  Uiso   1.00
C203   C     0.37060   0.50654   0.39484   0.00000  Uiso   1.00
C204   C     0.62337   0.45935   0.11270   0.00000  Uiso   1.00
C205   C     0.34829   0.53232   0.47608   0.00000  Uiso   1.00
C206   C     0.63091   0.40141   0.04145   0.00000  Uiso   1.00
C207   C     0.33693   0.53366   0.42580   0.00000  Uiso   1.00
C208   C     0.65561   0.42526   0.08648   0.00000  Uiso   1.00
C209   C     0.41891   0.48175   0.41570   0.00000  Uiso   1.00
C210   C     0.56454   0.44927   0.10327   0.00000  Uiso   1.00
C211   C     0.42507   0.47448   0.46628   0.00000  Uiso   1.00
C212   C     0.65192   0.40192   0.25171   0.00000  Uiso   1.00
C213   C     0.54203   0.43935   0.05531   0.00000  Uiso   1.00
C214   C     0.39259   0.50417   0.49652   0.00000  Uiso   1.00
C215   C     0.57428   0.41068   0.02452   0.00000  Uiso   1.00
C216   C     0.46854   0.44498   0.48843   0.00000  Uiso   1.00
C217   C     0.48896   0.45696   0.03767   0.00000  Uiso   1.00
C218   C     0.45798   0.48885   0.06676   0.00000  Uiso   1.00
C219   C     0.49340   0.40459   0.46305   0.00000  Uiso   1.00
C220   C     0.40862   0.50997   0.04672   0.00000  Uiso   1.00
C221   C     0.54768   0.38966   0.47973   0.00000  Uiso   1.00
C222   C     0.35612   0.65267   0.24855   0.00000  Uiso   1.00
C223   C     0.64426   0.34742   0.25280   0.00000  Uiso   1.00
C224   C     0.35651   0.50485   0.34140   0.00000  Uiso   1.00
H225   H     0.38519   0.53388   0.07005   0.00000  Uiso   1.00
H226   H     0.50478   0.54291   0.28462   0.00000  Uiso   1.00
H227   H     0.56910   0.36304   0.45731   0.00000  Uiso   1.00
H228   H     0.65766   0.55579   0.49934   0.00000  Uiso   1.00
H229   H     0.65460   0.37462   0.02117   0.00000  Uiso   1.00
H230   H     0.47168   0.49767   0.10507   0.00000  Uiso   1.00
H231   H     0.47289   0.38742   0.42856   0.00000  Uiso   1.00
H232   H     0.39884   0.33617   0.24457   0.00000  Uiso   1.00
H233   H     0.60155   0.66393   0.25681   0.00000  Uiso   1.00
H234   H     0.49514   0.45750   0.21516   0.00000  Uiso   1.00
I235   I     0.53974   0.38709   0.14624   0.00000  Uiso   1.00
I236   I     0.49519   0.47786   0.37787   0.00000  Uiso   1.00
I237   I     0.38870   0.38668   0.12201   0.00000  Uiso   1.00
I238   I     0.61256   0.58967   0.40124   0.00000  Uiso   1.00
N239   N     0.48029   0.48550   0.23740   0.00000  Uiso   1.00
N240   N     0.51971   0.51450   0.26261   0.00000  Uiso   1.00
O241   O     0.63052   0.57964   0.25310   0.00000  Uiso   1.00
O242   O     0.36948   0.42036   0.24691   0.00000  Uiso   1.00
O243   O     0.39155   0.57035   0.24502   0.00000  Uiso   1.00
O244   O     0.60845   0.42965   0.25499   0.00000  Uiso   1.00
O245   O     0.63662   0.50730   0.32247   0.00000  Uiso   1.00
O246   O     0.36338   0.49270   0.17753   0.00000  Uiso   1.00
O247   O     0.39764   0.49801   0.31439   0.00000  Uiso   1.00
O248   O     0.60236   0.50199   0.18561   0.00000  Uiso   1.00
Zn249  Zn    0.60366   0.50621   0.25540   0.00000  Uiso   1.00
Zn250  Zn    0.39634   0.49379   0.24461   0.00000  Uiso   1.00
C251   C     0.68158   0.59812   0.24892   0.00000  Uiso   1.00
C252   C     0.97607   0.48725   0.16030   0.00000  Uiso   1.00
C253   C     0.70393   0.50654   0.39484   0.00000  Uiso   1.00
C254   C     0.95671   0.45935   0.11270   0.00000  Uiso   1.00
C255   C     0.68162   0.53232   0.47608   0.00000  Uiso   1.00
C256   C     0.96425   0.40141   0.04145   0.00000  Uiso   1.00
C257   C     0.67027   0.53366   0.42580   0.00000  Uiso   1.00
C258   C     0.98894   0.42526   0.08648   0.00000  Uiso   1.00
C259   C     0.75224   0.48175   0.41570   0.00000  Uiso   1.00
C260   C     0.89787   0.44927   0.10327   0.00000  Uiso   1.00
C261   C     0.75841   0.47448   0.46628   0.00000  Uiso   1.00
C262   C     0.98525   0.40192   0.25171   0.00000  Uiso   1.00
C263   C     0.87537   0.43935   0.05531   0.00000  Uiso   1.00
C264   C     0.72592   0.50417   0.49652   0.00000  Uiso   1.00
C265   C     0.90761   0.41068   0.02452   0.00000  Uiso   1.00
C266   C     0.80188   0.44498   0.48843   0.00000  Uiso   1.00
C267   C     0.82230   0.45696   0.03767   0.00000  Uiso   1.00
C268   C     0.79131   0.48885   0.06676   0.00000  Uiso   1.00
C269   C     0.82673   0.40459   0.46305   0.00000  Uiso   1.00
C270   C     0.74195   0.50997   0.04672   0.00000  Uiso   1.00
C271   C     0.88101   0.38966   0.47973   0.00000  Uiso   1.00
C272   C     0.68946   0.65267   0.24855   0.00000  Uiso   1.00
C273   C     0.97760   0.34742   0.25280   0.00000  Uiso   1.00
C274   C     0.68984   0.50485   0.34140   0.00000  Uiso   1.00
H275   H     0.71852   0.53388   0.07005   0.00000  Uiso   1.00
H276   H     0.83811   0.54291   0.28462   0.00000  Uiso   1.00
H277   H     0.90243   0.36304   0.45731   0.00000  Uiso   1.00
H278   H     0.99099   0.55579   0.49934   0.00000  Uiso   1.00
H279   H     0.98793   0.37462   0.02117   0.00000  Uiso   1.00
H280   H     0.80501   0.49767   0.10507   0.00000  Uiso   1.00
H281   H     0.80622   0.38742   0.42856   0.00000  Uiso   1.00
H282   H     0.73217   0.33617   0.24457   0.00000  Uiso   1.00
H283   H     0.93489   0.66393   0.25681   0.00000  Uiso   1.00
H284   H     0.82847   0.45750   0.21516   0.00000  Uiso   1.00
I285   I     0.87307   0.38709   0.14624   0.00000  Uiso   1.00
I286   I     0.82853   0.47786   0.37787   0.00000  Uiso   1.00
I287   I     0.72203   0.38668   0.12201   0.00000  Uiso   1.00
I288   I     0.94589   0.58967   0.40124   0.00000  Uiso   1.00
N289   N     0.81362   0.48550   0.23740   0.00000  Uiso   1.00
N290   N     0.85305   0.51450   0.26261   0.00000  Uiso   1.00
O291   O     0.96386   0.57964   0.25310   0.00000  Uiso   1.00
O292   O     0.70281   0.42036   0.24691   0.00000  Uiso   1.00
O293   O     0.72488   0.57035   0.24502   0.00000  Uiso   1.00
O294   O     0.94178   0.42965   0.25499   0.00000  Uiso   1.00
O295   O     0.96995   0.50730   0.32247   0.00000  Uiso   1.00
O296   O     0.69672   0.49270   0.17753   0.00000  Uiso   1.00
O297   O     0.73098   0.49801   0.31439   0.00000  Uiso   1.00
O298   O     0.93569   0.50199   0.18561   0.00000  Uiso   1.00
Zn299  Zn    0.93700   0.50621   0.25540   0.00000  Uiso   1.00
Zn300  Zn    0.72967   0.49379   0.24461   0.00000  Uiso   1.00
C301   C     0.01492   0.93145   0.24892   0.00000  Uiso   1.00
C302   C     0.30941   0.82059   0.16030   0.00000  Uiso   1.00
C303   C     0.03726   0.83987   0.39484   0.00000  Uiso   1.00
C304   C     0.29004   0.79268   0.11270   0.00000  Uiso   1.00
C305   C     0.01495   0.86566   0.47608   0.00000  Uiso   1.00
C306   C     0.29758   0.73475   0.04145   0.00000  Uiso   1.00
C307   C     0.00360   0.86700   0.42580   0.00000  Uiso   1.00
C308   C     0.32227   0.75860   0.08648   0.00000  Uiso   1.00
C309   C     0.08558   0.81509   0.41570   0.00000  Uiso   1.00
C310   C     0.23121   0.78260   0.10327   0.00000  Uiso   1.00
C311   C     0.09174   0.80781   0.46628   0.00000  Uiso   1.00
C312   C     0.31859   0.73525   0.25171   0.00000  Uiso   1.00
C313   C     0.20870   0.77268   0.05531   0.00000  Uiso   1.00
C314   C     0.05925   0.83750   0.49652   0.00000  Uiso   1.00
C315   C     0.24094   0.74402   0.02452   0.00000  Uiso   1.00
C316   C     0.13521   0.77831   0.48843   0.00000  Uiso   1.00
C317   C     0.15563   0.79029   0.03767   0.00000  Uiso   1.00
C318   C     0.12464   0.82218   0.06676   0.00000  Uiso   1.00
C319   C     0.16006   0.73793   0.46305   0.00000  Uiso   1.00
C320   C     0.07529   0.84330   0.04672   0.00000  Uiso   1.00
C321   C     0.21434   0.72299   0.47973   0.00000  Uiso   1.00
C322   C     0.02279   0.98600   0.24855   0.00000  Uiso   1.00
C323   C     0.31093   0.68076   0.25280   0.00000  Uiso   1.00
C324   C     0.02317   0.83818   0.34140   0.00000  Uiso   1.00
H325   H     0.05186   0.86721   0.07005   0.00000  Uiso   1.00
H326   H     0.17144   0.87625   0.28462   0.00000  Uiso   1.00
H327   H     0.23576   0.69638   0.45731   0.00000  Uiso   1.00
H328   H     0.32432   0.88913   0.49934   0.00000  Uiso   1.00
H329   H     0.32126   0.70796   0.02117   0.00000  Uiso   1.00
H330   H     0.13835   0.83101   0.10507   0.00000  Uiso   1.00
H331   H     0.13955   0.72075   0.42856   0.00000  Uiso   1.00
H332   H     0.06550   0.66951   0.24457   0.00000  Uiso   1.00
H333   H     0.26822   0.99726   0.25681   0.00000  Uiso   1.00
H334   H     0.16180   0.79083   0.21516   0.00000  Uiso   1.00
I335   I     0.20641   0.72042   0.14624   0.00000  Uiso   1.00
I336   I     0.16186   0.81120   0.37787   0.00000  Uiso   1.00
I337   I     0.05536   0.72001   0.12201   0.00000  Uiso   1.00
I338   I     0.27922   0.92300   0.40124   0.00000  Uiso   1.00
N339   N     0.14695   0.81883   0.23740   0.00000  Uiso   1.00
N340   N     0.18638   0.84784   0.26261   0.00000  Uiso   1.00
O341   O     0.29719   0.91298   0.25310   0.00000  Uiso   1.00
O342   O     0.03614   0.75369   0.24691   0.00000  Uiso   1.00
O343   O     0.05822   0.90368   0.24502   0.00000  Uiso   1.00
O344   O     0.27512   0.76298   0.25499   0.00000  Uiso   1.00
O345   O     0.30328   0.84063   0.32247   0.00000  Uiso   1.00
O346   O     0.03005   0.82603   0.17753   0.00000  Uiso   1.00
O347   O     0.06431   0.83134   0.31439   0.00000  Uiso   1.00
O348   O     0.26902   0.83533   0.18561   0.00000  Uiso   1.00
Zn349  Zn    0.27033   0.83954   0.25540   0.00000  Uiso   1.00
Zn350  Zn    0.06300   0.82713   0.24461   0.00000  Uiso   1.00
C351   C     0.34825   0.93145   0.24892   0.00000  Uiso   1.00
C352   C     0.64274   0.82059   0.16030   0.00000  Uiso   1.00
C353   C     0.37060   0.83987   0.39484   0.00000  Uiso   1.00
C354   C     0.62337   0.79268   0.11270   0.00000  Uiso   1.00
C355   C     0.34829   0.86566   0.47608   0.00000  Uiso   1.00
C356   C     0.63091   0.73475   0.04145   0.00000  Uiso   1.00
C357   C     0.33693   0.86700   0.42580   0.00000  Uiso   1.00
C358   C     0.65561   0.75860   0.08648   0.00000  Uiso   1.00
C359   C     0.41891   0.81509   0.41570   0.00000  Uiso   1.00
C360   C     0.56454   0.78260   0.10327   0.00000  Uiso   1.00
C361   C     0.42507   0.80781   0.46628   0.00000  Uiso   1.00
C362   C     0.65192   0.73525   0.25171   0.00000  Uiso   1.00
C363   C     0.54203   0.77268   0.05531   0.00000  Uiso   1.00
C364   C     0.39259   0.83750   0.49652   0.00000  Uiso   1.00
C365   C     0.57428   0.74402   0.02452   0.00000  Uiso   1.00
C366   C     0.46854   0.77831   0.48843   0.00000  Uiso   1.00
C367   C     0.48896   0.79029   0.03767   0.00000  Uiso   1.00
C368   C     0.45798   0.82218   0.06676   0.00000  Uiso   1.00
C369   C     0.49340   0.73793   0.46305   0.00000  Uiso   1.00
C370   C     0.40862   0.84330   0.04672   0.00000  Uiso   1.00
C371   C     0.54768   0.72299   0.47973   0.00000  Uiso   1.00
C372   C     0.35612   0.98600   0.24855   0.00000  Uiso   1.00
C373   C     0.64426   0.68076   0.25280   0.00000  Uiso   1.00
C374   C     0.35651   0.83818   0.34140   0.00000  Uiso   1.00
H375   H     0.38519   0.86721   0.07005   0.00000  Uiso   1.00
H376   H     0.50478   0.87625   0.28462   0.00000  Uiso   1.00
H377   H     0.56910   0.69638   0.45731   0.00000  Uiso   1.00
H378   H     0.65766   0.88913   0.49934   0.00000  Uiso   1.00
H379   H     0.65460   0.70796   0.02117   0.00000  Uiso   1.00
H380   H     0.47168   0.83101   0.10507   0.00000  Uiso   1.00
H381   H     0.47289   0.72075   0.42856   0.00000  Uiso   1.00
H382   H     0.39884   0.66951   0.24457   0.00000  Uiso   1.00
H383   H     0.60155   0.99726   0.25681   0.00000  Uiso   1.00
H384   H     0.49514   0.79083   0.21516   0.00000  Uiso   1.00
I385   I     0.53974   0.72042   0.14624   0.00000  Uiso   1.00
I386   I     0.49519   0.81120   0.37787   0.00000  Uiso   1.00
I387   I     0.38870   0.72001   0.12201   0.00000  Uiso   1.00
I388   I     0.61256   0.92300   0.40124   0.00000  Uiso   1.00
N389   N     0.48029   0.81883   0.23740   0.00000  Uiso   1.00
N390   N     0.51971   0.84784   0.26261   0.00000  Uiso   1.00
O391   O     0.63052   0.91298   0.25310   0.00000  Uiso   1.00
O392   O     0.36948   0.75369   0.24691   0.00000  Uiso   1.00
O393   O     0.39155   0.90368   0.24502   0.00000  Uiso   1.00
O394   O     0.60845   0.76298   0.25499   0.00000  Uiso   1.00
O395   O     0.63662   0.84063   0.32247   0.00000  Uiso   1.00
O396   O     0.36338   0.82603   0.17753   0.00000  Uiso   1.00
O397   O     0.39764   0.83134   0.31439   0.00000  Uiso   1.00
O398   O     0.60236   0.83533   0.18561   0.00000  Uiso   1.00
Zn399  Zn    0.60366   0.83954   0.25540   0.00000  Uiso   1.00
Zn400  Zn    0.39634   0.82713   0.24461   0.00000  Uiso   1.00
C401   C     0.68158   0.93145   0.24892   0.00000  Uiso   1.00
C402   C     0.97607   0.82059   0.16030   0.00000  Uiso   1.00
C403   C     0.70393   0.83987   0.39484   0.00000  Uiso   1.00
C404   C     0.95671   0.79268   0.11270   0.00000  Uiso   1.00
C405   C     0.68162   0.86566   0.47608   0.00000  Uiso   1.00
C406   C     0.96425   0.73475   0.04145   0.00000  Uiso   1.00
C407   C     0.67027   0.86700   0.42580   0.00000  Uiso   1.00
C408   C     0.98894   0.75860   0.08648   0.00000  Uiso   1.00
C409   C     0.75224   0.81509   0.41570   0.00000  Uiso   1.00
C410   C     0.89787   0.78260   0.10327   0.00000  Uiso   1.00
C411   C     0.75841   0.80781   0.46628   0.00000  Uiso   1.00
C412   C     0.98525   0.73525   0.25171   0.00000  Uiso   1.00
C413   C     0.87537   0.77268   0.05531   0.00000  Uiso   1.00
C414   C     0.72592   0.83750   0.49652   0.00000  Uiso   1.00
C415   C     0.90761   0.74402   0.02452   0.00000  Uiso   1.00
C416   C     0.80188   0.77831   0.48843   0.00000  Uiso   1.00
C417   C     0.82230   0.79029   0.03767   0.00000  Uiso   1.00
C418   C     0.79131   0.82218   0.06676   0.00000  Uiso   1.00
C419   C     0.82673   0.73793   0.46305   0.00000  Uiso   1.00
C420   C     0.74195   0.84330   0.04672   0.00000  Uiso   1.00
C421   C     0.88101   0.72299   0.47973   0.00000  Uiso   1.00
C422   C     0.68946   0.98600   0.24855   0.00000  Uiso   1.00
C423   C     0.97760   0.68076   0.25280   0.00000  Uiso   1.00
C424   C     0.68984   0.83818   0.34140   0.00000  Uiso   1.00
H425   H     0.71852   0.86721   0.07005   0.00000  Uiso   1.00
H426   H     0.83811   0.87625   0.28462   0.00000  Uiso   1.00
H427   H     0.90243   0.69638   0.45731   0.00000  Uiso   1.00
H428   H     0.99099   0.88913   0.49934   0.00000  Uiso   1.00
H429   H     0.98793   0.70796   0.02117   0.00000  Uiso   1.00
H430   H     0.80501   0.83101   0.10507   0.00000  Uiso   1.00
H431   H     0.80622   0.72075   0.42856   0.00000  Uiso   1.00
H432   H     0.73217   0.66951   0.24457   0.00000  Uiso   1.00
H433   H     0.93489   0.99726   0.25681   0.00000  Uiso   1.00
H434   H     0.82847   0.79083   0.21516   0.00000  Uiso   1.00
I435   I     0.87307   0.72042   0.14624   0.00000  Uiso   1.00
I436   I     0.82853   0.81120   0.37787   0.00000  Uiso   1.00
I437   I     0.72203   0.72001   0.12201   0.00000  Uiso   1.00
I438   I     0.94589   0.92300   0.40124   0.00000  Uiso   1.00
N439   N     0.81362   0.81883   0.23740   0.00000  Uiso   1.00
N440   N     0.85305   0.84784   0.26261   0.00000  Uiso   1.00
O441   O     0.96386   0.91298   0.25310   0.00000  Uiso   1.00
O442   O     0.70281   0.75369   0.24691   0.00000  Uiso   1.00
O443   O     0.72488   0.90368   0.24502   0.00000  Uiso   1.00
O444   O     0.94178   0.76298   0.25499   0.00000  Uiso   1.00
O445   O     0.96995   0.84063   0.32247   0.00000  Uiso   1.00
O446   O     0.69672   0.82603   0.17753   0.00000  Uiso   1.00
O447   O     0.73098   0.83134   0.31439   0.00000  Uiso   1.00
O448   O     0.93569   0.83533   0.18561   0.00000  Uiso   1.00
Zn449  Zn    0.93700   0.83954   0.25540   0.00000  Uiso   1.00
Zn450  Zn    0.72967   0.82713   0.24461   0.00000  Uiso   1.00
C451   C     0.01492   0.26479   0.74892   0.00000  Uiso   1.00
C452   C     0.30941   0.15392   0.66030   0.00000  Uiso   1.00
C453   C     0.03726   0.17321   0.89484   0.00000  Uiso   1.00
C454   C     0.29004   0.12601   0.61270   0.00000  Uiso   1.00
C455   C     0.01495   0.19899   0.97608   0.00000  Uiso   1.00
C456   C     0.29758   0.06808   0.54145   0.00000  Uiso   1.00
C457   C     0.00360   0.20033   0.92580   0.00000  Uiso   1.00
C458   C     0.32227   0.09193   0.58648   0.00000  Uiso   1.00
C459   C     0.08558   0.14842   0.91570   0.00000  Uiso   1.00
C460   C     0.23121   0.11593   0.60327   0.00000  Uiso   1.00
C461   C     0.09174   0.14115   0.96628   0.00000  Uiso   1.00
C462   C     0.31859   0.06859   0.75171   0.00000  Uiso   1.00
C463   C     0.20870   0.10602   0.55531   0.00000  Uiso   1.00
C464   C     0.05925   0.17083   0.99652   0.00000  Uiso   1.00
C465   C     0.24094   0.07735   0.52452   0.00000  Uiso   1.00
C466   C     0.13521   0.11164   0.98843   0.00000  Uiso   1.00
C467   C     0.15563   0.12363   0.53767   0.00000  Uiso   1.00
C468   C     0.12464   0.15551   0.56676   0.00000  Uiso   1.00
C469   C     0.16006   0.07126   0.96305   0.00000  Uiso   1.00
C470   C     0.07529   0.17664   0.54672   0.00000  Uiso   1.00
C471   C     0.21434   0.05633   0.97973   0.00000  Uiso   1.00
C472   C     0.02279   0.31933   0.74855   0.00000  Uiso   1.00
C473   C     0.31093   0.01409   0.75280   0.00000  Uiso   1.00
C474   C     0.02317   0.17151   0.84140   0.00000  Uiso   1.00
H475   H     0.05186   0.20054   0.57005   0.00000  Uiso   1.00
H476   H     0.17144   0.20958   0.78462   0.00000  Uiso   1.00
H477   H     0.23576   0.02971   0.95731   0.00000  Uiso   1.00
H478   H     0.32432   0.22246   0.99934   0.00000  Uiso   1.00
H479   H     0.32126   0.04129   0.52117   0.00000  Uiso   1.00
H480   H     0.13835   0.16434   0.60507   0.00000  Uiso   1.00
H481   H     0.13955   0.05408   0.92856   0.00000  Uiso   1.00
H482   H     0.06550   0.00284   0.74457   0.00000  Uiso   1.00
H483   H     0.26822   0.33059   0.75681   0.00000  Uiso   1.00
H484   H     0.16180   0.12416   0.71516   0.00000  Uiso   1.00
I485   I     0.20641   0.05376   0.64624   0.00000  Uiso   1.00
I486   I     0.16186   0.14453   0.87787   0.00000  Uiso   1.00
I487   I     0.05536   0.05335   0.62201   0.00000  Uiso   1.00
I488   I     0.27922   0.25634   0.90124   0.00000  Uiso   1.00
N489   N     0.14695   0.15216   0.73740   0.00000  Uiso   1.00
N490   N     0.18638   0.18117   0.76261   0.00000  Uiso   1.00
O491   O     0.29719   0.24631   0.75310   0.00000  Uiso   1.00
O492   O     0.03614   0.08702   0.74691   0.00000  Uiso   1.00
O493   O     0.05822   0.23702   0.74502   0.00000  Uiso   1.00
O494   O     0.27512   0.09632   0.75499   0.00000  Uiso   1.00
O495   O     0.30328   0.17397   0.82247   0.00000  Uiso   1.00
O496   O     0.03005   0.15937   0.67753   0.00000  Uiso   1.00
O497   O     0.06431   0.16467   0.81439   0.00000  Uiso   1.00
O498   O     0.26902   0.16866   0.68561   0.00000  Uiso   1.00
Zn499  Zn    0.27033   0.17287   0.75540   0.00000  Uiso   1.00
Zn500  Zn    0.06300   0.16046   0.74461   0.00000  Uiso   1.00
C501   C     0.34825   0.26479   0.74892   0.00000  Uiso   1.00
C502   C     0.64274   0.15392   0.66030   0.00000  Uiso   1.00
C503   C     0.37060   0.17321   0.89484   0.00000  Uiso   1.00
C504   C     0.62337   0.12601   0.61270   0.00000  Uiso   1.00
C505   C     0.34829   0.19899   0.97608   0.00000  Uiso   1.00
C506   C     0.63091   0.06808   0.54145   0.00000  Uiso   1.00
C507   C     0.33693   0.20033   0.92580   0.00000  Uiso   1.00
C508   C     0.65561   0.09193   0.58648   0.00000  Uiso   1.00
C509   C     0.41891   0.14842   0.91570   0.00000  Uiso   1.00
C510   C     0.56454   0.11593   0.60327   0.00000  Uiso   1.00
C511   C     0.42507   0.14115   0.96628   0.00000  Uiso   1.00
C512   C     0.65192   0.06859   0.75171   0.00000  Uiso   1.00
C513   C     0.54203   0.10602   0.55531   0.00000  Uiso   1.00
C514   C     0.39259   0.17083   0.99652   0.00000  Uiso   1.00
C515   C     0.57428   0.07735   0.52452   0.00000  Uiso   1.00
C516   C     0.46854   0.11164   0.98843   0.00000  Uiso   1.00
C517   C     0.48896   0.12363   0.53767   0.00000  Uiso   1.00
C518   C     0.45798   0.15551   0.56676   0.00000  Uiso   1.00
C519   C     0.49340   0.07126   0.96305   0.00000  Uiso   1.00
C520   C     0.40862   0.17664   0.54672   0.00000  Uiso   1.00
C521   C     0.54768   0.05633   0.97973   0.00000  Uiso   1.00
C522   C     0.35612   0.31933   0.74855   0.00000  Uiso   1.00
C523   C     0.64426   0.01409   0.75280   0.00000  Uiso   1.00
C524   C     0.35651   0.17151   0.84140   0.00000  Uiso   1.00
H525   H     0.38519   0.20054   0.57005   0.00000  Uiso   1.00
H526   H     0.50478   0.20958   0.78462   0.00000  Uiso   1.00
H527   H     0.56910   0.02971   0.95731   0.00000  Uiso   1.00
H528   H     0.65766   0.22246   0.99934   0.00000  Uiso   1.00
H529   H     0.65460   0.04129   0.52117   0.00000  Uiso   1.00
H530   H     0.47168   0.16434   0.60507   0.00000  Uiso   1.00
H531   H     0.47289   0.05408   0.92856   0.00000  Uiso   1.00
H532   H     0.39884   0.00284   0.74457   0.00000  Uiso   1.00
H533   H     0.60155   0.33059   0.75681   0.00000  Uiso   1.00
H534   H     0.49514   0.12416   0.71516   0.00000  Uiso   1.00
I535   I     0.53974   0.05376   0.64624   0.00000  Uiso   1.00
I536   I     0.49519   0.14453   0.87787   0.00000  Uiso   1.00
I537   I     0.38870   0.05335   0.62201   0.00000  Uiso   1.00
I538   I     0.61256   0.25634   0.90124   0.00000  Uiso   1.00
N539   N     0.48029   0.15216   0.73740   0.00000  Uiso   1.00
N540   N     0.51971   0.18117   0.76261   0.00000  Uiso   1.00
O541   O     0.63052   0.24631   0.75310   0.00000  Uiso   1.00
O542   O     0.36948   0.08702   0.74691   0.00000  Uiso   1.00
O543   O     0.39155   0.23702   0.74502   0.00000  Uiso   1.00
O544   O     0.60845   0.09632   0.75499   0.00000  Uiso   1.00
O545   O     0.63662   0.17397   0.82247   0.00000  Uiso   1.00
O546   O     0.36338   0.15937   0.67753   0.00000  Uiso   1.00
O547   O     0.39764   0.16467   0.81439   0.00000  Uiso   1.00
O548   O     0.60236   0.16866   0.68561   0.00000  Uiso   1.00
Zn549  Zn    0.60366   0.17287   0.75540   0.00000  Uiso   1.00
Zn550  Zn    0.39634   0.16046   0.74461   0.00000  Uiso   1.00
C551   C     0.68158   0.26479   0.74892   0.00000  Uiso   1.00
C552   C     0.97607   0.15392   0.66030   0.00000  Uiso   1.00
C553   C     0.70393   0.17321   0.89484   0.00000  Uiso   1.00
C554   C     0.95671   0.12601   0.61270   0.00000  Uiso   1.00
C555   C     0.68162   0.19899   0.97608   0.00000  Uiso   1.00
C556   C     0.96425   0.06808   0.54145   0.00000  Uiso   1.00
C557   C     0.67027   0.20033   0.92580   0.00000  Uiso   1.00
C558   C     0.98894   0.09193   0.58648   0.00000  Uiso   1.00
C559   C     0.75224   0.14842   0.91570   0.00000  Uiso   1.00
C560   C     0.89787   0.11593   0.60327   0.00000  Uiso   1.00
C561   C     0.75841   0.14115   0.96628   0.00000  Uiso   1.00
C562   C     0.98525   0.06859   0.75171   0.00000  Uiso   1.00
C563   C     0.87537   0.10602   0.55531   0.00000  Uiso   1.00
C564   C     0.72592   0.17083   0.99652   0.00000  Uiso   1.00
C565   C     0.90761   0.07735   0.52452   0.00000  Uiso   1.00
C566   C     0.80188   0.11164   0.98843   0.00000  Uiso   1.00
C567   C     0.82230   0.12363   0.53767   0.00000  Uiso   1.00
C568   C     0.79131   0.15551   0.56676   0.00000  Uiso   1.00
C569   C     0.82673   0.07126   0.96305   0.00000  Uiso   1.00
C570   C     0.74195   0.17664   0.54672   0.00000  Uiso   1.00
C571   C     0.88101   0.05633   0.97973   0.00000  Uiso   1.00
C572   C     0.68946   0.31933   0.74855   0.00000  Uiso   1.00
C573   C     0.97760   0.01409   0.75280   0.00000  Uiso   1.00
C574   C     0.68984   0.17151   0.84140   0.00000  Uiso   1.00
H575   H     0.71852   0.20054   0.57005   0.00000  Uiso   1.00
H576   H     0.83811   0.20958   0.78462   0.00000  Uiso   1.00
H577   H     0.90243   0.02971   0.95731   0.00000  Uiso   1.00
H578   H     0.99099   0.22246   0.99934   0.00000  Uiso   1.00
H579   H     0.98793   0.04129   0.52117   0.00000  Uiso   1.00
H580   H     0.80501   0.16434   0.60507   0.00000  Uiso   1.00
H581   H     0.80622   0.05408   0.92856   0.00000  Uiso   1.00
H582   H     0.73217   0.00284   0.74457   0.00000  Uiso   1.00
H583   H     0.93489   0.33059   0.75681   0.00000  Uiso   1.00
H584   H     0.82847   0.12416   0.71516   0.00000  Uiso   1.00
I585   I     0.87307   0.05376   0.64624   0.00000  Uiso   1.00
I586   I     0.82853   0.14453   0.87787   0.00000  Uiso   1.00
I587   I     0.72203   0.05335   0.62201   0.00000  Uiso   1.00
I588   I     0.94589   0.25634   0.90124   0.00000  Uiso   1.00
N589   N     0.81362   0.15216   0.73740   0.00000  Uiso   1.00
N590   N     0.85305   0.18117   0.76261   0.00000  Uiso   1.00
O591   O     0.96386   0.24631   0.75310   0.00000  Uiso   1.00
O592   O     0.70281   0.08702   0.74691   0.00000  Uiso   1.00
O593   O     0.72488   0.23702   0.74502   0.00000  Uiso   1.00
O594   O     0.94178   0.09632   0.75499   0.00000  Uiso   1.00
O595   O     0.96995   0.17397   0.82247   0.00000  Uiso   1.00
O596   O     0.69672   0.15937   0.67753   0.00000  Uiso   1.00
O597   O     0.73098   0.16467   0.81439   0.00000  Uiso   1.00
O598   O     0.93569   0.16866   0.68561   0.00000  Uiso   1.00
Zn599  Zn    0.93700   0.17287   0.75540   0.00000  Uiso   1.00
Zn600  Zn    0.72967   0.16046   0.74461   0.00000  Uiso   1.00
C601   C     0.01492   0.59812   0.74892   0.00000  Uiso   1.00
C602   C     0.30941   0.48725   0.66030   0.00000  Uiso   1.00
C603   C     0.03726   0.50654   0.89484   0.00000  Uiso   1.00
C604   C     0.29004   0.45935   0.61270   0.00000  Uiso   1.00
C605   C     0.01495   0.53232   0.97608   0.00000  Uiso   1.00
C606   C     0.29758   0.40141   0.54145   0.00000  Uiso   1.00
C607   C     0.00360   0.53366   0.92580   0.00000  Uiso   1.00
C608   C     0.32227   0.42526   0.58648   0.00000  Uiso   1.00
C609   C     0.08558   0.48175   0.91570   0.00000  Uiso   1.00
C610   C     0.23121   0.44927   0.60327   0.00000  Uiso   1.00
C611   C     0.09174   0.47448   0.96628   0.00000  Uiso   1.00
C612   C     0.31859   0.40192   0.75171   0.00000  Uiso   1.00
C613   C     0.20870   0.43935   0.55531   0.00000  Uiso   1.00
C614   C     0.05925   0.50417   0.99652   0.00000  Uiso   1.00
C615   C     0.24094   0.41068   0.52452   0.00000  Uiso   1.00
C616   C     0.13521   0.44498   0.98843   0.00000  Uiso   1.00
C617   C     0.15563   0.45696   0.53767   0.00000  Uiso   1.00
C618   C     0.12464   0.48885   0.56676   0.00000  Uiso   1.00
C619   C     0.16006   0.40459   0.96305   0.00000  Uiso   1.00
C620   C     0.07529   0.50997   0.54672   0.00000  Uiso   1.00
C621   C     0.21434   0.38966   0.97973   0.00000  Uiso   1.00
C622   C     0.02279   0.65267   0.74855   0.00000  Uiso   1.00
C623   C     0.31093   0.34742   0.75280   0.00000  Uiso   1.00
C624   C     0.02317   0.50485   0.84140   0.00000  Uiso   1.00
H625   H     0.05186   0.53388   0.57005   0.00000  Uiso   1.00
H626   H     0.17144   0.54291   0.78462   0.00000  Uiso   1.00
H627   H     0.23576   0.36304   0.95731   0.00000  Uiso   1.00
H628   H     0.32432   0.55579   0.99934   0.00000  Uiso   1.00
H629   H     0.32126   0.37462   0.52117   0.00000  Uiso   1.00
H630   H     0.13835   0.49767   0.60507   0.00000  Uiso   1.00
H631   H     0.13955   0.38742   0.92856   0.00000  Uiso   1.00
H632   H     0.06550   0.33617   0.74457   0.00000  Uiso   1.00
H633   H     0.26822   0.66393   0.75681   0.00000  Uiso   1.00
H634   H     0.16180   0.45750   0.71516   0.00000  Uiso   1.00
I635   I     0.20641   0.38709   0.64624   0.00000  Uiso   1.00
I636   I     0.16186   0.47786   0.87787   0.00000  Uiso   1.00
I637   I     0.05536   0.38668   0.62201   0.00000  Uiso   1.00
I638   I     0.27922   0.58967   0.90124   0.00000  Uiso   1.00
N639   N     0.14695   0.48550   0.73740   0.00000  Uiso   1.00
N640   N     0.18638   0.51450   0.76261   0.00000  Uiso   1.00
O641   O     0.29719   0.57964   0.75310   0.00000  Uiso   1.00
O642   O     0.03614   0.42036   0.74691   0.00000  Uiso   1.00
O643   O     0.05822   0.57035   0.74502   0.00000  Uiso   1.00
O644   O     0.27512   0.42965   0.75499   0.00000  Uiso   1.00
O645   O     0.30328   0.50730   0.82247   0.00000  Uiso   1.00
O646   O     0.03005   0.49270   0.67753   0.00000  Uiso   1.00
O647   O     0.06431   0.49801   0.81439   0.00000  Uiso   1.00
O648   O     0.26902   0.50199   0.68561   0.00000  Uiso   1.00
Zn649  Zn    0.27033   0.50621   0.75540   0.00000  Uiso   1.00
Zn650  Zn    0.06300   0.49379   0.74461   0.00000  Uiso   1.00
C651   C     0.34825   0.59812   0.74892   0.00000  Uiso   1.00
C652   C     0.64274   0.48725   0.66030   0.00000  Uiso   1.00
C653   C     0.37060   0.50654   0.89484   0.00000  Uiso   1.00
C654   C     0.62337   0.45935   0.61270   0.00000  Uiso   1.00
C655   C     0.34829   0.53232   0.97608   0.00000  Uiso   1.00
C656   C     0.63091   0.40141   0.54145   0.00000  Uiso   1.00
C657   C     0.33693   0.53366   0.92580   0.00000  Uiso   1.00
C658   C     0.65561   0.42526   0.58648   0.00000  Uiso   1.00
C659   C     0.41891   0.48175   0.91570   0.00000  Uiso   1.00
C660   C     0.56454   0.44927   0.60327   0.00000  Uiso   1.00
C661   C     0.42507   0.47448   0.96628   0.00000  Uiso   1.00
C662   C     0.65192   0.40192   0.75171   0.00000  Uiso   1.00
C663   C     0.54203   0.43935   0.55531   0.00000  Uiso   1.00
C664   C     0.39259   0.50417   0.99652   0.00000  Uiso   1.00
C665   C     0.57428   0.41068   0.52452   0.00000  Uiso   1.00
C666   C     0.46854   0.44498   0.98843   0.00000  Uiso   1.00
C667   C     0.48896   0.45696   0.53767   0.00000  Uiso   1.00
C668   C     0.45798   0.48885   0.56676   0.00000  Uiso   1.00
C669   C     0.49340   0.40459   0.96305   0.00000  Uiso   1.00
C670   C     0.40862   0.50997   0.54672   0.00000  Uiso   1.00
C671   C     0.54768   0.38966   0.97973   0.00000  Uiso   1.00
C672   C     0.35612   0.65267   0.74855   0.00000  Uiso   1.00
C673   C     0.64426   0.34742   0.75280   0.00000  Uiso   1.00
C674   C     0.35651   0.50485   0.84140   0.00000  Uiso   1.00
H675   H     0.38519   0.53388   0.57005   0.00000  Uiso   1.00
H676   H     0.50478   0.54291   0.78462   0.00000  Uiso   1.00
H677   H     0.56910   0.36304   0.95731   0.00000  Uiso   1.00
H678   H     0.65766   0.55579   0.99934   0.00000  Uiso   1.00
H679   H     0.65460   0.37462   0.52117   0.00000  Uiso   1.00
H680   H     0.47168   0.49767   0.60507   0.00000  Uiso   1.00
H681   H     0.47289   0.38742   0.92856   0.00000  Uiso   1.00
H682   H     0.39884   0.33617   0.74457   0.00000  Uiso   1.00
H683   H     0.60155   0.66393   0.75681   0.00000  Uiso   1.00
H684   H     0.49514   0.45750   0.71516   0.00000  Uiso   1.00
I685   I     0.53974   0.38709   0.64624   0.00000  Uiso   1.00
I686   I     0.49519   0.47786   0.87787   0.00000  Uiso   1.00
I687   I     0.38870   0.38668   0.62201   0.00000  Uiso   1.00
I688   I     0.61256   0.58967   0.90124   0.00000  Uiso   1.00
N689   N     0.48029   0.48550   0.73740   0.00000  Uiso   1.00
N690   N     0.51971   0.51450   0.76261   0.00000  Uiso   1.00
O691   O     0.63052   0.57964   0.75310   0.00000  Uiso   1.00
O692   O     0.36948   0.42036   0.74691   0.00000  Uiso   1.00
O693   O     0.39155   0.57035   0.74502   0.00000  Uiso   1.00
O694   O     0.60845   0.42965   0.75499   0.00000  Uiso   1.00
O695   O     0.63662   0.50730   0.82247   0.00000  Uiso   1.00
O696   O     0.36338   0.49270   0.67753   0.00000  Uiso   1.00
O697   O     0.39764   0.49801   0.81439   0.00000  Uiso   1.00
O698   O     0.60236   0.50199   0.68561   0.00000  Uiso   1.00
Zn699  Zn    0.60366   0.50621   0.75540   0.00000  Uiso   1.00
Zn700  Zn    0.39634   0.49379   0.74461   0.00000  Uiso   1.00
C701   C     0.68158   0.59812   0.74892   0.00000  Uiso   1.00
C702   C     0.97607   0.48725   0.66030   0.00000  Uiso   1.00
C703   C     0.70393   0.50654   0.89484   0.00000  Uiso   1.00
C704   C     0.95671   0.45935   0.61270   0.00000  Uiso   1.00
C705   C     0.68162   0.53232   0.97608   0.00000  Uiso   1.00
C706   C     0.96425   0.40141   0.54145   0.00000  Uiso   1.00
C707   C     0.67027   0.53366   0.92580   0.00000  Uiso   1.00
C708   C     0.98894   0.42526   0.58648   0.00000  Uiso   1.00
C709   C     0.75224   0.48175   0.91570   0.00000  Uiso   1.00
C710   C     0.89787   0.44927   0.60327   0.00000  Uiso   1.00
C711   C     0.75841   0.47448   0.96628   0.00000  Uiso   1.00
C712   C     0.98525   0.40192   0.75171   0.00000  Uiso   1.00
C713   C     0.87537   0.43935   0.55531   0.00000  Uiso   1.00
C714   C     0.72592   0.50417   0.99652   0.00000  Uiso   1.00
C715   C     0.90761   0.41068   0.52452   0.00000  Uiso   1.00
C716   C     0.80188   0.44498   0.98843   0.00000  Uiso   1.00
C717   C     0.82230   0.45696   0.53767   0.00000  Uiso   1.00
C718   C     0.79131   0.48885   0.56676   0.00000  Uiso   1.00
C719   C     0.82673   0.40459   0.96305   0.00000  Uiso   1.00
C720   C     0.74195   0.50997   0.54672   0.00000  Uiso   1.00
C721   C     0.88101   0.38966   0.97973   0.00000  Uiso   1.00
C722   C     0.68946   0.65267   0.74855   0.00000  Uiso   1.00
C723   C     0.97760   0.34742   0.75280   0.00000  Uiso   1.00
C724   C     0.68984   0.50485   0.84140   0.00000  Uiso   1.00
H725   H     0.71852   0.53388   0.57005   0.00000  Uiso   1.00
H726   H     0.83811   0.54291   0.78462   0.00000  Uiso   1.00
H727   H     0.90243   0.36304   0.95731   0.00000  Uiso   1.00
H728   H     0.99099   0.55579   0.99934   0.00000  Uiso   1.00
H729   H     0.98793   0.37462   0.52117   0.00000  Uiso   1.00
H730   H     0.80501   0.49767   0.60507   0.00000  Uiso   1.00
H731   H     0.80622   0.38742   0.92856   0.00000  Uiso   1.00
H732   H     0.73217   0.33617   0.74457   0.00000  Uiso   1.00
H733   H     0.93489   0.66393   0.75681   0.00000  Uiso   1.00
H734   H     0.82847   0.45750   0.71516   0.00000  Uiso   1.00
I735   I     0.87307   0.38709   0.64624   0.00000  Uiso   1.00
I736   I     0.82853   0.47786   0.87787   0.00000  Uiso   1.00
I737   I     0.72203   0.38668   0.62201   0.00000  Uiso   1.00
I738   I     0.94589   0.58967   0.90124   0.00000  Uiso   1.00
N739   N     0.81362   0.48550   0.73740   0.00000  Uiso   1.00
N740   N     0.85305   0.51450   0.76261   0.00000  Uiso   1.00
O741   O     0.96386   0.57964   0.75310   0.00000  Uiso   1.00
O742   O     0.70281   0.42036   0.74691   0.00000  Uiso   1.00
O743   O     0.72488   0.57035   0.74502   0.00000  Uiso   1.00
O744   O     0.94178   0.42965   0.75499   0.00000  Uiso   1.00
O745   O     0.96995   0.50730   0.82247   0.00000  Uiso   1.00
O746   O     0.69672   0.49270   0.67753   0.00000  Uiso   1.00
O747   O     0.73098   0.49801   0.81439   0.00000  Uiso   1.00
O748   O     0.93569   0.50199   0.68561   0.00000  Uiso   1.00
Zn749  Zn    0.93700   0.50621   0.75540   0.00000  Uiso   1.00
Zn750  Zn    0.72967   0.49379   0.74461   0.00000  Uiso   1.00
C751   C     0.01492   0.93145   0.74892   0.00000  Uiso   1.00
C752   C     0.30941   0.82059   0.66030   0.00000  Uiso   1.00
C753   C     0.03726   0.83987   0.89484   0.00000  Uiso   1.00
C754   C     0.29004   0.79268   0.61270   0.00000  Uiso   1.00
C755   C     0.01495   0.86566   0.97608   0.00000  Uiso   1.00
C756   C     0.29758   0.73475   0.54145   0.00000  Uiso   1.00
C757   C     0.00360   0.86700   0.92580   0.00000  Uiso   1.00
C758   C     0.32227   0.75860   0.58648   0.00000  Uiso   1.00
C759   C     0.08558   0.81509   0.91570   0.00000  Uiso   1.00
C760   C     0.23121   0.78260   0.60327   0.00000  Uiso   1.00
C761   C     0.09174   0.80781   0.96628   0.00000  Uiso   1.00
C762   C     0.31859   0.73525   0.75171   0.00000  Uiso   1.00
C763   C     0.20870   0.77268   0.55531   0.00000  Uiso   1.00
C764   C     0.05925   0.83750   0.99652   0.00000  Uiso   1.00
C765   C     0.24094   0.74402   0.52452   0.00000  Uiso   1.00
C766   C     0.13521   0.77831   0.98843   0.00000  Uiso   1.00
C767   C     0.15563   0.79029   0.53767   0.00000  Uiso   1.00
C768   C     0.12464   0.82218   0.56676   0.00000  Uiso   1.00
C769   C     0.16006   0.73793   0.96305   0.00000  Uiso   1.00
C770   C     0.07529   0.84330   0.54672   0.00000  Uiso   1.00
C771   C     0.21434   0.72299   0.97973   0.00000  Uiso   1.00
C772   C     0.02279   0.98600   0.74855   0.00000  Uiso   1.00
C773   C     0.31093   0.68076   0.75280   0.00000  Uiso   1.00
C774   C     0.02317   0.83818   0.84140   0.00000  Uiso   1.00
H775   H     0.05186   0.86721   0.57005   0.00000  Uiso   1.00
H776   H     0.17144   0.87625   0.78462   0.00000  Uiso   1.00
H777   H     0.23576   0.69638   0.95731   0.00000  Uiso   1.00
H778   H     0.32432   0.88913   0.99934   0.00000  Uiso   1.00
H779   H     0.32126   0.70796   0.52117   0.00000  Uiso   1.00
H780   H     0.13835   0.83101   0.60507   0.00000  Uiso   1.00
H781   H     0.13955   0.72075   0.92856   0.00000  Uiso   1.00
H782   H     0.06550   0.66951   0.74457   0.00000  Uiso   1.00
H783   H     0.26822   0.99726   0.75681   0.00000  Uiso   1.00
H784   H     0.16180   0.79083   0.71516   0.00000  Uiso   1.00
I785   I     0.20641   0.72042   0.64624   0.00000  Uiso   1.00
I786   I     0.16186   0.81120   0.87787   0.00000  Uiso   1.00
I787   I     0.05536   0.72001   0.62201   0.00000  Uiso   1.00
I788   I     0.27922   0.92300   0.90124   0.00000  Uiso   1.00
N789   N     0.14695   0.81883   0.73740   0.00000  Uiso   1.00
N790   N     0.18638   0.84784   0.76261   0.00000  Uiso   1.00
O791   O     0.29719   0.91298   0.75310   0.00000  Uiso   1.00
O792   O     0.03614   0.75369   0.74691   0.00000  Uiso   1.00
O793   O     0.05822   0.90368   0.74502   0.00000  Uiso   1.00
O794   O     0.27512   0.76298   0.75499   0.00000  Uiso   1.00
O795   O     0.30328   0.84063   0.82247   0.00000  Uiso   1.00
O796   O     0.03005   0.82603   0.67753   0.00000  Uiso   1.00
O797   O     0.06431   0.83134   0.81439   0.00000  Uiso   1.00
O798   O     0.26902   0.83533   0.68561   0.00000  Uiso   1.00
Zn799  Zn    0.27033   0.83954   0.75540   0.00000  Uiso   1.00
Zn800  Zn    0.06300   0.82713   0.74461   0.00000  Uiso   1.00
C801   C     0.34825   0.93145   0.74892   0.00000  Uiso   1.00
C802   C     0.64274   0.82059   0.66030   0.00000  Uiso   1.00
C803   C     0.37060   0.83987   0.89484   0.00000  Uiso   1.00
C804   C     0.62337   0.79268   0.61270   0.00000  Uiso   1.00
C805   C     0.34829   0.86566   0.97608   0.00000  Uiso   1.00
C806   C     0.63091   0.73475   0.54145   0.00000  Uiso   1.00
C807   C     0.33693   0.86700   0.92580   0.00000  Uiso   1.00
C808   C     0.65561   0.75860   0.58648   0.00000  Uiso   1.00
C809   C     0.41891   0.81509   0.91570   0.00000  Uiso   1.00
C810   C     0.56454   0.78260   0.60327   0.00000  Uiso   1.00
C811   C     0.42507   0.80781   0.96628   0.00000  Uiso   1.00
C812   C     0.65192   0.73525   0.75171   0.00000  Uiso   1.00
C813   C     0.54203   0.77268   0.55531   0.00000  Uiso   1.00
C814   C     0.39259   0.83750   0.99652   0.00000  Uiso   1.00
C815   C     0.57428   0.74402   0.52452   0.00000  Uiso   1.00
C816   C     0.46854   0.77831   0.98843   0.00000  Uiso   1.00
C817   C     0.48896   0.79029   0.53767   0.00000  Uiso   1.00
C818   C     0.45798   0.82218   0.56676   0.00000  Uiso   1.00
C819   C     0.49340   0.73793   0.96305   0.00000  Uiso   1.00
C820   C     0.40862   0.84330   0.54672   0.00000  Uiso   1.00
C821   C     0.54768   0.72299   0.97973   0.00000  Uiso   1.00
C822   C     0.35612   0.98600   0.74855   0.00000  Uiso   1.00
C823   C     0.64426   0.68076   0.75280   0.00000  Uiso   1.00
C824   C     0.35651   0.83818   0.84140   0.00000  Uiso   1.00
H825   H     0.38519   0.86721   0.57005   0.00000  Uiso   1.00
H826   H     0.50478   0.87625   0.78462   0.00000  Uiso   1.00
H827   H     0.56910   0.69638   0.95731   0.00000  Uiso   1.00
H828   H     0.65766   0.88913   0.99934   0.00000  Uiso   1.00
H829   H     0.65460   0.70796   0.52117   0.00000  Uiso   1.00
H830   H     0.47168   0.83101   0.60507   0.00000  Uiso   1.00
H831   H     0.47289   0.72075   0.92856   0.00000  Uiso   1.00
H832   H     0.39884   0.66951   0.74457   0.00000  Uiso   1.00
H833   H     0.60155   0.99726   0.75681   0.00000  Uiso   1.00
H834   H     0.49514   0.79083   0.71516   0.00000  Uiso   1.00
I835   I     0.53974   0.72042   0.64624   0.00000  Uiso   1.00
I836   I     0.49519   0.81120   0.87787   0.00000  Uiso   1.00
I837   I     0.38870   0.72001   0.62201   0.00000  Uiso   1.00
I838   I     0.61256   0.92300   0.90124   0.00000  Uiso   1.00
N839   N     0.48029   0.81883   0.73740   0.00000  Uiso   1.00
N840   N     0.51971   0.84784   0.76261   0.00000  Uiso   1.00
O841   O     0.63052   0.91298   0.75310   0.00000  Uiso   1.00
O842   O     0.36948   0.75369   0.74691   0.00000  Uiso   1.00
O843   O     0.39155   0.90368   0.74502   0.00000  Uiso   1.00
O844   O     0.60845   0.76298   0.75499   0.00000  Uiso   1.00
O845   O     0.63662   0.84063   0.82247   0.00000  Uiso   1.00
O846   O     0.36338   0.82603   0.67753   0.00000  Uiso   1.00
O847   O     0.39764   0.83134   0.81439   0.00000  Uiso   1.00
O848   O     0.60236   0.83533   0.68561   0.00000  Uiso   1.00
Zn849  Zn    0.60366   0.83954   0.75540   0.00000  Uiso   1.00
Zn850  Zn    0.39634   0.82713   0.74461   0.00000  Uiso   1.00
C851   C     0.68158   0.93145   0.74892   0.00000  Uiso   1.00
C852   C     0.97607   0.82059   0.66030   0.00000  Uiso   1.00
C853   C     0.70393   0.83987   0.89484   0.00000  Uiso   1.00
C854   C     0.95671   0.79268   0.61270   0.00000  Uiso   1.00
C855   C     0.68162   0.86566   0.97608   0.00000  Uiso   1.00
C856   C     0.96425   0.73475   0.54145   0.00000  Uiso   1.00
C857   C     0.67027   0.86700   0.92580   0.00000  Uiso   1.00
C858   C     0.98894   0.75860   0.58648   0.00000  Uiso   1.00
C859   C     0.75224   0.81509   0.91570   0.00000  Uiso   1.00
C860   C     0.89787   0.78260   0.60327   0.00000  Uiso   1.00
C861   C     0.75841   0.80781   0.96628   0.00000  Uiso   1.00
C862   C     0.98525   0.73525   0.75171   0.00000  Uiso   1.00
C863   C     0.87537   0.77268   0.55531   0.00000  Uiso   1.00
C864   C     0.72592   0.83750   0.99652   0.00000  Uiso   1.00
C865   C     0.90761   0.74402   0.52452   0.00000  Uiso   1.00
C866   C     0.80188   0.77831   0.98843   0.00000  Uiso   1.00
C867   C     0.82230   0.79029   0.53767   0.00000  Uiso   1.00
C868   C     0.79131   0.82218   0.56676   0.00000  Uiso   1.00
C869   C     0.82673   0.73793   0.96305   0.00000  Uiso   1.00
C870   C     0.74195   0.84330   0.54672   0.00000  Uiso   1.00
C871   C     0.88101   0.72299   0.97973   0.00000  Uiso   1.00
C872   C     0.68946   0.98600   0.74855   0.00000  Uiso   1.00
C873   C     0.97760   0.68076   0.75280   0.00000  Uiso   1.00
C874   C     0.68984   0.83818   0.84140   0.00000  Uiso   1.00
H875   H     0.71852   0.86721   0.57005   0.00000  Uiso   1.00
H876   H     0.83811   0.87625   0.78462   0.00000  Uiso   1.00
H877   H     0.90243   0.69638   0.95731   0.00000  Uiso   1.00
H878   H     0.99099   0.88913   0.99934   0.00000  Uiso   1.00
H879   H     0.98793   0.70796   0.52117   0.00000  Uiso   1.00
H880   H     0.80501   0.83101   0.60507   0.00000  Uiso   1.00
H881   H     0.80622   0.72075   0.92856   0.00000  Uiso   1.00
H882   H     0.73217   0.66951   0.74457   0.00000  Uiso   1.00
H883   H     0.93489   0.99726   0.75681   0.00000  Uiso   1.00
H884   H     0.82847   0.79083   0.71516   0.00000  Uiso   1.00
I885   I     0.87307   0.72042   0.64624   0.00000  Uiso   1.00
I886   I     0.82853   0.81120   0.87787   0.00000  Uiso   1.00
I887   I     0.72203   0.72001   0.62201   0.00000  Uiso   1.00
I888   I     0.94589   0.92300   0.90124   0.00000  Uiso   1.00
N889   N     0.81362   0.81883   0.73740   0.00000  Uiso   1.00
N890   N     0.85305   0.84784   0.76261   0.00000  Uiso   1.00
O891   O     0.96386   0.91298   0.75310   0.00000  Uiso   1.00
O892   O     0.70281   0.75369   0.74691   0.00000  Uiso   1.00
O893   O     0.72488   0.90368   0.74502   0.00000  Uiso   1.00
O894   O     0.94178   0.76298   0.75499   0.00000  Uiso   1.00
O895   O     0.96995   0.84063   0.82247   0.00000  Uiso   1.00
O896   O     0.69672   0.82603   0.67753   0.00000  Uiso   1.00
O897   O     0.73098   0.83134   0.81439   0.00000  Uiso   1.00
O898   O     0.93569   0.83533   0.68561   0.00000  Uiso   1.00
Zn899  Zn    0.93700   0.83954   0.75540   0.00000  Uiso   1.00
Zn900  Zn    0.72967   0.82713   0.74461   0.00000  Uiso   1.00
loop_
_geom_bond_atom_site_label_1
_geom_bond_atom_site_label_2
_geom_bond_distance
_geom_bond_site_symmetry_2
_ccdc_geom_bond_type
C1     C22     1.402   .     S
C1     O43     1.292   .     A
C1     O141    1.283   1_455 S
C2     C4      1.480   .     S
C2     O48     1.302   .     A
C2     O96     1.306   .     S
C3     C9      1.424   .     A
C3     C7      1.414   .     A
C3     C24     1.479   .     S
C4     C8      1.416   .     A
C4     C10     1.388   .     A
C5     C14     1.395   .     A
C5     C7      1.391   .     A
C5     H128    1.084   1_455 S
C6     C8      1.410   .     A
C6     H29     1.084   .     S
C6     C15     1.406   .     A
C7     I138    2.130   1_455 S
C8     I87     2.091   .     S
C9     I36     2.177   .     S
C9     C11     1.415   .     A
C10    I35     2.127   .     S
C10    C13     1.381   .     A
C11    C16     1.419   .     A
C11    C14     1.418   .     A
C12    O44     1.292   .     A
C12    C23     1.402   .     S
C12    O92     1.283   .     S
C13    C17     1.404   .     A
C13    C15     1.409   .     A
C14    C470    1.398   .     S
C15    C471    1.394   1_554 S
C16    C19     1.414   .     A
C16    C467    1.408   .     S
C17    C18     1.408   .     A
C17    C466    1.408   1_554 S
C18    C20     1.389   .     A
C18    H30     1.083   .     S
C19    H31     1.082   .     S
C19    C21     1.397   .     A
C20    H25     1.084   .     S
C20    C464    1.398   1_554 S
C21    H27     1.083   .     S
C21    C465    1.394   .     S
C22    C273    1.335   1_455 S
C22    H182    1.088   .     S
C23    C372    1.335   1_545 S
C23    H333    1.088   1_545 S
C24    O47     1.299   .     A
C24    O145    1.314   1_455 S
H26    N40     1.029   .     S
H28    C55     1.084   .     S
H32    C322    1.088   1_545 S
H33    C173    1.088   .     S
H34    N39     1.024   .     S
I37    C108    2.091   1_455 S
I38    C57     2.130   .     S
N39    Zn50    2.031   .     S
N39    N40     1.275   .     D
N40    Zn49    2.031   .     S
O41    Zn49    1.957   .     S
O41    C51     1.283   .     S
O42    Zn50    1.957   .     S
O42    C112    1.283   1_455 S
O43    Zn50    1.976   .     S
O44    Zn49    1.976   .     S
O45    Zn49    1.933   .     S
O45    C74     1.314   .     S
O46    Zn50    1.933   .     S
O46    C102    1.306   1_455 S
O47    Zn50    1.925   .     S
O48    Zn49    1.925   .     S
C51    C72     1.402   .     S
C51    O93     1.292   .     A
C52    C54     1.480   .     S
C52    O98     1.302   .     A
C52    O146    1.306   .     S
C53    C59     1.424   .     A
C53    C57     1.414   .     A
C53    C74     1.479   .     S
C54    C58     1.416   .     A
C54    C60     1.388   .     A
C55    C64     1.395   .     A
C55    C57     1.391   .     A
C56    C58     1.410   .     A
C56    H79     1.084   .     S
C56    C65     1.406   .     A
C58    I137    2.091   .     S
C59    I86     2.177   .     S
C59    C61     1.415   .     A
C60    I85     2.127   .     S
C60    C63     1.381   .     A
C61    C66     1.419   .     A
C61    C64     1.418   .     A
C62    O94     1.292   .     A
C62    C73     1.402   .     S
C62    O142    1.283   .     S
C63    C67     1.404   .     A
C63    C65     1.409   .     A
C64    C520    1.398   .     S
C65    C521    1.394   1_554 S
C66    C69     1.414   .     A
C66    C517    1.408   .     S
C67    C68     1.408   .     A
C67    C516    1.408   1_554 S
C68    C70     1.389   .     A
C68    H80     1.083   .     S
C69    H81     1.082   .     S
C69    C71     1.397   .     A
C70    H75     1.084   .     S
C70    C514    1.398   1_554 S
C71    H77     1.083   .     S
C71    C515    1.394   .     S
C72    C173    1.335   .     S
C72    H232    1.088   .     S
C73    C422    1.335   1_545 S
C73    H383    1.088   1_545 S
C74    O97     1.299   .     A
H76    N90     1.029   .     S
H78    C105    1.084   .     S
H82    C372    1.088   1_545 S
H83    C223    1.088   .     S
H84    N89     1.024   .     S
I88    C107    2.130   .     S
N89    Zn100   2.031   .     S
N89    N90     1.275   .     D
N90    Zn99    2.031   .     S
O91    Zn99    1.957   .     S
O91    C101    1.283   .     S
O92    Zn100   1.957   .     S
O93    Zn100   1.976   .     S
O94    Zn99    1.976   .     S
O95    Zn99    1.933   .     S
O95    C124    1.314   .     S
O96    Zn100   1.933   .     S
O97    Zn100   1.925   .     S
O98    Zn99    1.925   .     S
C101   C122    1.402   .     S
C101   O143    1.292   .     A
C102   C104    1.480   .     S
C102   O148    1.302   .     A
C102   O46     1.306   1_655 S
C103   C109    1.424   .     A
C103   C107    1.414   .     A
C103   C124    1.479   .     S
C104   C108    1.416   .     A
C104   C110    1.388   .     A
C105   C114    1.395   .     A
C105   C107    1.391   .     A
C106   C108    1.410   .     A
C106   H129    1.084   .     S
C106   C115    1.406   .     A
C108   I37     2.091   1_655 S
C109   I136    2.177   .     S
C109   C111    1.415   .     A
C110   I135    2.127   .     S
C110   C113    1.381   .     A
C111   C116    1.419   .     A
C111   C114    1.418   .     A
C112   O144    1.292   .     A
C112   C123    1.402   .     S
C112   O42     1.283   1_655 S
C113   C117    1.404   .     A
C113   C115    1.409   .     A
C114   C570    1.398   .     S
C115   C571    1.394   1_554 S
C116   C119    1.414   .     A
C116   C567    1.408   .     S
C117   C118    1.408   .     A
C117   C566    1.408   1_554 S
C118   C120    1.389   .     A
C118   H130    1.083   .     S
C119   H131    1.082   .     S
C119   C121    1.397   .     A
C120   H125    1.084   .     S
C120   C564    1.398   1_554 S
C121   H127    1.083   .     S
C121   C565    1.394   .     S
C122   C223    1.335   .     S
C122   H282    1.088   .     S
C123   C322    1.335   1_645 S
C123   H433    1.088   1_545 S
C124   O147    1.299   .     A
H126   N140    1.029   .     S
H128   C5      1.084   1_655 S
H132   C422    1.088   1_545 S
H133   C273    1.088   .     S
H134   N139    1.024   .     S
I138   C7      2.130   1_655 S
N139   Zn150   2.031   .     S
N139   N140    1.275   .     D
N140   Zn149   2.031   .     S
O141   Zn149   1.957   .     S
O141   C1      1.283   1_655 S
O142   Zn150   1.957   .     S
O143   Zn150   1.976   .     S
O144   Zn149   1.976   .     S
O145   Zn149   1.933   .     S
O145   C24     1.314   1_655 S
O146   Zn150   1.933   .     S
O147   Zn150   1.925   .     S
O148   Zn149   1.925   .     S
C151   C172    1.402   .     S
C151   O193    1.292   .     A
C151   O291    1.283   1_455 S
C152   C154    1.480   .     S
C152   O198    1.302   .     A
C152   O246    1.306   .     S
C153   C159    1.424   .     A
C153   C157    1.414   .     A
C153   C174    1.479   .     S
C154   C158    1.416   .     A
C154   C160    1.388   .     A
C155   C164    1.395   .     A
C155   C157    1.391   .     A
C155   H278    1.084   1_455 S
C156   C158    1.410   .     A
C156   H179    1.084   .     S
C156   C165    1.406   .     A
C157   I288    2.130   1_455 S
C158   I237    2.091   .     S
C159   I186    2.177   .     S
C159   C161    1.415   .     A
C160   I185    2.127   .     S
C160   C163    1.381   .     A
C161   C166    1.419   .     A
C161   C164    1.418   .     A
C162   O194    1.292   .     A
C162   C173    1.402   .     S
C162   O242    1.283   .     S
C163   C167    1.404   .     A
C163   C165    1.409   .     A
C164   C620    1.398   .     S
C165   C621    1.394   1_554 S
C166   C169    1.414   .     A
C166   C617    1.408   .     S
C167   C168    1.408   .     A
C167   C616    1.408   1_554 S
C168   C170    1.389   .     A
C168   H180    1.083   .     S
C169   H181    1.082   .     S
C169   C171    1.397   .     A
C170   H175    1.084   .     S
C170   C614    1.398   1_554 S
C171   H177    1.083   .     S
C171   C615    1.394   .     S
C172   C423    1.335   1_455 S
C172   H332    1.088   .     S
C174   O197    1.299   .     A
C174   O295    1.314   1_455 S
H176   N190    1.029   .     S
H178   C205    1.084   .     S
H183   C323    1.088   .     S
H184   N189    1.024   .     S
I187   C258    2.091   1_455 S
I188   C207    2.130   .     S
N189   Zn200   2.031   .     S
N189   N190    1.275   .     D
N190   Zn199   2.031   .     S
O191   Zn199   1.957   .     S
O191   C201    1.283   .     S
O192   Zn200   1.957   .     S
O192   C262    1.283   1_455 S
O193   Zn200   1.976   .     S
O194   Zn199   1.976   .     S
O195   Zn199   1.933   .     S
O195   C224    1.314   .     S
O196   Zn200   1.933   .     S
O196   C252    1.306   1_455 S
O197   Zn200   1.925   .     S
O198   Zn199   1.925   .     S
C201   C222    1.402   .     S
C201   O243    1.292   .     A
C202   C204    1.480   .     S
C202   O248    1.302   .     A
C202   O296    1.306   .     S
C203   C209    1.424   .     A
C203   C207    1.414   .     A
C203   C224    1.479   .     S
C204   C208    1.416   .     A
C204   C210    1.388   .     A
C205   C214    1.395   .     A
C205   C207    1.391   .     A
C206   C208    1.410   .     A
C206   H229    1.084   .     S
C206   C215    1.406   .     A
C208   I287    2.091   .     S
C209   I236    2.177   .     S
C209   C211    1.415   .     A
C210   I235    2.127   .     S
C210   C213    1.381   .     A
C211   C216    1.419   .     A
C211   C214    1.418   .     A
C212   O244    1.292   .     A
C212   C223    1.402   .     S
C212   O292    1.283   .     S
C213   C217    1.404   .     A
C213   C215    1.409   .     A
C214   C670    1.398   .     S
C215   C671    1.394   1_554 S
C216   C219    1.414   .     A
C216   C667    1.408   .     S
C217   C218    1.408   .     A
C217   C666    1.408   1_554 S
C218   C220    1.389   .     A
C218   H230    1.083   .     S
C219   H231    1.082   .     S
C219   C221    1.397   .     A
C220   H225    1.084   .     S
C220   C664    1.398   1_554 S
C221   H227    1.083   .     S
C221   C665    1.394   .     S
C222   C323    1.335   .     S
C222   H382    1.088   .     S
C224   O247    1.299   .     A
H226   N240    1.029   .     S
H228   C255    1.084   .     S
H233   C373    1.088   .     S
H234   N239    1.024   .     S
I238   C257    2.130   .     S
N239   Zn250   2.031   .     S
N239   N240    1.275   .     D
N240   Zn249   2.031   .     S
O241   Zn249   1.957   .     S
O241   C251    1.283   .     S
O242   Zn250   1.957   .     S
O243   Zn250   1.976   .     S
O244   Zn249   1.976   .     S
O245   Zn249   1.933   .     S
O245   C274    1.314   .     S
O246   Zn250   1.933   .     S
O247   Zn250   1.925   .     S
O248   Zn249   1.925   .     S
C251   C272    1.402   .     S
C251   O293    1.292   .     A
C252   C254    1.480   .     S
C252   O298    1.302   .     A
C252   O196    1.306   1_655 S
C253   C259    1.424   .     A
C253   C257    1.414   .     A
C253   C274    1.479   .     S
C254   C258    1.416   .     A
C254   C260    1.388   .     A
C255   C264    1.395   .     A
C255   C257    1.391   .     A
C256   C258    1.410   .     A
C256   H279    1.084   .     S
C256   C265    1.406   .     A
C258   I187    2.091   1_655 S
C259   I286    2.177   .     S
C259   C261    1.415   .     A
C260   I285    2.127   .     S
C260   C263    1.381   .     A
C261   C266    1.419   .     A
C261   C264    1.418   .     A
C262   O294    1.292   .     A
C262   C273    1.402   .     S
C262   O192    1.283   1_655 S
C263   C267    1.404   .     A
C263   C265    1.409   .     A
C264   C720    1.398   .     S
C265   C721    1.394   1_554 S
C266   C269    1.414   .     A
C266   C717    1.408   .     S
C267   C268    1.408   .     A
C267   C716    1.408   1_554 S
C268   C270    1.389   .     A
C268   H280    1.083   .     S
C269   H281    1.082   .     S
C269   C271    1.397   .     A
C270   H275    1.084   .     S
C270   C714    1.398   1_554 S
C271   H277    1.083   .     S
C271   C715    1.394   .     S
C272   C373    1.335   .     S
C272   H432    1.088   .     S
C273   C22     1.335   1_655 S
C274   O297    1.299   .     A
H276   N290    1.029   .     S
H278   C155    1.084   1_655 S
H283   C423    1.088   .     S
H284   N289    1.024   .     S
I288   C157    2.130   1_655 S
N289   Zn300   2.031   .     S
N289   N290    1.275   .     D
N290   Zn299   2.031   .     S
O291   Zn299   1.957   .     S
O291   C151    1.283   1_655 S
O292   Zn300   1.957   .     S
O293   Zn300   1.976   .     S
O294   Zn299   1.976   .     S
O295   Zn299   1.933   .     S
O295   C174    1.314   1_655 S
O296   Zn300   1.933   .     S
O297   Zn300   1.925   .     S
O298   Zn299   1.925   .     S
C301   C322    1.402   .     S
C301   O343    1.292   .     A
C301   O441    1.283   1_455 S
C302   C304    1.480   .     S
C302   O348    1.302   .     A
C302   O396    1.306   .     S
C303   C309    1.424   .     A
C303   C307    1.414   .     A
C303   C324    1.479   .     S
C304   C308    1.416   .     A
C304   C310    1.388   .     A
C305   C314    1.395   .     A
C305   C307    1.391   .     A
C305   H428    1.084   1_455 S
C306   C308    1.410   .     A
C306   H329    1.084   .     S
C306   C315    1.406   .     A
C307   I438    2.130   1_455 S
C308   I387    2.091   .     S
C309   I336    2.177   .     S
C309   C311    1.415   .     A
C310   I335    2.127   .     S
C310   C313    1.381   .     A
C311   C316    1.419   .     A
C311   C314    1.418   .     A
C312   O344    1.292   .     A
C312   C323    1.402   .     S
C312   O392    1.283   .     S
C313   C317    1.404   .     A
C313   C315    1.409   .     A
C314   C770    1.398   .     S
C315   C771    1.394   1_554 S
C316   C319    1.414   .     A
C316   C767    1.408   .     S
C317   C318    1.408   .     A
C317   C766    1.408   1_554 S
C318   C320    1.389   .     A
C318   H330    1.083   .     S
C319   H331    1.082   .     S
C319   C321    1.397   .     A
C320   H325    1.084   .     S
C320   C764    1.398   1_554 S
C321   H327    1.083   .     S
C321   C765    1.394   .     S
C322   C123    1.335   1_465 S
C322   H32     1.088   1_565 S
C324   O347    1.299   .     A
C324   O445    1.314   1_455 S
H326   N340    1.029   .     S
H328   C355    1.084   .     S
H333   C23     1.088   1_565 S
H334   N339    1.024   .     S
I337   C408    2.091   1_455 S
I338   C357    2.130   .     S
N339   Zn350   2.031   .     S
N339   N340    1.275   .     D
N340   Zn349   2.031   .     S
O341   Zn349   1.957   .     S
O341   C351    1.283   .     S
O342   Zn350   1.957   .     S
O342   C412    1.283   1_455 S
O343   Zn350   1.976   .     S
O344   Zn349   1.976   .     S
O345   Zn349   1.933   .     S
O345   C374    1.314   .     S
O346   Zn350   1.933   .     S
O346   C402    1.306   1_455 S
O347   Zn350   1.925   .     S
O348   Zn349   1.925   .     S
C351   C372    1.402   .     S
C351   O393    1.292   .     A
C352   C354    1.480   .     S
C352   O398    1.302   .     A
C352   O446    1.306   .     S
C353   C359    1.424   .     A
C353   C357    1.414   .     A
C353   C374    1.479   .     S
C354   C358    1.416   .     A
C354   C360    1.388   .     A
C355   C364    1.395   .     A
C355   C357    1.391   .     A
C356   C358    1.410   .     A
C356   H379    1.084   .     S
C356   C365    1.406   .     A
C358   I437    2.091   .     S
C359   I386    2.177   .     S
C359   C361    1.415   .     A
C360   I385    2.127   .     S
C360   C363    1.381   .     A
C361   C366    1.419   .     A
C361   C364    1.418   .     A
C362   O394    1.292   .     A
C362   C373    1.402   .     S
C362   O442    1.283   .     S
C363   C367    1.404   .     A
C363   C365    1.409   .     A
C364   C820    1.398   .     S
C365   C821    1.394   1_554 S
C366   C369    1.414   .     A
C366   C817    1.408   .     S
C367   C368    1.408   .     A
C367   C816    1.408   1_554 S
C368   C370    1.389   .     A
C368   H380    1.083   .     S
C369   H381    1.082   .     S
C369   C371    1.397   .     A
C370   H375    1.084   .     S
C370   C814    1.398   1_554 S
C371   H377    1.083   .     S
C371   C815    1.394   .     S
C372   C23     1.335   1_565 S
C372   H82     1.088   1_565 S
C374   O397    1.299   .     A
H376   N390    1.029   .     S
H378   C405    1.084   .     S
H383   C73     1.088   1_565 S
H384   N389    1.024   .     S
I388   C407    2.130   .     S
N389   Zn400   2.031   .     S
N389   N390    1.275   .     D
N390   Zn399   2.031   .     S
O391   Zn399   1.957   .     S
O391   C401    1.283   .     S
O392   Zn400   1.957   .     S
O393   Zn400   1.976   .     S
O394   Zn399   1.976   .     S
O395   Zn399   1.933   .     S
O395   C424    1.314   .     S
O396   Zn400   1.933   .     S
O397   Zn400   1.925   .     S
O398   Zn399   1.925   .     S
C401   C422    1.402   .     S
C401   O443    1.292   .     A
C402   C404    1.480   .     S
C402   O448    1.302   .     A
C402   O346    1.306   1_655 S
C403   C409    1.424   .     A
C403   C407    1.414   .     A
C403   C424    1.479   .     S
C404   C408    1.416   .     A
C404   C410    1.388   .     A
C405   C414    1.395   .     A
C405   C407    1.391   .     A
C406   C408    1.410   .     A
C406   H429    1.084   .     S
C406   C415    1.406   .     A
C408   I337    2.091   1_655 S
C409   I436    2.177   .     S
C409   C411    1.415   .     A
C410   I435    2.127   .     S
C410   C413    1.381   .     A
C411   C416    1.419   .     A
C411   C414    1.418   .     A
C412   O444    1.292   .     A
C412   C423    1.402   .     S
C412   O342    1.283   1_655 S
C413   C417    1.404   .     A
C413   C415    1.409   .     A
C414   C870    1.398   .     S
C415   C871    1.394   1_554 S
C416   C419    1.414   .     A
C416   C867    1.408   .     S
C417   C418    1.408   .     A
C417   C866    1.408   1_554 S
C418   C420    1.389   .     A
C418   H430    1.083   .     S
C419   H431    1.082   .     S
C419   C421    1.397   .     A
C420   H425    1.084   .     S
C420   C864    1.398   1_554 S
C421   H427    1.083   .     S
C421   C865    1.394   .     S
C422   C73     1.335   1_565 S
C422   H132    1.088   1_565 S
C423   C172    1.335   1_655 S
C424   O447    1.299   .     A
H426   N440    1.029   .     S
H428   C305    1.084   1_655 S
H433   C123    1.088   1_565 S
H434   N439    1.024   .     S
I438   C307    2.130   1_655 S
N439   Zn450   2.031   .     S
N439   N440    1.275   .     D
N440   Zn449   2.031   .     S
O441   Zn449   1.957   .     S
O441   C301    1.283   1_655 S
O442   Zn450   1.957   .     S
O443   Zn450   1.976   .     S
O444   Zn449   1.976   .     S
O445   Zn449   1.933   .     S
O445   C324    1.314   1_655 S
O446   Zn450   1.933   .     S
O447   Zn450   1.925   .     S
O448   Zn449   1.925   .     S
C451   C472    1.402   .     S
C451   O493    1.292   .     A
C451   O591    1.283   1_455 S
C452   C454    1.480   .     S
C452   O498    1.302   .     A
C452   O546    1.306   .     S
C453   C459    1.424   .     A
C453   C457    1.414   .     A
C453   C474    1.479   .     S
C454   C458    1.416   .     A
C454   C460    1.388   .     A
C455   C464    1.395   .     A
C455   C457    1.391   .     A
C455   H578    1.084   1_455 S
C456   C458    1.410   .     A
C456   H479    1.084   .     S
C456   C465    1.406   .     A
C457   I588    2.130   1_455 S
C458   I537    2.091   .     S
C459   I486    2.177   .     S
C459   C461    1.415   .     A
C460   I485    2.127   .     S
C460   C463    1.381   .     A
C461   C466    1.419   .     A
C461   C464    1.418   .     A
C462   O494    1.292   .     A
C462   C473    1.402   .     S
C462   O542    1.283   .     S
C463   C467    1.404   .     A
C463   C465    1.409   .     A
C464   C20     1.398   1_556 S
C466   C469    1.414   .     A
C466   C17     1.408   1_556 S
C467   C468    1.408   .     A
C468   C470    1.389   .     A
C468   H480    1.083   .     S
C469   H481    1.082   .     S
C469   C471    1.397   .     A
C470   H475    1.084   .     S
C471   H477    1.083   .     S
C471   C15     1.394   1_556 S
C472   C723    1.335   1_455 S
C472   H632    1.088   .     S
C473   C822    1.335   1_545 S
C473   H783    1.088   1_545 S
C474   O497    1.299   .     A
C474   O595    1.314   1_455 S
H476   N490    1.029   .     S
H478   C505    1.084   .     S
H482   C772    1.088   1_545 S
H483   C623    1.088   .     S
H484   N489    1.024   .     S
I487   C558    2.091   1_455 S
I488   C507    2.130   .     S
N489   Zn500   2.031   .     S
N489   N490    1.275   .     D
N490   Zn499   2.031   .     S
O491   Zn499   1.957   .     S
O491   C501    1.283   .     S
O492   Zn500   1.957   .     S
O492   C562    1.283   1_455 S
O493   Zn500   1.976   .     S
O494   Zn499   1.976   .     S
O495   Zn499   1.933   .     S
O495   C524    1.314   .     S
O496   Zn500   1.933   .     S
O496   C552    1.306   1_455 S
O497   Zn500   1.925   .     S
O498   Zn499   1.925   .     S
C501   C522    1.402   .     S
C501   O543    1.292   .     A
C502   C504    1.480   .     S
C502   O548    1.302   .     A
C502   O596    1.306   .     S
C503   C509    1.424   .     A
C503   C507    1.414   .     A
C503   C524    1.479   .     S
C504   C508    1.416   .     A
C504   C510    1.388   .     A
C505   C514    1.395   .     A
C505   C507    1.391   .     A
C506   C508    1.410   .     A
C506   H529    1.084   .     S
C506   C515    1.406   .     A
C508   I587    2.091   .     S
C509   I536    2.177   .     S
C509   C511    1.415   .     A
C510   I535    2.127   .     S
C510   C513    1.381   .     A
C511   C516    1.419   .     A
C511   C514    1.418   .     A
C512   O544    1.292   .     A
C512   C523    1.402   .     S
C512   O592    1.283   .     S
C513   C517    1.404   .     A
C513   C515    1.409   .     A
C514   C70     1.398   1_556 S
C516   C519    1.414   .     A
C516   C67     1.408   1_556 S
C517   C518    1.408   .     A
C518   C520    1.389   .     A
C518   H530    1.083   .     S
C519   H531    1.082   .     S
C519   C521    1.397   .     A
C520   H525    1.084   .     S
C521   H527    1.083   .     S
C521   C65     1.394   1_556 S
C522   C623    1.335   .     S
C522   H682    1.088   .     S
C523   C872    1.335   1_545 S
C523   H833    1.088   1_545 S
C524   O547    1.299   .     A
H526   N540    1.029   .     S
H528   C555    1.084   .     S
H532   C822    1.088   1_545 S
H533   C673    1.088   .     S
H534   N539    1.024   .     S
I538   C557    2.130   .     S
N539   Zn550   2.031   .     S
N539   N540    1.275   .     D
N540   Zn549   2.031   .     S
O541   Zn549   1.957   .     S
O541   C551    1.283   .     S
O542   Zn550   1.957   .     S
O543   Zn550   1.976   .     S
O544   Zn549   1.976   .     S
O545   Zn549   1.933   .     S
O545   C574    1.314   .     S
O546   Zn550   1.933   .     S
O547   Zn550   1.925   .     S
O548   Zn549   1.925   .     S
C551   C572    1.402   .     S
C551   O593    1.292   .     A
C552   C554    1.480   .     S
C552   O598    1.302   .     A
C552   O496    1.306   1_655 S
C553   C559    1.424   .     A
C553   C557    1.414   .     A
C553   C574    1.479   .     S
C554   C558    1.416   .     A
C554   C560    1.388   .     A
C555   C564    1.395   .     A
C555   C557    1.391   .     A
C556   C558    1.410   .     A
C556   H579    1.084   .     S
C556   C565    1.406   .     A
C558   I487    2.091   1_655 S
C559   I586    2.177   .     S
C559   C561    1.415   .     A
C560   I585    2.127   .     S
C560   C563    1.381   .     A
C561   C566    1.419   .     A
C561   C564    1.418   .     A
C562   O594    1.292   .     A
C562   C573    1.402   .     S
C562   O492    1.283   1_655 S
C563   C567    1.404   .     A
C563   C565    1.409   .     A
C564   C120    1.398   1_556 S
C566   C569    1.414   .     A
C566   C117    1.408   1_556 S
C567   C568    1.408   .     A
C568   C570    1.389   .     A
C568   H580    1.083   .     S
C569   H581    1.082   .     S
C569   C571    1.397   .     A
C570   H575    1.084   .     S
C571   H577    1.083   .     S
C571   C115    1.394   1_556 S
C572   C673    1.335   .     S
C572   H732    1.088   .     S
C573   C772    1.335   1_645 S
C573   H883    1.088   1_545 S
C574   O597    1.299   .     A
H576   N590    1.029   .     S
H578   C455    1.084   1_655 S
H582   C872    1.088   1_545 S
H583   C723    1.088   .     S
H584   N589    1.024   .     S
I588   C457    2.130   1_655 S
N589   Zn600   2.031   .     S
N589   N590    1.275   .     D
N590   Zn599   2.031   .     S
O591   Zn599   1.957   .     S
O591   C451    1.283   1_655 S
O592   Zn600   1.957   .     S
O593   Zn600   1.976   .     S
O594   Zn599   1.976   .     S
O595   Zn599   1.933   .     S
O595   C474    1.314   1_655 S
O596   Zn600   1.933   .     S
O597   Zn600   1.925   .     S
O598   Zn599   1.925   .     S
C601   C622    1.402   .     S
C601   O643    1.292   .     A
C601   O741    1.283   1_455 S
C602   C604    1.480   .     S
C602   O648    1.302   .     A
C602   O696    1.306   .     S
C603   C609    1.424   .     A
C603   C607    1.414   .     A
C603   C624    1.479   .     S
C604   C608    1.416   .     A
C604   C610    1.388   .     A
C605   C614    1.395   .     A
C605   C607    1.391   .     A
C605   H728    1.084   1_455 S
C606   C608    1.410   .     A
C606   H629    1.084   .     S
C606   C615    1.406   .     A
C607   I738    2.130   1_455 S
C608   I687    2.091   .     S
C609   I636    2.177   .     S
C609   C611    1.415   .     A
C610   I635    2.127   .     S
C610   C613    1.381   .     A
C611   C616    1.419   .     A
C611   C614    1.418   .     A
C612   O644    1.292   .     A
C612   C623    1.402   .     S
C612   O692    1.283   .     S
C613   C617    1.404   .     A
C613   C615    1.409   .     A
C614   C170    1.398   1_556 S
C616   C619    1.414   .     A
C616   C167    1.408   1_556 S
C617   C618    1.408   .     A
C618   C620    1.389   .     A
C618   H630    1.083   .     S
C619   H631    1.082   .     S
C619   C621    1.397   .     A
C620   H625    1.084   .     S
C621   H627    1.083   .     S
C621   C165    1.394   1_556 S
C622   C873    1.335   1_455 S
C622   H782    1.088   .     S
C624   O647    1.299   .     A
C624   O745    1.314   1_455 S
H626   N640    1.029   .     S
H628   C655    1.084   .     S
H633   C773    1.088   .     S
H634   N639    1.024   .     S
I637   C708    2.091   1_455 S
I638   C657    2.130   .     S
N639   Zn650   2.031   .     S
N639   N640    1.275   .     D
N640   Zn649   2.031   .     S
O641   Zn649   1.957   .     S
O641   C651    1.283   .     S
O642   Zn650   1.957   .     S
O642   C712    1.283   1_455 S
O643   Zn650   1.976   .     S
O644   Zn649   1.976   .     S
O645   Zn649   1.933   .     S
O645   C674    1.314   .     S
O646   Zn650   1.933   .     S
O646   C702    1.306   1_455 S
O647   Zn650   1.925   .     S
O648   Zn649   1.925   .     S
C651   C672    1.402   .     S
C651   O693    1.292   .     A
C652   C654    1.480   .     S
C652   O698    1.302   .     A
C652   O746    1.306   .     S
C653   C659    1.424   .     A
C653   C657    1.414   .     A
C653   C674    1.479   .     S
C654   C658    1.416   .     A
C654   C660    1.388   .     A
C655   C664    1.395   .     A
C655   C657    1.391   .     A
C656   C658    1.410   .     A
C656   H679    1.084   .     S
C656   C665    1.406   .     A
C658   I737    2.091   .     S
C659   I686    2.177   .     S
C659   C661    1.415   .     A
C660   I685    2.127   .     S
C660   C663    1.381   .     A
C661   C666    1.419   .     A
C661   C664    1.418   .     A
C662   O694    1.292   .     A
C662   C673    1.402   .     S
C662   O742    1.283   .     S
C663   C667    1.404   .     A
C663   C665    1.409   .     A
C664   C220    1.398   1_556 S
C666   C669    1.414   .     A
C666   C217    1.408   1_556 S
C667   C668    1.408   .     A
C668   C670    1.389   .     A
C668   H680    1.083   .     S
C669   H681    1.082   .     S
C669   C671    1.397   .     A
C670   H675    1.084   .     S
C671   H677    1.083   .     S
C671   C215    1.394   1_556 S
C672   C773    1.335   .     S
C672   H832    1.088   .     S
C674   O697    1.299   .     A
H676   N690    1.029   .     S
H678   C705    1.084   .     S
H683   C823    1.088   .     S
H684   N689    1.024   .     S
I688   C707    2.130   .     S
N689   Zn700   2.031   .     S
N689   N690    1.275   .     D
N690   Zn699   2.031   .     S
O691   Zn699   1.957   .     S
O691   C701    1.283   .     S
O692   Zn700   1.957   .     S
O693   Zn700   1.976   .     S
O694   Zn699   1.976   .     S
O695   Zn699   1.933   .     S
O695   C724    1.314   .     S
O696   Zn700   1.933   .     S
O697   Zn700   1.925   .     S
O698   Zn699   1.925   .     S
C701   C722    1.402   .     S
C701   O743    1.292   .     A
C702   C704    1.480   .     S
C702   O748    1.302   .     A
C702   O646    1.306   1_655 S
C703   C709    1.424   .     A
C703   C707    1.414   .     A
C703   C724    1.479   .     S
C704   C708    1.416   .     A
C704   C710    1.388   .     A
C705   C714    1.395   .     A
C705   C707    1.391   .     A
C706   C708    1.410   .     A
C706   H729    1.084   .     S
C706   C715    1.406   .     A
C708   I637    2.091   1_655 S
C709   I736    2.177   .     S
C709   C711    1.415   .     A
C710   I735    2.127   .     S
C710   C713    1.381   .     A
C711   C716    1.419   .     A
C711   C714    1.418   .     A
C712   O744    1.292   .     A
C712   C723    1.402   .     S
C712   O642    1.283   1_655 S
C713   C717    1.404   .     A
C713   C715    1.409   .     A
C714   C270    1.398   1_556 S
C716   C719    1.414   .     A
C716   C267    1.408   1_556 S
C717   C718    1.408   .     A
C718   C720    1.389   .     A
C718   H730    1.083   .     S
C719   H731    1.082   .     S
C719   C721    1.397   .     A
C720   H725    1.084   .     S
C721   H727    1.083   .     S
C721   C265    1.394   1_556 S
C722   C823    1.335   .     S
C722   H882    1.088   .     S
C723   C472    1.335   1_655 S
C724   O747    1.299   .     A
H726   N740    1.029   .     S
H728   C605    1.084   1_655 S
H733   C873    1.088   .     S
H734   N739    1.024   .     S
I738   C607    2.130   1_655 S
N739   Zn750   2.031   .     S
N739   N740    1.275   .     D
N740   Zn749   2.031   .     S
O741   Zn749   1.957   .     S
O741   C601    1.283   1_655 S
O742   Zn750   1.957   .     S
O743   Zn750   1.976   .     S
O744   Zn749   1.976   .     S
O745   Zn749   1.933   .     S
O745   C624    1.314   1_655 S
O746   Zn750   1.933   .     S
O747   Zn750   1.925   .     S
O748   Zn749   1.925   .     S
C751   C772    1.402   .     S
C751   O793    1.292   .     A
C751   O891    1.283   1_455 S
C752   C754    1.480   .     S
C752   O798    1.302   .     A
C752   O846    1.306   .     S
C753   C759    1.424   .     A
C753   C757    1.414   .     A
C753   C774    1.479   .     S
C754   C758    1.416   .     A
C754   C760    1.388   .     A
C755   C764    1.395   .     A
C755   C757    1.391   .     A
C755   H878    1.084   1_455 S
C756   C758    1.410   .     A
C756   H779    1.084   .     S
C756   C765    1.406   .     A
C757   I888    2.130   1_455 S
C758   I837    2.091   .     S
C759   I786    2.177   .     S
C759   C761    1.415   .     A
C760   I785    2.127   .     S
C760   C763    1.381   .     A
C761   C766    1.419   .     A
C761   C764    1.418   .     A
C762   O794    1.292   .     A
C762   C773    1.402   .     S
C762   O842    1.283   .     S
C763   C767    1.404   .     A
C763   C765    1.409   .     A
C764   C320    1.398   1_556 S
C766   C769    1.414   .     A
C766   C317    1.408   1_556 S
C767   C768    1.408   .     A
C768   C770    1.389   .     A
C768   H780    1.083   .     S
C769   H781    1.082   .     S
C769   C771    1.397   .     A
C770   H775    1.084   .     S
C771   H777    1.083   .     S
C771   C315    1.394   1_556 S
C772   C573    1.335   1_465 S
C772   H482    1.088   1_565 S
C774   O797    1.299   .     A
C774   O895    1.314   1_455 S
H776   N790    1.029   .     S
H778   C805    1.084   .     S
H783   C473    1.088   1_565 S
H784   N789    1.024   .     S
I787   C858    2.091   1_455 S
I788   C807    2.130   .     S
N789   Zn800   2.031   .     S
N789   N790    1.275   .     D
N790   Zn799   2.031   .     S
O791   Zn799   1.957   .     S
O791   C801    1.283   .     S
O792   Zn800   1.957   .     S
O792   C862    1.283   1_455 S
O793   Zn800   1.976   .     S
O794   Zn799   1.976   .     S
O795   Zn799   1.933   .     S
O795   C824    1.314   .     S
O796   Zn800   1.933   .     S
O796   C852    1.306   1_455 S
O797   Zn800   1.925   .     S
O798   Zn799   1.925   .     S
C801   C822    1.402   .     S
C801   O843    1.292   .     A
C802   C804    1.480   .     S
C802   O848    1.302   .     A
C802   O896    1.306   .     S
C803   C809    1.424   .     A
C803   C807    1.414   .     A
C803   C824    1.479   .     S
C804   C808    1.416   .     A
C804   C810    1.388   .     A
C805   C814    1.395   .     A
C805   C807    1.391   .     A
C806   C808    1.410   .     A
C806   H829    1.084   .     S
C806   C815    1.406   .     A
C808   I887    2.091   .     S
C809   I836    2.177   .     S
C809   C811    1.415   .     A
C810   I835    2.127   .     S
C810   C813    1.381   .     A
C811   C816    1.419   .     A
C811   C814    1.418   .     A
C812   O844    1.292   .     A
C812   C823    1.402   .     S
C812   O892    1.283   .     S
C813   C817    1.404   .     A
C813   C815    1.409   .     A
C814   C370    1.398   1_556 S
C816   C819    1.414   .     A
C816   C367    1.408   1_556 S
C817   C818    1.408   .     A
C818   C820    1.389   .     A
C818   H830    1.083   .     S
C819   H831    1.082   .     S
C819   C821    1.397   .     A
C820   H825    1.084   .     S
C821   H827    1.083   .     S
C821   C365    1.394   1_556 S
C822   C473    1.335   1_565 S
C822   H532    1.088   1_565 S
C824   O847    1.299   .     A
H826   N840    1.029   .     S
H828   C855    1.084   .     S
H833   C523    1.088   1_565 S
H834   N839    1.024   .     S
I838   C857    2.130   .     S
N839   Zn850   2.031   .     S
N839   N840    1.275   .     D
N840   Zn849   2.031   .     S
O841   Zn849   1.957   .     S
O841   C851    1.283   .     S
O842   Zn850   1.957   .     S
O843   Zn850   1.976   .     S
O844   Zn849   1.976   .     S
O845   Zn849   1.933   .     S
O845   C874    1.314   .     S
O846   Zn850   1.933   .     S
O847   Zn850   1.925   .     S
O848   Zn849   1.925   .     S
C851   C872    1.402   .     S
C851   O893    1.292   .     A
C852   C854    1.480   .     S
C852   O898    1.302   .     A
C852   O796    1.306   1_655 S
C853   C859    1.424   .     A
C853   C857    1.414   .     A
C853   C874    1.479   .     S
C854   C858    1.416   .     A
C854   C860    1.388   .     A
C855   C864    1.395   .     A
C855   C857    1.391   .     A
C856   C858    1.410   .     A
C856   H879    1.084   .     S
C856   C865    1.406   .     A
C858   I787    2.091   1_655 S
C859   I886    2.177   .     S
C859   C861    1.415   .     A
C860   I885    2.127   .     S
C860   C863    1.381   .     A
C861   C866    1.419   .     A
C861   C864    1.418   .     A
C862   O894    1.292   .     A
C862   C873    1.402   .     S
C862   O792    1.283   1_655 S
C863   C867    1.404   .     A
C863   C865    1.409   .     A
C864   C420    1.398   1_556 S
C866   C869    1.414   .     A
C866   C417    1.408   1_556 S
C867   C868    1.408   .     A
C868   C870    1.389   .     A
C868   H880    1.083   .     S
C869   H881    1.082   .     S
C869   C871    1.397   .     A
C870   H875    1.084   .     S
C871   H877    1.083   .     S
C871   C415    1.394   1_556 S
C872   C523    1.335   1_565 S
C872   H582    1.088   1_565 S
C873   C622    1.335   1_655 S
C874   O897    1.299   .     A
H876   N890    1.029   .     S
H878   C755    1.084   1_655 S
H883   C573    1.088   1_565 S
H884   N889    1.024   .     S
I888   C757    2.130   1_655 S
N889   Zn900   2.031   .     S
N889   N890    1.275   .     D
N890   Zn899   2.031   .     S
O891   Zn899   1.957   .     S
O891   C751    1.283   1_655 S
O892   Zn900   1.957   .     S
O893   Zn900   1.976   .     S
O894   Zn899   1.976   .     S
O895   Zn899   1.933   .     S
O895   C774    1.314   1_655 S
O896   Zn900   1.933   .     S
O897   Zn900   1.925   .     S
O898   Zn899   1.925   .     S
