data_str_m3_o1_o10_pcu_sym.199
_audit_creation_date              2020-01-03
_audit_creation_method            'Materials Studio'
_symmetry_space_group_name_H-M    'P1'
_symmetry_Int_Tables_number       1
_symmetry_cell_setting            triclinic
loop_
_symmetry_equiv_pos_as_xyz
  x,y,z
_cell_length_a                    25.8610
_cell_length_b                    31.9478
_cell_length_c                    29.5497
_cell_angle_alpha                 90.2926
_cell_angle_beta                  98.3167
_cell_angle_gamma                 89.8642
loop_
_atom_site_label
_atom_site_type_symbol
_atom_site_fract_x
_atom_site_fract_y
_atom_site_fract_z
_atom_site_U_iso_or_equiv
_atom_site_adp_type
_atom_site_occupancy
C1     C     0.16859   0.08677   0.16677   0.00000  Uiso   1.00
C2     C     0.16474   0.24657   0.16656   0.00000  Uiso   1.00
C3     C     0.06721   0.16606   0.15494   0.00000  Uiso   1.00
C4     C     0.26612   0.16727   0.17840   0.00000  Uiso   1.00
C5     C     0.01313   0.15863   0.15031   0.00000  Uiso   1.00
C6     C     0.32020   0.17471   0.18302   0.00000  Uiso   1.00
C7     C     0.13315   0.02267   0.13442   0.00000  Uiso   1.00
C8     C     0.20019   0.31066   0.19891   0.00000  Uiso   1.00
C9     C     0.12870   0.31303   0.13442   0.00000  Uiso   1.00
C10    C     0.20463   0.02030   0.19891   0.00000  Uiso   1.00
C11    C     0.16334   0.29075   0.16685   0.00000  Uiso   1.00
C12    C     0.17000   0.04259   0.16648   0.00000  Uiso   1.00
C13    C     0.20112   0.19093   0.02845   0.00000  Uiso   1.00
C14    C     0.13221   0.14240   0.30488   0.00000  Uiso   1.00
C15    C     0.20109   0.19094   0.31384   0.00000  Uiso   1.00
C16    C     0.13225   0.14239   0.01949   0.00000  Uiso   1.00
H17    H     0.10632   0.04104   0.11068   0.00000  Uiso   1.00
H18    H     0.22701   0.29229   0.22265   0.00000  Uiso   1.00
H19    H     0.22868   0.21034   0.05018   0.00000  Uiso   1.00
H20    H     0.10465   0.12299   0.28315   0.00000  Uiso   1.00
H21    H     0.22857   0.21039   0.29927   0.00000  Uiso   1.00
H22    H     0.10476   0.12294   0.03407   0.00000  Uiso   1.00
N23    N     0.16665   0.16666   0.28573   0.00000  Uiso   1.00
N24    N     0.16668   0.16668   0.04760   0.00000  Uiso   1.00
O25    O     0.16666   0.10558   0.20487   0.00000  Uiso   1.00
O26    O     0.16667   0.22775   0.12846   0.00000  Uiso   1.00
O27    O     0.16666   0.10559   0.12843   0.00000  Uiso   1.00
O28    O     0.16667   0.22774   0.20490   0.00000  Uiso   1.00
O29    O     0.09058   0.16666   0.19595   0.00000  Uiso   1.00
O30    O     0.24275   0.16667   0.13739   0.00000  Uiso   1.00
O31    O     0.09058   0.16667   0.11950   0.00000  Uiso   1.00
O32    O     0.24275   0.16666   0.21383   0.00000  Uiso   1.00
Zn33   Zn    0.16667   0.16666   0.21771   0.00000  Uiso   1.00
Zn34   Zn    0.16667   0.16667   0.11563   0.00000  Uiso   1.00
C35    C     0.32619   0.12535   0.11649   0.00000  Uiso   1.00
O36    O     0.30054   0.09620   0.12809   0.00000  Uiso   1.00
O37    O     0.00472   0.12692   0.07184   0.00000  Uiso   1.00
H38    H     0.32267   0.10255   0.05230   0.00000  Uiso   1.00
C39    C     0.00714   0.20799   0.21685   0.00000  Uiso   1.00
O40    O     0.03283   0.23713   0.20525   0.00000  Uiso   1.00
O41    O     0.32857   0.20644   0.26148   0.00000  Uiso   1.00
H42    H     0.01063   0.23081   0.28102   0.00000  Uiso   1.00
C43    C     0.08644   0.29319   0.10177   0.00000  Uiso   1.00
O44    O     0.06641   0.26041   0.11138   0.00000  Uiso   1.00
O45    O     0.06824   0.31299   0.06039   0.00000  Uiso   1.00
H46    H     0.03916   0.29682   0.04125   0.00000  Uiso   1.00
C47    C     0.24689   0.04014   0.23156   0.00000  Uiso   1.00
O48    O     0.26692   0.07293   0.22195   0.00000  Uiso   1.00
O49    O     0.26510   0.02034   0.27295   0.00000  Uiso   1.00
H50    H     0.29417   0.03652   0.29209   0.00000  Uiso   1.00
C51    C     0.50192   0.08677   0.16677   0.00000  Uiso   1.00
C52    C     0.49808   0.24657   0.16656   0.00000  Uiso   1.00
C53    C     0.40054   0.16606   0.15494   0.00000  Uiso   1.00
C54    C     0.59945   0.16727   0.17840   0.00000  Uiso   1.00
C55    C     0.34646   0.15863   0.15031   0.00000  Uiso   1.00
C56    C     0.65354   0.17471   0.18302   0.00000  Uiso   1.00
C57    C     0.46648   0.02267   0.13442   0.00000  Uiso   1.00
C58    C     0.53352   0.31066   0.19891   0.00000  Uiso   1.00
C59    C     0.46204   0.31303   0.13442   0.00000  Uiso   1.00
C60    C     0.53796   0.02030   0.19891   0.00000  Uiso   1.00
C61    C     0.49667   0.29075   0.16685   0.00000  Uiso   1.00
C62    C     0.50333   0.04259   0.16648   0.00000  Uiso   1.00
C63    C     0.53445   0.19093   0.02845   0.00000  Uiso   1.00
C64    C     0.46555   0.14240   0.30488   0.00000  Uiso   1.00
C65    C     0.53442   0.19094   0.31384   0.00000  Uiso   1.00
C66    C     0.46558   0.14239   0.01949   0.00000  Uiso   1.00
H67    H     0.43966   0.04104   0.11068   0.00000  Uiso   1.00
H68    H     0.56034   0.29229   0.22265   0.00000  Uiso   1.00
H69    H     0.56201   0.21034   0.05018   0.00000  Uiso   1.00
H70    H     0.43799   0.12299   0.28315   0.00000  Uiso   1.00
H71    H     0.56190   0.21039   0.29927   0.00000  Uiso   1.00
H72    H     0.43810   0.12294   0.03407   0.00000  Uiso   1.00
N73    N     0.49999   0.16666   0.28573   0.00000  Uiso   1.00
N74    N     0.50001   0.16668   0.04760   0.00000  Uiso   1.00
O75    O     0.50000   0.10558   0.20487   0.00000  Uiso   1.00
O76    O     0.50000   0.22775   0.12846   0.00000  Uiso   1.00
O77    O     0.50000   0.10559   0.12843   0.00000  Uiso   1.00
O78    O     0.50000   0.22774   0.20490   0.00000  Uiso   1.00
O79    O     0.42392   0.16666   0.19595   0.00000  Uiso   1.00
O80    O     0.57608   0.16667   0.13739   0.00000  Uiso   1.00
O81    O     0.42392   0.16667   0.11950   0.00000  Uiso   1.00
O82    O     0.57608   0.16666   0.21383   0.00000  Uiso   1.00
Zn83   Zn    0.50000   0.16666   0.21771   0.00000  Uiso   1.00
Zn84   Zn    0.50000   0.16667   0.11563   0.00000  Uiso   1.00
C85    C     0.65952   0.12535   0.11649   0.00000  Uiso   1.00
O86    O     0.63387   0.09620   0.12809   0.00000  Uiso   1.00
O87    O     0.33806   0.12692   0.07184   0.00000  Uiso   1.00
H88    H     0.65601   0.10255   0.05230   0.00000  Uiso   1.00
C89    C     0.34048   0.20799   0.21685   0.00000  Uiso   1.00
O90    O     0.36616   0.23713   0.20525   0.00000  Uiso   1.00
O91    O     0.66191   0.20644   0.26148   0.00000  Uiso   1.00
H92    H     0.34396   0.23081   0.28102   0.00000  Uiso   1.00
C93    C     0.41977   0.29319   0.10177   0.00000  Uiso   1.00
O94    O     0.39974   0.26041   0.11138   0.00000  Uiso   1.00
O95    O     0.40157   0.31299   0.06039   0.00000  Uiso   1.00
H96    H     0.37249   0.29682   0.04125   0.00000  Uiso   1.00
C97    C     0.58023   0.04014   0.23156   0.00000  Uiso   1.00
O98    O     0.60026   0.07293   0.22195   0.00000  Uiso   1.00
O99    O     0.59843   0.02034   0.27295   0.00000  Uiso   1.00
H100   H     0.62751   0.03652   0.29209   0.00000  Uiso   1.00
C101   C     0.83525   0.08677   0.16677   0.00000  Uiso   1.00
C102   C     0.83141   0.24657   0.16656   0.00000  Uiso   1.00
C103   C     0.73388   0.16606   0.15494   0.00000  Uiso   1.00
C104   C     0.93279   0.16727   0.17840   0.00000  Uiso   1.00
C105   C     0.67980   0.15863   0.15031   0.00000  Uiso   1.00
C106   C     0.98687   0.17471   0.18302   0.00000  Uiso   1.00
C107   C     0.79981   0.02267   0.13442   0.00000  Uiso   1.00
C108   C     0.86685   0.31066   0.19891   0.00000  Uiso   1.00
C109   C     0.79537   0.31303   0.13442   0.00000  Uiso   1.00
C110   C     0.87130   0.02030   0.19891   0.00000  Uiso   1.00
C111   C     0.83000   0.29075   0.16685   0.00000  Uiso   1.00
C112   C     0.83666   0.04259   0.16648   0.00000  Uiso   1.00
C113   C     0.86779   0.19093   0.02845   0.00000  Uiso   1.00
C114   C     0.79888   0.14240   0.30488   0.00000  Uiso   1.00
C115   C     0.86775   0.19094   0.31384   0.00000  Uiso   1.00
C116   C     0.79891   0.14239   0.01949   0.00000  Uiso   1.00
H117   H     0.77299   0.04104   0.11068   0.00000  Uiso   1.00
H118   H     0.89368   0.29229   0.22265   0.00000  Uiso   1.00
H119   H     0.89535   0.21034   0.05018   0.00000  Uiso   1.00
H120   H     0.77132   0.12299   0.28315   0.00000  Uiso   1.00
H121   H     0.89524   0.21039   0.29927   0.00000  Uiso   1.00
H122   H     0.77143   0.12294   0.03407   0.00000  Uiso   1.00
N123   N     0.83332   0.16666   0.28573   0.00000  Uiso   1.00
N124   N     0.83335   0.16668   0.04760   0.00000  Uiso   1.00
O125   O     0.83333   0.10558   0.20487   0.00000  Uiso   1.00
O126   O     0.83334   0.22775   0.12846   0.00000  Uiso   1.00
O127   O     0.83333   0.10559   0.12843   0.00000  Uiso   1.00
O128   O     0.83334   0.22774   0.20490   0.00000  Uiso   1.00
O129   O     0.75725   0.16666   0.19595   0.00000  Uiso   1.00
O130   O     0.90942   0.16667   0.13739   0.00000  Uiso   1.00
O131   O     0.75725   0.16667   0.11950   0.00000  Uiso   1.00
O132   O     0.90942   0.16666   0.21383   0.00000  Uiso   1.00
Zn133  Zn    0.83333   0.16666   0.21771   0.00000  Uiso   1.00
Zn134  Zn    0.83333   0.16667   0.11563   0.00000  Uiso   1.00
C135   C     0.99286   0.12535   0.11649   0.00000  Uiso   1.00
O136   O     0.96720   0.09620   0.12809   0.00000  Uiso   1.00
O137   O     0.67139   0.12692   0.07184   0.00000  Uiso   1.00
H138   H     0.98934   0.10255   0.05230   0.00000  Uiso   1.00
C139   C     0.67381   0.20799   0.21685   0.00000  Uiso   1.00
O140   O     0.69949   0.23713   0.20525   0.00000  Uiso   1.00
O141   O     0.99524   0.20644   0.26148   0.00000  Uiso   1.00
H142   H     0.67729   0.23081   0.28102   0.00000  Uiso   1.00
C143   C     0.75311   0.29319   0.10177   0.00000  Uiso   1.00
O144   O     0.73308   0.26041   0.11138   0.00000  Uiso   1.00
O145   O     0.73490   0.31299   0.06039   0.00000  Uiso   1.00
H146   H     0.70582   0.29682   0.04125   0.00000  Uiso   1.00
C147   C     0.91356   0.04014   0.23156   0.00000  Uiso   1.00
O148   O     0.93359   0.07293   0.22195   0.00000  Uiso   1.00
O149   O     0.93176   0.02034   0.27295   0.00000  Uiso   1.00
H150   H     0.96084   0.03652   0.29209   0.00000  Uiso   1.00
C151   C     0.16859   0.42010   0.16677   0.00000  Uiso   1.00
C152   C     0.16474   0.57990   0.16656   0.00000  Uiso   1.00
C153   C     0.06721   0.49939   0.15494   0.00000  Uiso   1.00
C154   C     0.26612   0.50061   0.17840   0.00000  Uiso   1.00
C155   C     0.01313   0.49197   0.15031   0.00000  Uiso   1.00
C156   C     0.32020   0.50804   0.18302   0.00000  Uiso   1.00
C157   C     0.13315   0.35600   0.13442   0.00000  Uiso   1.00
C158   C     0.20019   0.64400   0.19891   0.00000  Uiso   1.00
C159   C     0.12870   0.64636   0.13442   0.00000  Uiso   1.00
C160   C     0.20463   0.35364   0.19891   0.00000  Uiso   1.00
C161   C     0.16334   0.62408   0.16685   0.00000  Uiso   1.00
C162   C     0.17000   0.37592   0.16648   0.00000  Uiso   1.00
C163   C     0.20112   0.52427   0.02845   0.00000  Uiso   1.00
C164   C     0.13221   0.47573   0.30488   0.00000  Uiso   1.00
C165   C     0.20109   0.52427   0.31384   0.00000  Uiso   1.00
C166   C     0.13225   0.47573   0.01949   0.00000  Uiso   1.00
H167   H     0.10632   0.37437   0.11068   0.00000  Uiso   1.00
H168   H     0.22701   0.62563   0.22265   0.00000  Uiso   1.00
H169   H     0.22868   0.54367   0.05018   0.00000  Uiso   1.00
H170   H     0.10465   0.45633   0.28315   0.00000  Uiso   1.00
H171   H     0.22857   0.54372   0.29927   0.00000  Uiso   1.00
H172   H     0.10476   0.45628   0.03407   0.00000  Uiso   1.00
N173   N     0.16665   0.49999   0.28573   0.00000  Uiso   1.00
N174   N     0.16668   0.50001   0.04760   0.00000  Uiso   1.00
O175   O     0.16666   0.43892   0.20487   0.00000  Uiso   1.00
O176   O     0.16667   0.56108   0.12846   0.00000  Uiso   1.00
O177   O     0.16666   0.43893   0.12843   0.00000  Uiso   1.00
O178   O     0.16667   0.56107   0.20490   0.00000  Uiso   1.00
O179   O     0.09058   0.50000   0.19595   0.00000  Uiso   1.00
O180   O     0.24275   0.50000   0.13739   0.00000  Uiso   1.00
O181   O     0.09058   0.50000   0.11950   0.00000  Uiso   1.00
O182   O     0.24275   0.50000   0.21383   0.00000  Uiso   1.00
Zn183  Zn    0.16667   0.49999   0.21771   0.00000  Uiso   1.00
Zn184  Zn    0.16667   0.50001   0.11563   0.00000  Uiso   1.00
C185   C     0.32619   0.45868   0.11649   0.00000  Uiso   1.00
O186   O     0.30054   0.42953   0.12809   0.00000  Uiso   1.00
O187   O     0.00472   0.46025   0.07184   0.00000  Uiso   1.00
H188   H     0.32267   0.43589   0.05230   0.00000  Uiso   1.00
C189   C     0.00714   0.54133   0.21685   0.00000  Uiso   1.00
O190   O     0.03283   0.57047   0.20525   0.00000  Uiso   1.00
O191   O     0.32857   0.53977   0.26148   0.00000  Uiso   1.00
H192   H     0.01063   0.56414   0.28102   0.00000  Uiso   1.00
C193   C     0.08644   0.62653   0.10177   0.00000  Uiso   1.00
O194   O     0.06641   0.59374   0.11138   0.00000  Uiso   1.00
O195   O     0.06824   0.64632   0.06039   0.00000  Uiso   1.00
H196   H     0.03916   0.63015   0.04125   0.00000  Uiso   1.00
C197   C     0.24689   0.37347   0.23156   0.00000  Uiso   1.00
O198   O     0.26692   0.40626   0.22195   0.00000  Uiso   1.00
O199   O     0.26510   0.35368   0.27295   0.00000  Uiso   1.00
H200   H     0.29417   0.36985   0.29209   0.00000  Uiso   1.00
C201   C     0.50192   0.42010   0.16677   0.00000  Uiso   1.00
C202   C     0.49808   0.57990   0.16656   0.00000  Uiso   1.00
C203   C     0.40054   0.49939   0.15494   0.00000  Uiso   1.00
C204   C     0.59945   0.50061   0.17840   0.00000  Uiso   1.00
C205   C     0.34646   0.49197   0.15031   0.00000  Uiso   1.00
C206   C     0.65354   0.50804   0.18302   0.00000  Uiso   1.00
C207   C     0.46648   0.35600   0.13442   0.00000  Uiso   1.00
C208   C     0.53352   0.64400   0.19891   0.00000  Uiso   1.00
C209   C     0.46204   0.64636   0.13442   0.00000  Uiso   1.00
C210   C     0.53796   0.35364   0.19891   0.00000  Uiso   1.00
C211   C     0.49667   0.62408   0.16685   0.00000  Uiso   1.00
C212   C     0.50333   0.37592   0.16648   0.00000  Uiso   1.00
C213   C     0.53445   0.52427   0.02845   0.00000  Uiso   1.00
C214   C     0.46555   0.47573   0.30488   0.00000  Uiso   1.00
C215   C     0.53442   0.52427   0.31384   0.00000  Uiso   1.00
C216   C     0.46558   0.47573   0.01949   0.00000  Uiso   1.00
H217   H     0.43966   0.37437   0.11068   0.00000  Uiso   1.00
H218   H     0.56034   0.62563   0.22265   0.00000  Uiso   1.00
H219   H     0.56201   0.54367   0.05018   0.00000  Uiso   1.00
H220   H     0.43799   0.45633   0.28315   0.00000  Uiso   1.00
H221   H     0.56190   0.54372   0.29927   0.00000  Uiso   1.00
H222   H     0.43810   0.45628   0.03407   0.00000  Uiso   1.00
N223   N     0.49999   0.49999   0.28573   0.00000  Uiso   1.00
N224   N     0.50001   0.50001   0.04760   0.00000  Uiso   1.00
O225   O     0.50000   0.43892   0.20487   0.00000  Uiso   1.00
O226   O     0.50000   0.56108   0.12846   0.00000  Uiso   1.00
O227   O     0.50000   0.43893   0.12843   0.00000  Uiso   1.00
O228   O     0.50000   0.56107   0.20490   0.00000  Uiso   1.00
O229   O     0.42392   0.50000   0.19595   0.00000  Uiso   1.00
O230   O     0.57608   0.50000   0.13739   0.00000  Uiso   1.00
O231   O     0.42392   0.50000   0.11950   0.00000  Uiso   1.00
O232   O     0.57608   0.50000   0.21383   0.00000  Uiso   1.00
Zn233  Zn    0.50000   0.49999   0.21771   0.00000  Uiso   1.00
Zn234  Zn    0.50000   0.50001   0.11563   0.00000  Uiso   1.00
C235   C     0.65952   0.45868   0.11649   0.00000  Uiso   1.00
O236   O     0.63387   0.42953   0.12809   0.00000  Uiso   1.00
O237   O     0.33806   0.46025   0.07184   0.00000  Uiso   1.00
H238   H     0.65601   0.43589   0.05230   0.00000  Uiso   1.00
C239   C     0.34048   0.54133   0.21685   0.00000  Uiso   1.00
O240   O     0.36616   0.57047   0.20525   0.00000  Uiso   1.00
O241   O     0.66191   0.53977   0.26148   0.00000  Uiso   1.00
H242   H     0.34396   0.56414   0.28102   0.00000  Uiso   1.00
C243   C     0.41977   0.62653   0.10177   0.00000  Uiso   1.00
O244   O     0.39974   0.59374   0.11138   0.00000  Uiso   1.00
O245   O     0.40157   0.64632   0.06039   0.00000  Uiso   1.00
H246   H     0.37249   0.63015   0.04125   0.00000  Uiso   1.00
C247   C     0.58023   0.37347   0.23156   0.00000  Uiso   1.00
O248   O     0.60026   0.40626   0.22195   0.00000  Uiso   1.00
O249   O     0.59843   0.35368   0.27295   0.00000  Uiso   1.00
H250   H     0.62751   0.36985   0.29209   0.00000  Uiso   1.00
C251   C     0.83525   0.42010   0.16677   0.00000  Uiso   1.00
C252   C     0.83141   0.57990   0.16656   0.00000  Uiso   1.00
C253   C     0.73388   0.49939   0.15494   0.00000  Uiso   1.00
C254   C     0.93279   0.50061   0.17840   0.00000  Uiso   1.00
C255   C     0.67980   0.49197   0.15031   0.00000  Uiso   1.00
C256   C     0.98687   0.50804   0.18302   0.00000  Uiso   1.00
C257   C     0.79981   0.35600   0.13442   0.00000  Uiso   1.00
C258   C     0.86685   0.64400   0.19891   0.00000  Uiso   1.00
C259   C     0.79537   0.64636   0.13442   0.00000  Uiso   1.00
C260   C     0.87130   0.35364   0.19891   0.00000  Uiso   1.00
C261   C     0.83000   0.62408   0.16685   0.00000  Uiso   1.00
C262   C     0.83666   0.37592   0.16648   0.00000  Uiso   1.00
C263   C     0.86779   0.52427   0.02845   0.00000  Uiso   1.00
C264   C     0.79888   0.47573   0.30488   0.00000  Uiso   1.00
C265   C     0.86775   0.52427   0.31384   0.00000  Uiso   1.00
C266   C     0.79891   0.47573   0.01949   0.00000  Uiso   1.00
H267   H     0.77299   0.37437   0.11068   0.00000  Uiso   1.00
H268   H     0.89368   0.62563   0.22265   0.00000  Uiso   1.00
H269   H     0.89535   0.54367   0.05018   0.00000  Uiso   1.00
H270   H     0.77132   0.45633   0.28315   0.00000  Uiso   1.00
H271   H     0.89524   0.54372   0.29927   0.00000  Uiso   1.00
H272   H     0.77143   0.45628   0.03407   0.00000  Uiso   1.00
N273   N     0.83332   0.49999   0.28573   0.00000  Uiso   1.00
N274   N     0.83335   0.50001   0.04760   0.00000  Uiso   1.00
O275   O     0.83333   0.43892   0.20487   0.00000  Uiso   1.00
O276   O     0.83334   0.56108   0.12846   0.00000  Uiso   1.00
O277   O     0.83333   0.43893   0.12843   0.00000  Uiso   1.00
O278   O     0.83334   0.56107   0.20490   0.00000  Uiso   1.00
O279   O     0.75725   0.50000   0.19595   0.00000  Uiso   1.00
O280   O     0.90942   0.50000   0.13739   0.00000  Uiso   1.00
O281   O     0.75725   0.50000   0.11950   0.00000  Uiso   1.00
O282   O     0.90942   0.50000   0.21383   0.00000  Uiso   1.00
Zn283  Zn    0.83333   0.49999   0.21771   0.00000  Uiso   1.00
Zn284  Zn    0.83333   0.50001   0.11563   0.00000  Uiso   1.00
C285   C     0.99286   0.45868   0.11649   0.00000  Uiso   1.00
O286   O     0.96720   0.42953   0.12809   0.00000  Uiso   1.00
O287   O     0.67139   0.46025   0.07184   0.00000  Uiso   1.00
H288   H     0.98934   0.43589   0.05230   0.00000  Uiso   1.00
C289   C     0.67381   0.54133   0.21685   0.00000  Uiso   1.00
O290   O     0.69949   0.57047   0.20525   0.00000  Uiso   1.00
O291   O     0.99524   0.53977   0.26148   0.00000  Uiso   1.00
H292   H     0.67729   0.56414   0.28102   0.00000  Uiso   1.00
C293   C     0.75311   0.62653   0.10177   0.00000  Uiso   1.00
O294   O     0.73308   0.59374   0.11138   0.00000  Uiso   1.00
O295   O     0.73490   0.64632   0.06039   0.00000  Uiso   1.00
H296   H     0.70582   0.63015   0.04125   0.00000  Uiso   1.00
C297   C     0.91356   0.37347   0.23156   0.00000  Uiso   1.00
O298   O     0.93359   0.40626   0.22195   0.00000  Uiso   1.00
O299   O     0.93176   0.35368   0.27295   0.00000  Uiso   1.00
H300   H     0.96084   0.36985   0.29209   0.00000  Uiso   1.00
C301   C     0.16859   0.75343   0.16677   0.00000  Uiso   1.00
C302   C     0.16474   0.91323   0.16656   0.00000  Uiso   1.00
C303   C     0.06721   0.83273   0.15494   0.00000  Uiso   1.00
C304   C     0.26612   0.83394   0.17840   0.00000  Uiso   1.00
C305   C     0.01313   0.82530   0.15031   0.00000  Uiso   1.00
C306   C     0.32020   0.84137   0.18302   0.00000  Uiso   1.00
C307   C     0.13315   0.68934   0.13442   0.00000  Uiso   1.00
C308   C     0.20019   0.97733   0.19891   0.00000  Uiso   1.00
C309   C     0.12870   0.97970   0.13442   0.00000  Uiso   1.00
C310   C     0.20463   0.68697   0.19891   0.00000  Uiso   1.00
C311   C     0.16334   0.95741   0.16685   0.00000  Uiso   1.00
C312   C     0.17000   0.70925   0.16648   0.00000  Uiso   1.00
C313   C     0.20112   0.85760   0.02845   0.00000  Uiso   1.00
C314   C     0.13221   0.80907   0.30488   0.00000  Uiso   1.00
C315   C     0.20109   0.85761   0.31384   0.00000  Uiso   1.00
C316   C     0.13225   0.80906   0.01949   0.00000  Uiso   1.00
H317   H     0.10632   0.70771   0.11068   0.00000  Uiso   1.00
H318   H     0.22701   0.95896   0.22265   0.00000  Uiso   1.00
H319   H     0.22868   0.87701   0.05018   0.00000  Uiso   1.00
H320   H     0.10465   0.78966   0.28315   0.00000  Uiso   1.00
H321   H     0.22857   0.87706   0.29927   0.00000  Uiso   1.00
H322   H     0.10476   0.78961   0.03407   0.00000  Uiso   1.00
N323   N     0.16665   0.83332   0.28573   0.00000  Uiso   1.00
N324   N     0.16668   0.83334   0.04760   0.00000  Uiso   1.00
O325   O     0.16666   0.77225   0.20487   0.00000  Uiso   1.00
O326   O     0.16667   0.89442   0.12846   0.00000  Uiso   1.00
O327   O     0.16666   0.77226   0.12843   0.00000  Uiso   1.00
O328   O     0.16667   0.89441   0.20490   0.00000  Uiso   1.00
O329   O     0.09058   0.83333   0.19595   0.00000  Uiso   1.00
O330   O     0.24275   0.83334   0.13739   0.00000  Uiso   1.00
O331   O     0.09058   0.83334   0.11950   0.00000  Uiso   1.00
O332   O     0.24275   0.83333   0.21383   0.00000  Uiso   1.00
Zn333  Zn    0.16667   0.83333   0.21771   0.00000  Uiso   1.00
Zn334  Zn    0.16667   0.83334   0.11563   0.00000  Uiso   1.00
C335   C     0.32619   0.79202   0.11649   0.00000  Uiso   1.00
O336   O     0.30054   0.76286   0.12809   0.00000  Uiso   1.00
O337   O     0.00472   0.79359   0.07184   0.00000  Uiso   1.00
H338   H     0.32267   0.76922   0.05230   0.00000  Uiso   1.00
C339   C     0.00714   0.87466   0.21685   0.00000  Uiso   1.00
O340   O     0.03283   0.90380   0.20525   0.00000  Uiso   1.00
O341   O     0.32857   0.87311   0.26148   0.00000  Uiso   1.00
H342   H     0.01063   0.89747   0.28102   0.00000  Uiso   1.00
C343   C     0.08644   0.95986   0.10177   0.00000  Uiso   1.00
O344   O     0.06641   0.92707   0.11138   0.00000  Uiso   1.00
O345   O     0.06824   0.97966   0.06039   0.00000  Uiso   1.00
H346   H     0.03916   0.96348   0.04125   0.00000  Uiso   1.00
C347   C     0.24689   0.70681   0.23156   0.00000  Uiso   1.00
O348   O     0.26692   0.73959   0.22195   0.00000  Uiso   1.00
O349   O     0.26510   0.68701   0.27295   0.00000  Uiso   1.00
H350   H     0.29417   0.70318   0.29209   0.00000  Uiso   1.00
C351   C     0.50192   0.75343   0.16677   0.00000  Uiso   1.00
C352   C     0.49808   0.91323   0.16656   0.00000  Uiso   1.00
C353   C     0.40054   0.83273   0.15494   0.00000  Uiso   1.00
C354   C     0.59945   0.83394   0.17840   0.00000  Uiso   1.00
C355   C     0.34646   0.82530   0.15031   0.00000  Uiso   1.00
C356   C     0.65354   0.84137   0.18302   0.00000  Uiso   1.00
C357   C     0.46648   0.68934   0.13442   0.00000  Uiso   1.00
C358   C     0.53352   0.97733   0.19891   0.00000  Uiso   1.00
C359   C     0.46204   0.97970   0.13442   0.00000  Uiso   1.00
C360   C     0.53796   0.68697   0.19891   0.00000  Uiso   1.00
C361   C     0.49667   0.95741   0.16685   0.00000  Uiso   1.00
C362   C     0.50333   0.70925   0.16648   0.00000  Uiso   1.00
C363   C     0.53445   0.85760   0.02845   0.00000  Uiso   1.00
C364   C     0.46555   0.80907   0.30488   0.00000  Uiso   1.00
C365   C     0.53442   0.85761   0.31384   0.00000  Uiso   1.00
C366   C     0.46558   0.80906   0.01949   0.00000  Uiso   1.00
H367   H     0.43966   0.70771   0.11068   0.00000  Uiso   1.00
H368   H     0.56034   0.95896   0.22265   0.00000  Uiso   1.00
H369   H     0.56201   0.87701   0.05018   0.00000  Uiso   1.00
H370   H     0.43799   0.78966   0.28315   0.00000  Uiso   1.00
H371   H     0.56190   0.87706   0.29927   0.00000  Uiso   1.00
H372   H     0.43810   0.78961   0.03407   0.00000  Uiso   1.00
N373   N     0.49999   0.83332   0.28573   0.00000  Uiso   1.00
N374   N     0.50001   0.83334   0.04760   0.00000  Uiso   1.00
O375   O     0.50000   0.77225   0.20487   0.00000  Uiso   1.00
O376   O     0.50000   0.89442   0.12846   0.00000  Uiso   1.00
O377   O     0.50000   0.77226   0.12843   0.00000  Uiso   1.00
O378   O     0.50000   0.89441   0.20490   0.00000  Uiso   1.00
O379   O     0.42392   0.83333   0.19595   0.00000  Uiso   1.00
O380   O     0.57608   0.83334   0.13739   0.00000  Uiso   1.00
O381   O     0.42392   0.83334   0.11950   0.00000  Uiso   1.00
O382   O     0.57608   0.83333   0.21383   0.00000  Uiso   1.00
Zn383  Zn    0.50000   0.83333   0.21771   0.00000  Uiso   1.00
Zn384  Zn    0.50000   0.83334   0.11563   0.00000  Uiso   1.00
C385   C     0.65952   0.79202   0.11649   0.00000  Uiso   1.00
O386   O     0.63387   0.76286   0.12809   0.00000  Uiso   1.00
O387   O     0.33806   0.79359   0.07184   0.00000  Uiso   1.00
H388   H     0.65601   0.76922   0.05230   0.00000  Uiso   1.00
C389   C     0.34048   0.87466   0.21685   0.00000  Uiso   1.00
O390   O     0.36616   0.90380   0.20525   0.00000  Uiso   1.00
O391   O     0.66191   0.87311   0.26148   0.00000  Uiso   1.00
H392   H     0.34396   0.89747   0.28102   0.00000  Uiso   1.00
C393   C     0.41977   0.95986   0.10177   0.00000  Uiso   1.00
O394   O     0.39974   0.92707   0.11138   0.00000  Uiso   1.00
O395   O     0.40157   0.97966   0.06039   0.00000  Uiso   1.00
H396   H     0.37249   0.96348   0.04125   0.00000  Uiso   1.00
C397   C     0.58023   0.70681   0.23156   0.00000  Uiso   1.00
O398   O     0.60026   0.73959   0.22195   0.00000  Uiso   1.00
O399   O     0.59843   0.68701   0.27295   0.00000  Uiso   1.00
H400   H     0.62751   0.70318   0.29209   0.00000  Uiso   1.00
C401   C     0.83525   0.75343   0.16677   0.00000  Uiso   1.00
C402   C     0.83141   0.91323   0.16656   0.00000  Uiso   1.00
C403   C     0.73388   0.83273   0.15494   0.00000  Uiso   1.00
C404   C     0.93279   0.83394   0.17840   0.00000  Uiso   1.00
C405   C     0.67980   0.82530   0.15031   0.00000  Uiso   1.00
C406   C     0.98687   0.84137   0.18302   0.00000  Uiso   1.00
C407   C     0.79981   0.68934   0.13442   0.00000  Uiso   1.00
C408   C     0.86685   0.97733   0.19891   0.00000  Uiso   1.00
C409   C     0.79537   0.97970   0.13442   0.00000  Uiso   1.00
C410   C     0.87130   0.68697   0.19891   0.00000  Uiso   1.00
C411   C     0.83000   0.95741   0.16685   0.00000  Uiso   1.00
C412   C     0.83666   0.70925   0.16648   0.00000  Uiso   1.00
C413   C     0.86779   0.85760   0.02845   0.00000  Uiso   1.00
C414   C     0.79888   0.80907   0.30488   0.00000  Uiso   1.00
C415   C     0.86775   0.85761   0.31384   0.00000  Uiso   1.00
C416   C     0.79891   0.80906   0.01949   0.00000  Uiso   1.00
H417   H     0.77299   0.70771   0.11068   0.00000  Uiso   1.00
H418   H     0.89368   0.95896   0.22265   0.00000  Uiso   1.00
H419   H     0.89535   0.87701   0.05018   0.00000  Uiso   1.00
H420   H     0.77132   0.78966   0.28315   0.00000  Uiso   1.00
H421   H     0.89524   0.87706   0.29927   0.00000  Uiso   1.00
H422   H     0.77143   0.78961   0.03407   0.00000  Uiso   1.00
N423   N     0.83332   0.83332   0.28573   0.00000  Uiso   1.00
N424   N     0.83335   0.83334   0.04760   0.00000  Uiso   1.00
O425   O     0.83333   0.77225   0.20487   0.00000  Uiso   1.00
O426   O     0.83334   0.89442   0.12846   0.00000  Uiso   1.00
O427   O     0.83333   0.77226   0.12843   0.00000  Uiso   1.00
O428   O     0.83334   0.89441   0.20490   0.00000  Uiso   1.00
O429   O     0.75725   0.83333   0.19595   0.00000  Uiso   1.00
O430   O     0.90942   0.83334   0.13739   0.00000  Uiso   1.00
O431   O     0.75725   0.83334   0.11950   0.00000  Uiso   1.00
O432   O     0.90942   0.83333   0.21383   0.00000  Uiso   1.00
Zn433  Zn    0.83333   0.83333   0.21771   0.00000  Uiso   1.00
Zn434  Zn    0.83333   0.83334   0.11563   0.00000  Uiso   1.00
C435   C     0.99286   0.79202   0.11649   0.00000  Uiso   1.00
O436   O     0.96720   0.76286   0.12809   0.00000  Uiso   1.00
O437   O     0.67139   0.79359   0.07184   0.00000  Uiso   1.00
H438   H     0.98934   0.76922   0.05230   0.00000  Uiso   1.00
C439   C     0.67381   0.87466   0.21685   0.00000  Uiso   1.00
O440   O     0.69949   0.90380   0.20525   0.00000  Uiso   1.00
O441   O     0.99524   0.87311   0.26148   0.00000  Uiso   1.00
H442   H     0.67729   0.89747   0.28102   0.00000  Uiso   1.00
C443   C     0.75311   0.95986   0.10177   0.00000  Uiso   1.00
O444   O     0.73308   0.92707   0.11138   0.00000  Uiso   1.00
O445   O     0.73490   0.97966   0.06039   0.00000  Uiso   1.00
H446   H     0.70582   0.96348   0.04125   0.00000  Uiso   1.00
C447   C     0.91356   0.70681   0.23156   0.00000  Uiso   1.00
O448   O     0.93359   0.73959   0.22195   0.00000  Uiso   1.00
O449   O     0.93176   0.68701   0.27295   0.00000  Uiso   1.00
H450   H     0.96084   0.70318   0.29209   0.00000  Uiso   1.00
C451   C     0.16859   0.08677   0.50011   0.00000  Uiso   1.00
C452   C     0.16474   0.24657   0.49989   0.00000  Uiso   1.00
C453   C     0.06721   0.16606   0.48827   0.00000  Uiso   1.00
C454   C     0.26612   0.16727   0.51173   0.00000  Uiso   1.00
C455   C     0.01313   0.15863   0.48365   0.00000  Uiso   1.00
C456   C     0.32020   0.17471   0.51635   0.00000  Uiso   1.00
C457   C     0.13315   0.02267   0.46775   0.00000  Uiso   1.00
C458   C     0.20019   0.31066   0.53225   0.00000  Uiso   1.00
C459   C     0.12870   0.31303   0.46775   0.00000  Uiso   1.00
C460   C     0.20463   0.02030   0.53225   0.00000  Uiso   1.00
C461   C     0.16334   0.29075   0.50018   0.00000  Uiso   1.00
C462   C     0.17000   0.04259   0.49982   0.00000  Uiso   1.00
C463   C     0.20112   0.19093   0.36179   0.00000  Uiso   1.00
C464   C     0.13221   0.14240   0.63821   0.00000  Uiso   1.00
C465   C     0.20109   0.19094   0.64717   0.00000  Uiso   1.00
C466   C     0.13225   0.14239   0.35283   0.00000  Uiso   1.00
H467   H     0.10632   0.04104   0.44402   0.00000  Uiso   1.00
H468   H     0.22701   0.29229   0.55598   0.00000  Uiso   1.00
H469   H     0.22868   0.21034   0.38352   0.00000  Uiso   1.00
H470   H     0.10465   0.12299   0.61648   0.00000  Uiso   1.00
H471   H     0.22857   0.21039   0.63260   0.00000  Uiso   1.00
H472   H     0.10476   0.12294   0.36740   0.00000  Uiso   1.00
N473   N     0.16665   0.16666   0.61907   0.00000  Uiso   1.00
N474   N     0.16668   0.16668   0.38093   0.00000  Uiso   1.00
O475   O     0.16666   0.10558   0.53821   0.00000  Uiso   1.00
O476   O     0.16667   0.22775   0.46179   0.00000  Uiso   1.00
O477   O     0.16666   0.10559   0.46176   0.00000  Uiso   1.00
O478   O     0.16667   0.22774   0.53824   0.00000  Uiso   1.00
O479   O     0.09058   0.16666   0.52928   0.00000  Uiso   1.00
O480   O     0.24275   0.16667   0.47072   0.00000  Uiso   1.00
O481   O     0.09058   0.16667   0.45284   0.00000  Uiso   1.00
O482   O     0.24275   0.16666   0.54716   0.00000  Uiso   1.00
Zn483  Zn    0.16667   0.16666   0.55104   0.00000  Uiso   1.00
Zn484  Zn    0.16667   0.16667   0.44896   0.00000  Uiso   1.00
C485   C     0.32619   0.12535   0.44982   0.00000  Uiso   1.00
O486   O     0.30054   0.09620   0.46143   0.00000  Uiso   1.00
O487   O     0.00472   0.12692   0.40517   0.00000  Uiso   1.00
H488   H     0.32267   0.10255   0.38563   0.00000  Uiso   1.00
C489   C     0.00714   0.20799   0.55018   0.00000  Uiso   1.00
O490   O     0.03283   0.23713   0.53858   0.00000  Uiso   1.00
O491   O     0.32857   0.20644   0.59482   0.00000  Uiso   1.00
H492   H     0.01063   0.23081   0.61436   0.00000  Uiso   1.00
C493   C     0.08644   0.29319   0.43511   0.00000  Uiso   1.00
O494   O     0.06641   0.26041   0.44472   0.00000  Uiso   1.00
O495   O     0.06824   0.31299   0.39372   0.00000  Uiso   1.00
H496   H     0.03916   0.29682   0.37458   0.00000  Uiso   1.00
C497   C     0.24689   0.04014   0.56489   0.00000  Uiso   1.00
O498   O     0.26692   0.07293   0.55529   0.00000  Uiso   1.00
O499   O     0.26510   0.02034   0.60628   0.00000  Uiso   1.00
H500   H     0.29417   0.03652   0.62542   0.00000  Uiso   1.00
C501   C     0.50192   0.08677   0.50011   0.00000  Uiso   1.00
C502   C     0.49808   0.24657   0.49989   0.00000  Uiso   1.00
C503   C     0.40054   0.16606   0.48827   0.00000  Uiso   1.00
C504   C     0.59945   0.16727   0.51173   0.00000  Uiso   1.00
C505   C     0.34646   0.15863   0.48365   0.00000  Uiso   1.00
C506   C     0.65354   0.17471   0.51635   0.00000  Uiso   1.00
C507   C     0.46648   0.02267   0.46775   0.00000  Uiso   1.00
C508   C     0.53352   0.31066   0.53225   0.00000  Uiso   1.00
C509   C     0.46204   0.31303   0.46775   0.00000  Uiso   1.00
C510   C     0.53796   0.02030   0.53225   0.00000  Uiso   1.00
C511   C     0.49667   0.29075   0.50018   0.00000  Uiso   1.00
C512   C     0.50333   0.04259   0.49982   0.00000  Uiso   1.00
C513   C     0.53445   0.19093   0.36179   0.00000  Uiso   1.00
C514   C     0.46555   0.14240   0.63821   0.00000  Uiso   1.00
C515   C     0.53442   0.19094   0.64717   0.00000  Uiso   1.00
C516   C     0.46558   0.14239   0.35283   0.00000  Uiso   1.00
H517   H     0.43966   0.04104   0.44402   0.00000  Uiso   1.00
H518   H     0.56034   0.29229   0.55598   0.00000  Uiso   1.00
H519   H     0.56201   0.21034   0.38352   0.00000  Uiso   1.00
H520   H     0.43799   0.12299   0.61648   0.00000  Uiso   1.00
H521   H     0.56190   0.21039   0.63260   0.00000  Uiso   1.00
H522   H     0.43810   0.12294   0.36740   0.00000  Uiso   1.00
N523   N     0.49999   0.16666   0.61907   0.00000  Uiso   1.00
N524   N     0.50001   0.16668   0.38093   0.00000  Uiso   1.00
O525   O     0.50000   0.10558   0.53821   0.00000  Uiso   1.00
O526   O     0.50000   0.22775   0.46179   0.00000  Uiso   1.00
O527   O     0.50000   0.10559   0.46176   0.00000  Uiso   1.00
O528   O     0.50000   0.22774   0.53824   0.00000  Uiso   1.00
O529   O     0.42392   0.16666   0.52928   0.00000  Uiso   1.00
O530   O     0.57608   0.16667   0.47072   0.00000  Uiso   1.00
O531   O     0.42392   0.16667   0.45284   0.00000  Uiso   1.00
O532   O     0.57608   0.16666   0.54716   0.00000  Uiso   1.00
Zn533  Zn    0.50000   0.16666   0.55104   0.00000  Uiso   1.00
Zn534  Zn    0.50000   0.16667   0.44896   0.00000  Uiso   1.00
C535   C     0.65952   0.12535   0.44982   0.00000  Uiso   1.00
O536   O     0.63387   0.09620   0.46143   0.00000  Uiso   1.00
O537   O     0.33806   0.12692   0.40517   0.00000  Uiso   1.00
H538   H     0.65601   0.10255   0.38563   0.00000  Uiso   1.00
C539   C     0.34048   0.20799   0.55018   0.00000  Uiso   1.00
O540   O     0.36616   0.23713   0.53858   0.00000  Uiso   1.00
O541   O     0.66191   0.20644   0.59482   0.00000  Uiso   1.00
H542   H     0.34396   0.23081   0.61436   0.00000  Uiso   1.00
C543   C     0.41977   0.29319   0.43511   0.00000  Uiso   1.00
O544   O     0.39974   0.26041   0.44472   0.00000  Uiso   1.00
O545   O     0.40157   0.31299   0.39372   0.00000  Uiso   1.00
H546   H     0.37249   0.29682   0.37458   0.00000  Uiso   1.00
C547   C     0.58023   0.04014   0.56489   0.00000  Uiso   1.00
O548   O     0.60026   0.07293   0.55529   0.00000  Uiso   1.00
O549   O     0.59843   0.02034   0.60628   0.00000  Uiso   1.00
H550   H     0.62751   0.03652   0.62542   0.00000  Uiso   1.00
C551   C     0.83525   0.08677   0.50011   0.00000  Uiso   1.00
C552   C     0.83141   0.24657   0.49989   0.00000  Uiso   1.00
C553   C     0.73388   0.16606   0.48827   0.00000  Uiso   1.00
C554   C     0.93279   0.16727   0.51173   0.00000  Uiso   1.00
C555   C     0.67980   0.15863   0.48365   0.00000  Uiso   1.00
C556   C     0.98687   0.17471   0.51635   0.00000  Uiso   1.00
C557   C     0.79981   0.02267   0.46775   0.00000  Uiso   1.00
C558   C     0.86685   0.31066   0.53225   0.00000  Uiso   1.00
C559   C     0.79537   0.31303   0.46775   0.00000  Uiso   1.00
C560   C     0.87130   0.02030   0.53225   0.00000  Uiso   1.00
C561   C     0.83000   0.29075   0.50018   0.00000  Uiso   1.00
C562   C     0.83666   0.04259   0.49982   0.00000  Uiso   1.00
C563   C     0.86779   0.19093   0.36179   0.00000  Uiso   1.00
C564   C     0.79888   0.14240   0.63821   0.00000  Uiso   1.00
C565   C     0.86775   0.19094   0.64717   0.00000  Uiso   1.00
C566   C     0.79891   0.14239   0.35283   0.00000  Uiso   1.00
H567   H     0.77299   0.04104   0.44402   0.00000  Uiso   1.00
H568   H     0.89368   0.29229   0.55598   0.00000  Uiso   1.00
H569   H     0.89535   0.21034   0.38352   0.00000  Uiso   1.00
H570   H     0.77132   0.12299   0.61648   0.00000  Uiso   1.00
H571   H     0.89524   0.21039   0.63260   0.00000  Uiso   1.00
H572   H     0.77143   0.12294   0.36740   0.00000  Uiso   1.00
N573   N     0.83332   0.16666   0.61907   0.00000  Uiso   1.00
N574   N     0.83335   0.16668   0.38093   0.00000  Uiso   1.00
O575   O     0.83333   0.10558   0.53821   0.00000  Uiso   1.00
O576   O     0.83334   0.22775   0.46179   0.00000  Uiso   1.00
O577   O     0.83333   0.10559   0.46176   0.00000  Uiso   1.00
O578   O     0.83334   0.22774   0.53824   0.00000  Uiso   1.00
O579   O     0.75725   0.16666   0.52928   0.00000  Uiso   1.00
O580   O     0.90942   0.16667   0.47072   0.00000  Uiso   1.00
O581   O     0.75725   0.16667   0.45284   0.00000  Uiso   1.00
O582   O     0.90942   0.16666   0.54716   0.00000  Uiso   1.00
Zn583  Zn    0.83333   0.16666   0.55104   0.00000  Uiso   1.00
Zn584  Zn    0.83333   0.16667   0.44896   0.00000  Uiso   1.00
C585   C     0.99286   0.12535   0.44982   0.00000  Uiso   1.00
O586   O     0.96720   0.09620   0.46143   0.00000  Uiso   1.00
O587   O     0.67139   0.12692   0.40517   0.00000  Uiso   1.00
H588   H     0.98934   0.10255   0.38563   0.00000  Uiso   1.00
C589   C     0.67381   0.20799   0.55018   0.00000  Uiso   1.00
O590   O     0.69949   0.23713   0.53858   0.00000  Uiso   1.00
O591   O     0.99524   0.20644   0.59482   0.00000  Uiso   1.00
H592   H     0.67729   0.23081   0.61436   0.00000  Uiso   1.00
C593   C     0.75311   0.29319   0.43511   0.00000  Uiso   1.00
O594   O     0.73308   0.26041   0.44472   0.00000  Uiso   1.00
O595   O     0.73490   0.31299   0.39372   0.00000  Uiso   1.00
H596   H     0.70582   0.29682   0.37458   0.00000  Uiso   1.00
C597   C     0.91356   0.04014   0.56489   0.00000  Uiso   1.00
O598   O     0.93359   0.07293   0.55529   0.00000  Uiso   1.00
O599   O     0.93176   0.02034   0.60628   0.00000  Uiso   1.00
H600   H     0.96084   0.03652   0.62542   0.00000  Uiso   1.00
C601   C     0.16859   0.42010   0.50011   0.00000  Uiso   1.00
C602   C     0.16474   0.57990   0.49989   0.00000  Uiso   1.00
C603   C     0.06721   0.49939   0.48827   0.00000  Uiso   1.00
C604   C     0.26612   0.50061   0.51173   0.00000  Uiso   1.00
C605   C     0.01313   0.49197   0.48365   0.00000  Uiso   1.00
C606   C     0.32020   0.50804   0.51635   0.00000  Uiso   1.00
C607   C     0.13315   0.35600   0.46775   0.00000  Uiso   1.00
C608   C     0.20019   0.64400   0.53225   0.00000  Uiso   1.00
C609   C     0.12870   0.64636   0.46775   0.00000  Uiso   1.00
C610   C     0.20463   0.35364   0.53225   0.00000  Uiso   1.00
C611   C     0.16334   0.62408   0.50018   0.00000  Uiso   1.00
C612   C     0.17000   0.37592   0.49982   0.00000  Uiso   1.00
C613   C     0.20112   0.52427   0.36179   0.00000  Uiso   1.00
C614   C     0.13221   0.47573   0.63821   0.00000  Uiso   1.00
C615   C     0.20109   0.52427   0.64717   0.00000  Uiso   1.00
C616   C     0.13225   0.47573   0.35283   0.00000  Uiso   1.00
H617   H     0.10632   0.37437   0.44402   0.00000  Uiso   1.00
H618   H     0.22701   0.62563   0.55598   0.00000  Uiso   1.00
H619   H     0.22868   0.54367   0.38352   0.00000  Uiso   1.00
H620   H     0.10465   0.45633   0.61648   0.00000  Uiso   1.00
H621   H     0.22857   0.54372   0.63260   0.00000  Uiso   1.00
H622   H     0.10476   0.45628   0.36740   0.00000  Uiso   1.00
N623   N     0.16665   0.49999   0.61907   0.00000  Uiso   1.00
N624   N     0.16668   0.50001   0.38093   0.00000  Uiso   1.00
O625   O     0.16666   0.43892   0.53821   0.00000  Uiso   1.00
O626   O     0.16667   0.56108   0.46179   0.00000  Uiso   1.00
O627   O     0.16666   0.43893   0.46176   0.00000  Uiso   1.00
O628   O     0.16667   0.56107   0.53824   0.00000  Uiso   1.00
O629   O     0.09058   0.50000   0.52928   0.00000  Uiso   1.00
O630   O     0.24275   0.50000   0.47072   0.00000  Uiso   1.00
O631   O     0.09058   0.50000   0.45284   0.00000  Uiso   1.00
O632   O     0.24275   0.50000   0.54716   0.00000  Uiso   1.00
Zn633  Zn    0.16667   0.49999   0.55104   0.00000  Uiso   1.00
Zn634  Zn    0.16667   0.50001   0.44896   0.00000  Uiso   1.00
C635   C     0.32619   0.45868   0.44982   0.00000  Uiso   1.00
O636   O     0.30054   0.42953   0.46143   0.00000  Uiso   1.00
O637   O     0.00472   0.46025   0.40517   0.00000  Uiso   1.00
H638   H     0.32267   0.43589   0.38563   0.00000  Uiso   1.00
C639   C     0.00714   0.54133   0.55018   0.00000  Uiso   1.00
O640   O     0.03283   0.57047   0.53858   0.00000  Uiso   1.00
O641   O     0.32857   0.53977   0.59482   0.00000  Uiso   1.00
H642   H     0.01063   0.56414   0.61436   0.00000  Uiso   1.00
C643   C     0.08644   0.62653   0.43511   0.00000  Uiso   1.00
O644   O     0.06641   0.59374   0.44472   0.00000  Uiso   1.00
O645   O     0.06824   0.64632   0.39372   0.00000  Uiso   1.00
H646   H     0.03916   0.63015   0.37458   0.00000  Uiso   1.00
C647   C     0.24689   0.37347   0.56489   0.00000  Uiso   1.00
O648   O     0.26692   0.40626   0.55529   0.00000  Uiso   1.00
O649   O     0.26510   0.35368   0.60628   0.00000  Uiso   1.00
H650   H     0.29417   0.36985   0.62542   0.00000  Uiso   1.00
C651   C     0.50192   0.42010   0.50011   0.00000  Uiso   1.00
C652   C     0.49808   0.57990   0.49989   0.00000  Uiso   1.00
C653   C     0.40054   0.49939   0.48827   0.00000  Uiso   1.00
C654   C     0.59945   0.50061   0.51173   0.00000  Uiso   1.00
C655   C     0.34646   0.49197   0.48365   0.00000  Uiso   1.00
C656   C     0.65354   0.50804   0.51635   0.00000  Uiso   1.00
C657   C     0.46648   0.35600   0.46775   0.00000  Uiso   1.00
C658   C     0.53352   0.64400   0.53225   0.00000  Uiso   1.00
C659   C     0.46204   0.64636   0.46775   0.00000  Uiso   1.00
C660   C     0.53796   0.35364   0.53225   0.00000  Uiso   1.00
C661   C     0.49667   0.62408   0.50018   0.00000  Uiso   1.00
C662   C     0.50333   0.37592   0.49982   0.00000  Uiso   1.00
C663   C     0.53445   0.52427   0.36179   0.00000  Uiso   1.00
C664   C     0.46555   0.47573   0.63821   0.00000  Uiso   1.00
C665   C     0.53442   0.52427   0.64717   0.00000  Uiso   1.00
C666   C     0.46558   0.47573   0.35283   0.00000  Uiso   1.00
H667   H     0.43966   0.37437   0.44402   0.00000  Uiso   1.00
H668   H     0.56034   0.62563   0.55598   0.00000  Uiso   1.00
H669   H     0.56201   0.54367   0.38352   0.00000  Uiso   1.00
H670   H     0.43799   0.45633   0.61648   0.00000  Uiso   1.00
H671   H     0.56190   0.54372   0.63260   0.00000  Uiso   1.00
H672   H     0.43810   0.45628   0.36740   0.00000  Uiso   1.00
N673   N     0.49999   0.49999   0.61907   0.00000  Uiso   1.00
N674   N     0.50001   0.50001   0.38093   0.00000  Uiso   1.00
O675   O     0.50000   0.43892   0.53821   0.00000  Uiso   1.00
O676   O     0.50000   0.56108   0.46179   0.00000  Uiso   1.00
O677   O     0.50000   0.43893   0.46176   0.00000  Uiso   1.00
O678   O     0.50000   0.56107   0.53824   0.00000  Uiso   1.00
O679   O     0.42392   0.50000   0.52928   0.00000  Uiso   1.00
O680   O     0.57608   0.50000   0.47072   0.00000  Uiso   1.00
O681   O     0.42392   0.50000   0.45284   0.00000  Uiso   1.00
O682   O     0.57608   0.50000   0.54716   0.00000  Uiso   1.00
Zn683  Zn    0.50000   0.49999   0.55104   0.00000  Uiso   1.00
Zn684  Zn    0.50000   0.50001   0.44896   0.00000  Uiso   1.00
C685   C     0.65952   0.45868   0.44982   0.00000  Uiso   1.00
O686   O     0.63387   0.42953   0.46143   0.00000  Uiso   1.00
O687   O     0.33806   0.46025   0.40517   0.00000  Uiso   1.00
H688   H     0.65601   0.43589   0.38563   0.00000  Uiso   1.00
C689   C     0.34048   0.54133   0.55018   0.00000  Uiso   1.00
O690   O     0.36616   0.57047   0.53858   0.00000  Uiso   1.00
O691   O     0.66191   0.53977   0.59482   0.00000  Uiso   1.00
H692   H     0.34396   0.56414   0.61436   0.00000  Uiso   1.00
C693   C     0.41977   0.62653   0.43511   0.00000  Uiso   1.00
O694   O     0.39974   0.59374   0.44472   0.00000  Uiso   1.00
O695   O     0.40157   0.64632   0.39372   0.00000  Uiso   1.00
H696   H     0.37249   0.63015   0.37458   0.00000  Uiso   1.00
C697   C     0.58023   0.37347   0.56489   0.00000  Uiso   1.00
O698   O     0.60026   0.40626   0.55529   0.00000  Uiso   1.00
O699   O     0.59843   0.35368   0.60628   0.00000  Uiso   1.00
H700   H     0.62751   0.36985   0.62542   0.00000  Uiso   1.00
C701   C     0.83525   0.42010   0.50011   0.00000  Uiso   1.00
C702   C     0.83141   0.57990   0.49989   0.00000  Uiso   1.00
C703   C     0.73388   0.49939   0.48827   0.00000  Uiso   1.00
C704   C     0.93279   0.50061   0.51173   0.00000  Uiso   1.00
C705   C     0.67980   0.49197   0.48365   0.00000  Uiso   1.00
C706   C     0.98687   0.50804   0.51635   0.00000  Uiso   1.00
C707   C     0.79981   0.35600   0.46775   0.00000  Uiso   1.00
C708   C     0.86685   0.64400   0.53225   0.00000  Uiso   1.00
C709   C     0.79537   0.64636   0.46775   0.00000  Uiso   1.00
C710   C     0.87130   0.35364   0.53225   0.00000  Uiso   1.00
C711   C     0.83000   0.62408   0.50018   0.00000  Uiso   1.00
C712   C     0.83666   0.37592   0.49982   0.00000  Uiso   1.00
C713   C     0.86779   0.52427   0.36179   0.00000  Uiso   1.00
C714   C     0.79888   0.47573   0.63821   0.00000  Uiso   1.00
C715   C     0.86775   0.52427   0.64717   0.00000  Uiso   1.00
C716   C     0.79891   0.47573   0.35283   0.00000  Uiso   1.00
H717   H     0.77299   0.37437   0.44402   0.00000  Uiso   1.00
H718   H     0.89368   0.62563   0.55598   0.00000  Uiso   1.00
H719   H     0.89535   0.54367   0.38352   0.00000  Uiso   1.00
H720   H     0.77132   0.45633   0.61648   0.00000  Uiso   1.00
H721   H     0.89524   0.54372   0.63260   0.00000  Uiso   1.00
H722   H     0.77143   0.45628   0.36740   0.00000  Uiso   1.00
N723   N     0.83332   0.49999   0.61907   0.00000  Uiso   1.00
N724   N     0.83335   0.50001   0.38093   0.00000  Uiso   1.00
O725   O     0.83333   0.43892   0.53821   0.00000  Uiso   1.00
O726   O     0.83334   0.56108   0.46179   0.00000  Uiso   1.00
O727   O     0.83333   0.43893   0.46176   0.00000  Uiso   1.00
O728   O     0.83334   0.56107   0.53824   0.00000  Uiso   1.00
O729   O     0.75725   0.50000   0.52928   0.00000  Uiso   1.00
O730   O     0.90942   0.50000   0.47072   0.00000  Uiso   1.00
O731   O     0.75725   0.50000   0.45284   0.00000  Uiso   1.00
O732   O     0.90942   0.50000   0.54716   0.00000  Uiso   1.00
Zn733  Zn    0.83333   0.49999   0.55104   0.00000  Uiso   1.00
Zn734  Zn    0.83333   0.50001   0.44896   0.00000  Uiso   1.00
C735   C     0.99286   0.45868   0.44982   0.00000  Uiso   1.00
O736   O     0.96720   0.42953   0.46143   0.00000  Uiso   1.00
O737   O     0.67139   0.46025   0.40517   0.00000  Uiso   1.00
H738   H     0.98934   0.43589   0.38563   0.00000  Uiso   1.00
C739   C     0.67381   0.54133   0.55018   0.00000  Uiso   1.00
O740   O     0.69949   0.57047   0.53858   0.00000  Uiso   1.00
O741   O     0.99524   0.53977   0.59482   0.00000  Uiso   1.00
H742   H     0.67729   0.56414   0.61436   0.00000  Uiso   1.00
C743   C     0.75311   0.62653   0.43511   0.00000  Uiso   1.00
O744   O     0.73308   0.59374   0.44472   0.00000  Uiso   1.00
O745   O     0.73490   0.64632   0.39372   0.00000  Uiso   1.00
H746   H     0.70582   0.63015   0.37458   0.00000  Uiso   1.00
C747   C     0.91356   0.37347   0.56489   0.00000  Uiso   1.00
O748   O     0.93359   0.40626   0.55529   0.00000  Uiso   1.00
O749   O     0.93176   0.35368   0.60628   0.00000  Uiso   1.00
H750   H     0.96084   0.36985   0.62542   0.00000  Uiso   1.00
C751   C     0.16859   0.75343   0.50011   0.00000  Uiso   1.00
C752   C     0.16474   0.91323   0.49989   0.00000  Uiso   1.00
C753   C     0.06721   0.83273   0.48827   0.00000  Uiso   1.00
C754   C     0.26612   0.83394   0.51173   0.00000  Uiso   1.00
C755   C     0.01313   0.82530   0.48365   0.00000  Uiso   1.00
C756   C     0.32020   0.84137   0.51635   0.00000  Uiso   1.00
C757   C     0.13315   0.68934   0.46775   0.00000  Uiso   1.00
C758   C     0.20019   0.97733   0.53225   0.00000  Uiso   1.00
C759   C     0.12870   0.97970   0.46775   0.00000  Uiso   1.00
C760   C     0.20463   0.68697   0.53225   0.00000  Uiso   1.00
C761   C     0.16334   0.95741   0.50018   0.00000  Uiso   1.00
C762   C     0.17000   0.70925   0.49982   0.00000  Uiso   1.00
C763   C     0.20112   0.85760   0.36179   0.00000  Uiso   1.00
C764   C     0.13221   0.80907   0.63821   0.00000  Uiso   1.00
C765   C     0.20109   0.85761   0.64717   0.00000  Uiso   1.00
C766   C     0.13225   0.80906   0.35283   0.00000  Uiso   1.00
H767   H     0.10632   0.70771   0.44402   0.00000  Uiso   1.00
H768   H     0.22701   0.95896   0.55598   0.00000  Uiso   1.00
H769   H     0.22868   0.87701   0.38352   0.00000  Uiso   1.00
H770   H     0.10465   0.78966   0.61648   0.00000  Uiso   1.00
H771   H     0.22857   0.87706   0.63260   0.00000  Uiso   1.00
H772   H     0.10476   0.78961   0.36740   0.00000  Uiso   1.00
N773   N     0.16665   0.83332   0.61907   0.00000  Uiso   1.00
N774   N     0.16668   0.83334   0.38093   0.00000  Uiso   1.00
O775   O     0.16666   0.77225   0.53821   0.00000  Uiso   1.00
O776   O     0.16667   0.89442   0.46179   0.00000  Uiso   1.00
O777   O     0.16666   0.77226   0.46176   0.00000  Uiso   1.00
O778   O     0.16667   0.89441   0.53824   0.00000  Uiso   1.00
O779   O     0.09058   0.83333   0.52928   0.00000  Uiso   1.00
O780   O     0.24275   0.83334   0.47072   0.00000  Uiso   1.00
O781   O     0.09058   0.83334   0.45284   0.00000  Uiso   1.00
O782   O     0.24275   0.83333   0.54716   0.00000  Uiso   1.00
Zn783  Zn    0.16667   0.83333   0.55104   0.00000  Uiso   1.00
Zn784  Zn    0.16667   0.83334   0.44896   0.00000  Uiso   1.00
C785   C     0.32619   0.79202   0.44982   0.00000  Uiso   1.00
O786   O     0.30054   0.76286   0.46143   0.00000  Uiso   1.00
O787   O     0.00472   0.79359   0.40517   0.00000  Uiso   1.00
H788   H     0.32267   0.76922   0.38563   0.00000  Uiso   1.00
C789   C     0.00714   0.87466   0.55018   0.00000  Uiso   1.00
O790   O     0.03283   0.90380   0.53858   0.00000  Uiso   1.00
O791   O     0.32857   0.87311   0.59482   0.00000  Uiso   1.00
H792   H     0.01063   0.89747   0.61436   0.00000  Uiso   1.00
C793   C     0.08644   0.95986   0.43511   0.00000  Uiso   1.00
O794   O     0.06641   0.92707   0.44472   0.00000  Uiso   1.00
O795   O     0.06824   0.97966   0.39372   0.00000  Uiso   1.00
H796   H     0.03916   0.96348   0.37458   0.00000  Uiso   1.00
C797   C     0.24689   0.70681   0.56489   0.00000  Uiso   1.00
O798   O     0.26692   0.73959   0.55529   0.00000  Uiso   1.00
O799   O     0.26510   0.68701   0.60628   0.00000  Uiso   1.00
H800   H     0.29417   0.70318   0.62542   0.00000  Uiso   1.00
C801   C     0.50192   0.75343   0.50011   0.00000  Uiso   1.00
C802   C     0.49808   0.91323   0.49989   0.00000  Uiso   1.00
C803   C     0.40054   0.83273   0.48827   0.00000  Uiso   1.00
C804   C     0.59945   0.83394   0.51173   0.00000  Uiso   1.00
C805   C     0.34646   0.82530   0.48365   0.00000  Uiso   1.00
C806   C     0.65354   0.84137   0.51635   0.00000  Uiso   1.00
C807   C     0.46648   0.68934   0.46775   0.00000  Uiso   1.00
C808   C     0.53352   0.97733   0.53225   0.00000  Uiso   1.00
C809   C     0.46204   0.97970   0.46775   0.00000  Uiso   1.00
C810   C     0.53796   0.68697   0.53225   0.00000  Uiso   1.00
C811   C     0.49667   0.95741   0.50018   0.00000  Uiso   1.00
C812   C     0.50333   0.70925   0.49982   0.00000  Uiso   1.00
C813   C     0.53445   0.85760   0.36179   0.00000  Uiso   1.00
C814   C     0.46555   0.80907   0.63821   0.00000  Uiso   1.00
C815   C     0.53442   0.85761   0.64717   0.00000  Uiso   1.00
C816   C     0.46558   0.80906   0.35283   0.00000  Uiso   1.00
H817   H     0.43966   0.70771   0.44402   0.00000  Uiso   1.00
H818   H     0.56034   0.95896   0.55598   0.00000  Uiso   1.00
H819   H     0.56201   0.87701   0.38352   0.00000  Uiso   1.00
H820   H     0.43799   0.78966   0.61648   0.00000  Uiso   1.00
H821   H     0.56190   0.87706   0.63260   0.00000  Uiso   1.00
H822   H     0.43810   0.78961   0.36740   0.00000  Uiso   1.00
N823   N     0.49999   0.83332   0.61907   0.00000  Uiso   1.00
N824   N     0.50001   0.83334   0.38093   0.00000  Uiso   1.00
O825   O     0.50000   0.77225   0.53821   0.00000  Uiso   1.00
O826   O     0.50000   0.89442   0.46179   0.00000  Uiso   1.00
O827   O     0.50000   0.77226   0.46176   0.00000  Uiso   1.00
O828   O     0.50000   0.89441   0.53824   0.00000  Uiso   1.00
O829   O     0.42392   0.83333   0.52928   0.00000  Uiso   1.00
O830   O     0.57608   0.83334   0.47072   0.00000  Uiso   1.00
O831   O     0.42392   0.83334   0.45284   0.00000  Uiso   1.00
O832   O     0.57608   0.83333   0.54716   0.00000  Uiso   1.00
Zn833  Zn    0.50000   0.83333   0.55104   0.00000  Uiso   1.00
Zn834  Zn    0.50000   0.83334   0.44896   0.00000  Uiso   1.00
C835   C     0.65952   0.79202   0.44982   0.00000  Uiso   1.00
O836   O     0.63387   0.76286   0.46143   0.00000  Uiso   1.00
O837   O     0.33806   0.79359   0.40517   0.00000  Uiso   1.00
H838   H     0.65601   0.76922   0.38563   0.00000  Uiso   1.00
C839   C     0.34048   0.87466   0.55018   0.00000  Uiso   1.00
O840   O     0.36616   0.90380   0.53858   0.00000  Uiso   1.00
O841   O     0.66191   0.87311   0.59482   0.00000  Uiso   1.00
H842   H     0.34396   0.89747   0.61436   0.00000  Uiso   1.00
C843   C     0.41977   0.95986   0.43511   0.00000  Uiso   1.00
O844   O     0.39974   0.92707   0.44472   0.00000  Uiso   1.00
O845   O     0.40157   0.97966   0.39372   0.00000  Uiso   1.00
H846   H     0.37249   0.96348   0.37458   0.00000  Uiso   1.00
C847   C     0.58023   0.70681   0.56489   0.00000  Uiso   1.00
O848   O     0.60026   0.73959   0.55529   0.00000  Uiso   1.00
O849   O     0.59843   0.68701   0.60628   0.00000  Uiso   1.00
H850   H     0.62751   0.70318   0.62542   0.00000  Uiso   1.00
C851   C     0.83525   0.75343   0.50011   0.00000  Uiso   1.00
C852   C     0.83141   0.91323   0.49989   0.00000  Uiso   1.00
C853   C     0.73388   0.83273   0.48827   0.00000  Uiso   1.00
C854   C     0.93279   0.83394   0.51173   0.00000  Uiso   1.00
C855   C     0.67980   0.82530   0.48365   0.00000  Uiso   1.00
C856   C     0.98687   0.84137   0.51635   0.00000  Uiso   1.00
C857   C     0.79981   0.68934   0.46775   0.00000  Uiso   1.00
C858   C     0.86685   0.97733   0.53225   0.00000  Uiso   1.00
C859   C     0.79537   0.97970   0.46775   0.00000  Uiso   1.00
C860   C     0.87130   0.68697   0.53225   0.00000  Uiso   1.00
C861   C     0.83000   0.95741   0.50018   0.00000  Uiso   1.00
C862   C     0.83666   0.70925   0.49982   0.00000  Uiso   1.00
C863   C     0.86779   0.85760   0.36179   0.00000  Uiso   1.00
C864   C     0.79888   0.80907   0.63821   0.00000  Uiso   1.00
C865   C     0.86775   0.85761   0.64717   0.00000  Uiso   1.00
C866   C     0.79891   0.80906   0.35283   0.00000  Uiso   1.00
H867   H     0.77299   0.70771   0.44402   0.00000  Uiso   1.00
H868   H     0.89368   0.95896   0.55598   0.00000  Uiso   1.00
H869   H     0.89535   0.87701   0.38352   0.00000  Uiso   1.00
H870   H     0.77132   0.78966   0.61648   0.00000  Uiso   1.00
H871   H     0.89524   0.87706   0.63260   0.00000  Uiso   1.00
H872   H     0.77143   0.78961   0.36740   0.00000  Uiso   1.00
N873   N     0.83332   0.83332   0.61907   0.00000  Uiso   1.00
N874   N     0.83335   0.83334   0.38093   0.00000  Uiso   1.00
O875   O     0.83333   0.77225   0.53821   0.00000  Uiso   1.00
O876   O     0.83334   0.89442   0.46179   0.00000  Uiso   1.00
O877   O     0.83333   0.77226   0.46176   0.00000  Uiso   1.00
O878   O     0.83334   0.89441   0.53824   0.00000  Uiso   1.00
O879   O     0.75725   0.83333   0.52928   0.00000  Uiso   1.00
O880   O     0.90942   0.83334   0.47072   0.00000  Uiso   1.00
O881   O     0.75725   0.83334   0.45284   0.00000  Uiso   1.00
O882   O     0.90942   0.83333   0.54716   0.00000  Uiso   1.00
Zn883  Zn    0.83333   0.83333   0.55104   0.00000  Uiso   1.00
Zn884  Zn    0.83333   0.83334   0.44896   0.00000  Uiso   1.00
C885   C     0.99286   0.79202   0.44982   0.00000  Uiso   1.00
O886   O     0.96720   0.76286   0.46143   0.00000  Uiso   1.00
O887   O     0.67139   0.79359   0.40517   0.00000  Uiso   1.00
H888   H     0.98934   0.76922   0.38563   0.00000  Uiso   1.00
C889   C     0.67381   0.87466   0.55018   0.00000  Uiso   1.00
O890   O     0.69949   0.90380   0.53858   0.00000  Uiso   1.00
O891   O     0.99524   0.87311   0.59482   0.00000  Uiso   1.00
H892   H     0.67729   0.89747   0.61436   0.00000  Uiso   1.00
C893   C     0.75311   0.95986   0.43511   0.00000  Uiso   1.00
O894   O     0.73308   0.92707   0.44472   0.00000  Uiso   1.00
O895   O     0.73490   0.97966   0.39372   0.00000  Uiso   1.00
H896   H     0.70582   0.96348   0.37458   0.00000  Uiso   1.00
C897   C     0.91356   0.70681   0.56489   0.00000  Uiso   1.00
O898   O     0.93359   0.73959   0.55529   0.00000  Uiso   1.00
O899   O     0.93176   0.68701   0.60628   0.00000  Uiso   1.00
H900   H     0.96084   0.70318   0.62542   0.00000  Uiso   1.00
C901   C     0.16859   0.08677   0.83344   0.00000  Uiso   1.00
C902   C     0.16474   0.24657   0.83323   0.00000  Uiso   1.00
C903   C     0.06721   0.16606   0.82160   0.00000  Uiso   1.00
C904   C     0.26612   0.16727   0.84506   0.00000  Uiso   1.00
C905   C     0.01313   0.15863   0.81698   0.00000  Uiso   1.00
C906   C     0.32020   0.17471   0.84969   0.00000  Uiso   1.00
C907   C     0.13315   0.02267   0.80109   0.00000  Uiso   1.00
C908   C     0.20019   0.31066   0.86558   0.00000  Uiso   1.00
C909   C     0.12870   0.31303   0.80109   0.00000  Uiso   1.00
C910   C     0.20463   0.02030   0.86558   0.00000  Uiso   1.00
C911   C     0.16334   0.29075   0.83352   0.00000  Uiso   1.00
C912   C     0.17000   0.04259   0.83315   0.00000  Uiso   1.00
C913   C     0.20112   0.19093   0.69512   0.00000  Uiso   1.00
C914   C     0.13221   0.14240   0.97155   0.00000  Uiso   1.00
C915   C     0.20109   0.19094   0.98051   0.00000  Uiso   1.00
C916   C     0.13225   0.14239   0.68616   0.00000  Uiso   1.00
H917   H     0.10632   0.04104   0.77735   0.00000  Uiso   1.00
H918   H     0.22701   0.29229   0.88932   0.00000  Uiso   1.00
H919   H     0.22868   0.21034   0.71685   0.00000  Uiso   1.00
H920   H     0.10465   0.12299   0.94982   0.00000  Uiso   1.00
H921   H     0.22857   0.21039   0.96593   0.00000  Uiso   1.00
H922   H     0.10476   0.12294   0.70073   0.00000  Uiso   1.00
N923   N     0.16665   0.16666   0.95240   0.00000  Uiso   1.00
N924   N     0.16668   0.16668   0.71427   0.00000  Uiso   1.00
O925   O     0.16666   0.10558   0.87154   0.00000  Uiso   1.00
O926   O     0.16667   0.22775   0.79513   0.00000  Uiso   1.00
O927   O     0.16666   0.10559   0.79510   0.00000  Uiso   1.00
O928   O     0.16667   0.22774   0.87157   0.00000  Uiso   1.00
O929   O     0.09058   0.16666   0.86261   0.00000  Uiso   1.00
O930   O     0.24275   0.16667   0.80405   0.00000  Uiso   1.00
O931   O     0.09058   0.16667   0.78617   0.00000  Uiso   1.00
O932   O     0.24275   0.16666   0.88050   0.00000  Uiso   1.00
Zn933  Zn    0.16667   0.16666   0.88437   0.00000  Uiso   1.00
Zn934  Zn    0.16667   0.16667   0.78229   0.00000  Uiso   1.00
C935   C     0.32619   0.12535   0.78315   0.00000  Uiso   1.00
O936   O     0.30054   0.09620   0.79476   0.00000  Uiso   1.00
O937   O     0.00472   0.12692   0.73851   0.00000  Uiso   1.00
H938   H     0.32267   0.10255   0.71897   0.00000  Uiso   1.00
C939   C     0.00714   0.20799   0.88351   0.00000  Uiso   1.00
O940   O     0.03283   0.23713   0.87192   0.00000  Uiso   1.00
O941   O     0.32857   0.20644   0.92815   0.00000  Uiso   1.00
H942   H     0.01063   0.23081   0.94769   0.00000  Uiso   1.00
C943   C     0.08644   0.29319   0.76844   0.00000  Uiso   1.00
O944   O     0.06641   0.26041   0.77805   0.00000  Uiso   1.00
O945   O     0.06824   0.31299   0.72705   0.00000  Uiso   1.00
H946   H     0.03916   0.29682   0.70791   0.00000  Uiso   1.00
C947   C     0.24689   0.04014   0.89823   0.00000  Uiso   1.00
O948   O     0.26692   0.07293   0.88862   0.00000  Uiso   1.00
O949   O     0.26510   0.02034   0.93961   0.00000  Uiso   1.00
H950   H     0.29417   0.03652   0.95876   0.00000  Uiso   1.00
C951   C     0.50192   0.08677   0.83344   0.00000  Uiso   1.00
C952   C     0.49808   0.24657   0.83323   0.00000  Uiso   1.00
C953   C     0.40054   0.16606   0.82160   0.00000  Uiso   1.00
C954   C     0.59945   0.16727   0.84506   0.00000  Uiso   1.00
C955   C     0.34646   0.15863   0.81698   0.00000  Uiso   1.00
C956   C     0.65354   0.17471   0.84969   0.00000  Uiso   1.00
C957   C     0.46648   0.02267   0.80109   0.00000  Uiso   1.00
C958   C     0.53352   0.31066   0.86558   0.00000  Uiso   1.00
C959   C     0.46204   0.31303   0.80109   0.00000  Uiso   1.00
C960   C     0.53796   0.02030   0.86558   0.00000  Uiso   1.00
C961   C     0.49667   0.29075   0.83352   0.00000  Uiso   1.00
C962   C     0.50333   0.04259   0.83315   0.00000  Uiso   1.00
C963   C     0.53445   0.19093   0.69512   0.00000  Uiso   1.00
C964   C     0.46555   0.14240   0.97155   0.00000  Uiso   1.00
C965   C     0.53442   0.19094   0.98051   0.00000  Uiso   1.00
C966   C     0.46558   0.14239   0.68616   0.00000  Uiso   1.00
H967   H     0.43966   0.04104   0.77735   0.00000  Uiso   1.00
H968   H     0.56034   0.29229   0.88932   0.00000  Uiso   1.00
H969   H     0.56201   0.21034   0.71685   0.00000  Uiso   1.00
H970   H     0.43799   0.12299   0.94982   0.00000  Uiso   1.00
H971   H     0.56190   0.21039   0.96593   0.00000  Uiso   1.00
H972   H     0.43810   0.12294   0.70073   0.00000  Uiso   1.00
N973   N     0.49999   0.16666   0.95240   0.00000  Uiso   1.00
N974   N     0.50001   0.16668   0.71427   0.00000  Uiso   1.00
O975   O     0.50000   0.10558   0.87154   0.00000  Uiso   1.00
O976   O     0.50000   0.22775   0.79513   0.00000  Uiso   1.00
O977   O     0.50000   0.10559   0.79510   0.00000  Uiso   1.00
O978   O     0.50000   0.22774   0.87157   0.00000  Uiso   1.00
O979   O     0.42392   0.16666   0.86261   0.00000  Uiso   1.00
O980   O     0.57608   0.16667   0.80405   0.00000  Uiso   1.00
O981   O     0.42392   0.16667   0.78617   0.00000  Uiso   1.00
O982   O     0.57608   0.16666   0.88050   0.00000  Uiso   1.00
Zn983  Zn    0.50000   0.16666   0.88437   0.00000  Uiso   1.00
Zn984  Zn    0.50000   0.16667   0.78229   0.00000  Uiso   1.00
C985   C     0.65952   0.12535   0.78315   0.00000  Uiso   1.00
O986   O     0.63387   0.09620   0.79476   0.00000  Uiso   1.00
O987   O     0.33806   0.12692   0.73851   0.00000  Uiso   1.00
H988   H     0.65601   0.10255   0.71897   0.00000  Uiso   1.00
C989   C     0.34048   0.20799   0.88351   0.00000  Uiso   1.00
O990   O     0.36616   0.23713   0.87192   0.00000  Uiso   1.00
O991   O     0.66191   0.20644   0.92815   0.00000  Uiso   1.00
H992   H     0.34396   0.23081   0.94769   0.00000  Uiso   1.00
C993   C     0.41977   0.29319   0.76844   0.00000  Uiso   1.00
O994   O     0.39974   0.26041   0.77805   0.00000  Uiso   1.00
O995   O     0.40157   0.31299   0.72705   0.00000  Uiso   1.00
H996   H     0.37249   0.29682   0.70791   0.00000  Uiso   1.00
C997   C     0.58023   0.04014   0.89823   0.00000  Uiso   1.00
O998   O     0.60026   0.07293   0.88862   0.00000  Uiso   1.00
O999   O     0.59843   0.02034   0.93961   0.00000  Uiso   1.00
H1000  H     0.62751   0.03652   0.95876   0.00000  Uiso   1.00
C1001  C     0.83525   0.08677   0.83344   0.00000  Uiso   1.00
C1002  C     0.83141   0.24657   0.83323   0.00000  Uiso   1.00
C1003  C     0.73388   0.16606   0.82160   0.00000  Uiso   1.00
C1004  C     0.93279   0.16727   0.84506   0.00000  Uiso   1.00
C1005  C     0.67980   0.15863   0.81698   0.00000  Uiso   1.00
C1006  C     0.98687   0.17471   0.84969   0.00000  Uiso   1.00
C1007  C     0.79981   0.02267   0.80109   0.00000  Uiso   1.00
C1008  C     0.86685   0.31066   0.86558   0.00000  Uiso   1.00
C1009  C     0.79537   0.31303   0.80109   0.00000  Uiso   1.00
C1010  C     0.87130   0.02030   0.86558   0.00000  Uiso   1.00
C1011  C     0.83000   0.29075   0.83352   0.00000  Uiso   1.00
C1012  C     0.83666   0.04259   0.83315   0.00000  Uiso   1.00
C1013  C     0.86779   0.19093   0.69512   0.00000  Uiso   1.00
C1014  C     0.79888   0.14240   0.97155   0.00000  Uiso   1.00
C1015  C     0.86775   0.19094   0.98051   0.00000  Uiso   1.00
C1016  C     0.79891   0.14239   0.68616   0.00000  Uiso   1.00
H1017  H     0.77299   0.04104   0.77735   0.00000  Uiso   1.00
H1018  H     0.89368   0.29229   0.88932   0.00000  Uiso   1.00
H1019  H     0.89535   0.21034   0.71685   0.00000  Uiso   1.00
H1020  H     0.77132   0.12299   0.94982   0.00000  Uiso   1.00
H1021  H     0.89524   0.21039   0.96593   0.00000  Uiso   1.00
H1022  H     0.77143   0.12294   0.70073   0.00000  Uiso   1.00
N1023  N     0.83332   0.16666   0.95240   0.00000  Uiso   1.00
N1024  N     0.83335   0.16668   0.71427   0.00000  Uiso   1.00
O1025  O     0.83333   0.10558   0.87154   0.00000  Uiso   1.00
O1026  O     0.83334   0.22775   0.79513   0.00000  Uiso   1.00
O1027  O     0.83333   0.10559   0.79510   0.00000  Uiso   1.00
O1028  O     0.83334   0.22774   0.87157   0.00000  Uiso   1.00
O1029  O     0.75725   0.16666   0.86261   0.00000  Uiso   1.00
O1030  O     0.90942   0.16667   0.80405   0.00000  Uiso   1.00
O1031  O     0.75725   0.16667   0.78617   0.00000  Uiso   1.00
O1032  O     0.90942   0.16666   0.88050   0.00000  Uiso   1.00
Zn1033 Zn    0.83333   0.16666   0.88437   0.00000  Uiso   1.00
Zn1034 Zn    0.83333   0.16667   0.78229   0.00000  Uiso   1.00
C1035  C     0.99286   0.12535   0.78315   0.00000  Uiso   1.00
O1036  O     0.96720   0.09620   0.79476   0.00000  Uiso   1.00
O1037  O     0.67139   0.12692   0.73851   0.00000  Uiso   1.00
H1038  H     0.98934   0.10255   0.71897   0.00000  Uiso   1.00
C1039  C     0.67381   0.20799   0.88351   0.00000  Uiso   1.00
O1040  O     0.69949   0.23713   0.87192   0.00000  Uiso   1.00
O1041  O     0.99524   0.20644   0.92815   0.00000  Uiso   1.00
H1042  H     0.67729   0.23081   0.94769   0.00000  Uiso   1.00
C1043  C     0.75311   0.29319   0.76844   0.00000  Uiso   1.00
O1044  O     0.73308   0.26041   0.77805   0.00000  Uiso   1.00
O1045  O     0.73490   0.31299   0.72705   0.00000  Uiso   1.00
H1046  H     0.70582   0.29682   0.70791   0.00000  Uiso   1.00
C1047  C     0.91356   0.04014   0.89823   0.00000  Uiso   1.00
O1048  O     0.93359   0.07293   0.88862   0.00000  Uiso   1.00
O1049  O     0.93176   0.02034   0.93961   0.00000  Uiso   1.00
H1050  H     0.96084   0.03652   0.95876   0.00000  Uiso   1.00
C1051  C     0.16859   0.42010   0.83344   0.00000  Uiso   1.00
C1052  C     0.16474   0.57990   0.83323   0.00000  Uiso   1.00
C1053  C     0.06721   0.49939   0.82160   0.00000  Uiso   1.00
C1054  C     0.26612   0.50061   0.84506   0.00000  Uiso   1.00
C1055  C     0.01313   0.49197   0.81698   0.00000  Uiso   1.00
C1056  C     0.32020   0.50804   0.84969   0.00000  Uiso   1.00
C1057  C     0.13315   0.35600   0.80109   0.00000  Uiso   1.00
C1058  C     0.20019   0.64400   0.86558   0.00000  Uiso   1.00
C1059  C     0.12870   0.64636   0.80109   0.00000  Uiso   1.00
C1060  C     0.20463   0.35364   0.86558   0.00000  Uiso   1.00
C1061  C     0.16334   0.62408   0.83352   0.00000  Uiso   1.00
C1062  C     0.17000   0.37592   0.83315   0.00000  Uiso   1.00
C1063  C     0.20112   0.52427   0.69512   0.00000  Uiso   1.00
C1064  C     0.13221   0.47573   0.97155   0.00000  Uiso   1.00
C1065  C     0.20109   0.52427   0.98051   0.00000  Uiso   1.00
C1066  C     0.13225   0.47573   0.68616   0.00000  Uiso   1.00
H1067  H     0.10632   0.37437   0.77735   0.00000  Uiso   1.00
H1068  H     0.22701   0.62563   0.88932   0.00000  Uiso   1.00
H1069  H     0.22868   0.54367   0.71685   0.00000  Uiso   1.00
H1070  H     0.10465   0.45633   0.94982   0.00000  Uiso   1.00
H1071  H     0.22857   0.54372   0.96593   0.00000  Uiso   1.00
H1072  H     0.10476   0.45628   0.70073   0.00000  Uiso   1.00
N1073  N     0.16665   0.49999   0.95240   0.00000  Uiso   1.00
N1074  N     0.16668   0.50001   0.71427   0.00000  Uiso   1.00
O1075  O     0.16666   0.43892   0.87154   0.00000  Uiso   1.00
O1076  O     0.16667   0.56108   0.79513   0.00000  Uiso   1.00
O1077  O     0.16666   0.43893   0.79510   0.00000  Uiso   1.00
O1078  O     0.16667   0.56107   0.87157   0.00000  Uiso   1.00
O1079  O     0.09058   0.50000   0.86261   0.00000  Uiso   1.00
O1080  O     0.24275   0.50000   0.80405   0.00000  Uiso   1.00
O1081  O     0.09058   0.50000   0.78617   0.00000  Uiso   1.00
O1082  O     0.24275   0.50000   0.88050   0.00000  Uiso   1.00
Zn1083 Zn    0.16667   0.49999   0.88437   0.00000  Uiso   1.00
Zn1084 Zn    0.16667   0.50001   0.78229   0.00000  Uiso   1.00
C1085  C     0.32619   0.45868   0.78315   0.00000  Uiso   1.00
O1086  O     0.30054   0.42953   0.79476   0.00000  Uiso   1.00
O1087  O     0.00472   0.46025   0.73851   0.00000  Uiso   1.00
H1088  H     0.32267   0.43589   0.71897   0.00000  Uiso   1.00
C1089  C     0.00714   0.54133   0.88351   0.00000  Uiso   1.00
O1090  O     0.03283   0.57047   0.87192   0.00000  Uiso   1.00
O1091  O     0.32857   0.53977   0.92815   0.00000  Uiso   1.00
H1092  H     0.01063   0.56414   0.94769   0.00000  Uiso   1.00
C1093  C     0.08644   0.62653   0.76844   0.00000  Uiso   1.00
O1094  O     0.06641   0.59374   0.77805   0.00000  Uiso   1.00
O1095  O     0.06824   0.64632   0.72705   0.00000  Uiso   1.00
H1096  H     0.03916   0.63015   0.70791   0.00000  Uiso   1.00
C1097  C     0.24689   0.37347   0.89823   0.00000  Uiso   1.00
O1098  O     0.26692   0.40626   0.88862   0.00000  Uiso   1.00
O1099  O     0.26510   0.35368   0.93961   0.00000  Uiso   1.00
H1100  H     0.29417   0.36985   0.95876   0.00000  Uiso   1.00
C1101  C     0.50192   0.42010   0.83344   0.00000  Uiso   1.00
C1102  C     0.49808   0.57990   0.83323   0.00000  Uiso   1.00
C1103  C     0.40054   0.49939   0.82160   0.00000  Uiso   1.00
C1104  C     0.59945   0.50061   0.84506   0.00000  Uiso   1.00
C1105  C     0.34646   0.49197   0.81698   0.00000  Uiso   1.00
C1106  C     0.65354   0.50804   0.84969   0.00000  Uiso   1.00
C1107  C     0.46648   0.35600   0.80109   0.00000  Uiso   1.00
C1108  C     0.53352   0.64400   0.86558   0.00000  Uiso   1.00
C1109  C     0.46204   0.64636   0.80109   0.00000  Uiso   1.00
C1110  C     0.53796   0.35364   0.86558   0.00000  Uiso   1.00
C1111  C     0.49667   0.62408   0.83352   0.00000  Uiso   1.00
C1112  C     0.50333   0.37592   0.83315   0.00000  Uiso   1.00
C1113  C     0.53445   0.52427   0.69512   0.00000  Uiso   1.00
C1114  C     0.46555   0.47573   0.97155   0.00000  Uiso   1.00
C1115  C     0.53442   0.52427   0.98051   0.00000  Uiso   1.00
C1116  C     0.46558   0.47573   0.68616   0.00000  Uiso   1.00
H1117  H     0.43966   0.37437   0.77735   0.00000  Uiso   1.00
H1118  H     0.56034   0.62563   0.88932   0.00000  Uiso   1.00
H1119  H     0.56201   0.54367   0.71685   0.00000  Uiso   1.00
H1120  H     0.43799   0.45633   0.94982   0.00000  Uiso   1.00
H1121  H     0.56190   0.54372   0.96593   0.00000  Uiso   1.00
H1122  H     0.43810   0.45628   0.70073   0.00000  Uiso   1.00
N1123  N     0.49999   0.49999   0.95240   0.00000  Uiso   1.00
N1124  N     0.50001   0.50001   0.71427   0.00000  Uiso   1.00
O1125  O     0.50000   0.43892   0.87154   0.00000  Uiso   1.00
O1126  O     0.50000   0.56108   0.79513   0.00000  Uiso   1.00
O1127  O     0.50000   0.43893   0.79510   0.00000  Uiso   1.00
O1128  O     0.50000   0.56107   0.87157   0.00000  Uiso   1.00
O1129  O     0.42392   0.50000   0.86261   0.00000  Uiso   1.00
O1130  O     0.57608   0.50000   0.80405   0.00000  Uiso   1.00
O1131  O     0.42392   0.50000   0.78617   0.00000  Uiso   1.00
O1132  O     0.57608   0.50000   0.88050   0.00000  Uiso   1.00
Zn1133 Zn    0.50000   0.49999   0.88437   0.00000  Uiso   1.00
Zn1134 Zn    0.50000   0.50001   0.78229   0.00000  Uiso   1.00
C1135  C     0.65952   0.45868   0.78315   0.00000  Uiso   1.00
O1136  O     0.63387   0.42953   0.79476   0.00000  Uiso   1.00
O1137  O     0.33806   0.46025   0.73851   0.00000  Uiso   1.00
H1138  H     0.65601   0.43589   0.71897   0.00000  Uiso   1.00
C1139  C     0.34048   0.54133   0.88351   0.00000  Uiso   1.00
O1140  O     0.36616   0.57047   0.87192   0.00000  Uiso   1.00
O1141  O     0.66191   0.53977   0.92815   0.00000  Uiso   1.00
H1142  H     0.34396   0.56414   0.94769   0.00000  Uiso   1.00
C1143  C     0.41977   0.62653   0.76844   0.00000  Uiso   1.00
O1144  O     0.39974   0.59374   0.77805   0.00000  Uiso   1.00
O1145  O     0.40157   0.64632   0.72705   0.00000  Uiso   1.00
H1146  H     0.37249   0.63015   0.70791   0.00000  Uiso   1.00
C1147  C     0.58023   0.37347   0.89823   0.00000  Uiso   1.00
O1148  O     0.60026   0.40626   0.88862   0.00000  Uiso   1.00
O1149  O     0.59843   0.35368   0.93961   0.00000  Uiso   1.00
H1150  H     0.62751   0.36985   0.95876   0.00000  Uiso   1.00
C1151  C     0.83525   0.42010   0.83344   0.00000  Uiso   1.00
C1152  C     0.83141   0.57990   0.83323   0.00000  Uiso   1.00
C1153  C     0.73388   0.49939   0.82160   0.00000  Uiso   1.00
C1154  C     0.93279   0.50061   0.84506   0.00000  Uiso   1.00
C1155  C     0.67980   0.49197   0.81698   0.00000  Uiso   1.00
C1156  C     0.98687   0.50804   0.84969   0.00000  Uiso   1.00
C1157  C     0.79981   0.35600   0.80109   0.00000  Uiso   1.00
C1158  C     0.86685   0.64400   0.86558   0.00000  Uiso   1.00
C1159  C     0.79537   0.64636   0.80109   0.00000  Uiso   1.00
C1160  C     0.87130   0.35364   0.86558   0.00000  Uiso   1.00
C1161  C     0.83000   0.62408   0.83352   0.00000  Uiso   1.00
C1162  C     0.83666   0.37592   0.83315   0.00000  Uiso   1.00
C1163  C     0.86779   0.52427   0.69512   0.00000  Uiso   1.00
C1164  C     0.79888   0.47573   0.97155   0.00000  Uiso   1.00
C1165  C     0.86775   0.52427   0.98051   0.00000  Uiso   1.00
C1166  C     0.79891   0.47573   0.68616   0.00000  Uiso   1.00
H1167  H     0.77299   0.37437   0.77735   0.00000  Uiso   1.00
H1168  H     0.89368   0.62563   0.88932   0.00000  Uiso   1.00
H1169  H     0.89535   0.54367   0.71685   0.00000  Uiso   1.00
H1170  H     0.77132   0.45633   0.94982   0.00000  Uiso   1.00
H1171  H     0.89524   0.54372   0.96593   0.00000  Uiso   1.00
H1172  H     0.77143   0.45628   0.70073   0.00000  Uiso   1.00
N1173  N     0.83332   0.49999   0.95240   0.00000  Uiso   1.00
N1174  N     0.83335   0.50001   0.71427   0.00000  Uiso   1.00
O1175  O     0.83333   0.43892   0.87154   0.00000  Uiso   1.00
O1176  O     0.83334   0.56108   0.79513   0.00000  Uiso   1.00
O1177  O     0.83333   0.43893   0.79510   0.00000  Uiso   1.00
O1178  O     0.83334   0.56107   0.87157   0.00000  Uiso   1.00
O1179  O     0.75725   0.50000   0.86261   0.00000  Uiso   1.00
O1180  O     0.90942   0.50000   0.80405   0.00000  Uiso   1.00
O1181  O     0.75725   0.50000   0.78617   0.00000  Uiso   1.00
O1182  O     0.90942   0.50000   0.88050   0.00000  Uiso   1.00
Zn1183 Zn    0.83333   0.49999   0.88437   0.00000  Uiso   1.00
Zn1184 Zn    0.83333   0.50001   0.78229   0.00000  Uiso   1.00
C1185  C     0.99286   0.45868   0.78315   0.00000  Uiso   1.00
O1186  O     0.96720   0.42953   0.79476   0.00000  Uiso   1.00
O1187  O     0.67139   0.46025   0.73851   0.00000  Uiso   1.00
H1188  H     0.98934   0.43589   0.71897   0.00000  Uiso   1.00
C1189  C     0.67381   0.54133   0.88351   0.00000  Uiso   1.00
O1190  O     0.69949   0.57047   0.87192   0.00000  Uiso   1.00
O1191  O     0.99524   0.53977   0.92815   0.00000  Uiso   1.00
H1192  H     0.67729   0.56414   0.94769   0.00000  Uiso   1.00
C1193  C     0.75311   0.62653   0.76844   0.00000  Uiso   1.00
O1194  O     0.73308   0.59374   0.77805   0.00000  Uiso   1.00
O1195  O     0.73490   0.64632   0.72705   0.00000  Uiso   1.00
H1196  H     0.70582   0.63015   0.70791   0.00000  Uiso   1.00
C1197  C     0.91356   0.37347   0.89823   0.00000  Uiso   1.00
O1198  O     0.93359   0.40626   0.88862   0.00000  Uiso   1.00
O1199  O     0.93176   0.35368   0.93961   0.00000  Uiso   1.00
H1200  H     0.96084   0.36985   0.95876   0.00000  Uiso   1.00
C1201  C     0.16859   0.75343   0.83344   0.00000  Uiso   1.00
C1202  C     0.16474   0.91323   0.83323   0.00000  Uiso   1.00
C1203  C     0.06721   0.83273   0.82160   0.00000  Uiso   1.00
C1204  C     0.26612   0.83394   0.84506   0.00000  Uiso   1.00
C1205  C     0.01313   0.82530   0.81698   0.00000  Uiso   1.00
C1206  C     0.32020   0.84137   0.84969   0.00000  Uiso   1.00
C1207  C     0.13315   0.68934   0.80109   0.00000  Uiso   1.00
C1208  C     0.20019   0.97733   0.86558   0.00000  Uiso   1.00
C1209  C     0.12870   0.97970   0.80109   0.00000  Uiso   1.00
C1210  C     0.20463   0.68697   0.86558   0.00000  Uiso   1.00
C1211  C     0.16334   0.95741   0.83352   0.00000  Uiso   1.00
C1212  C     0.17000   0.70925   0.83315   0.00000  Uiso   1.00
C1213  C     0.20112   0.85760   0.69512   0.00000  Uiso   1.00
C1214  C     0.13221   0.80907   0.97155   0.00000  Uiso   1.00
C1215  C     0.20109   0.85761   0.98051   0.00000  Uiso   1.00
C1216  C     0.13225   0.80906   0.68616   0.00000  Uiso   1.00
H1217  H     0.10632   0.70771   0.77735   0.00000  Uiso   1.00
H1218  H     0.22701   0.95896   0.88932   0.00000  Uiso   1.00
H1219  H     0.22868   0.87701   0.71685   0.00000  Uiso   1.00
H1220  H     0.10465   0.78966   0.94982   0.00000  Uiso   1.00
H1221  H     0.22857   0.87706   0.96593   0.00000  Uiso   1.00
H1222  H     0.10476   0.78961   0.70073   0.00000  Uiso   1.00
N1223  N     0.16665   0.83332   0.95240   0.00000  Uiso   1.00
N1224  N     0.16668   0.83334   0.71427   0.00000  Uiso   1.00
O1225  O     0.16666   0.77225   0.87154   0.00000  Uiso   1.00
O1226  O     0.16667   0.89442   0.79513   0.00000  Uiso   1.00
O1227  O     0.16666   0.77226   0.79510   0.00000  Uiso   1.00
O1228  O     0.16667   0.89441   0.87157   0.00000  Uiso   1.00
O1229  O     0.09058   0.83333   0.86261   0.00000  Uiso   1.00
O1230  O     0.24275   0.83334   0.80405   0.00000  Uiso   1.00
O1231  O     0.09058   0.83334   0.78617   0.00000  Uiso   1.00
O1232  O     0.24275   0.83333   0.88050   0.00000  Uiso   1.00
Zn1233 Zn    0.16667   0.83333   0.88437   0.00000  Uiso   1.00
Zn1234 Zn    0.16667   0.83334   0.78229   0.00000  Uiso   1.00
C1235  C     0.32619   0.79202   0.78315   0.00000  Uiso   1.00
O1236  O     0.30054   0.76286   0.79476   0.00000  Uiso   1.00
O1237  O     0.00472   0.79359   0.73851   0.00000  Uiso   1.00
H1238  H     0.32267   0.76922   0.71897   0.00000  Uiso   1.00
C1239  C     0.00714   0.87466   0.88351   0.00000  Uiso   1.00
O1240  O     0.03283   0.90380   0.87192   0.00000  Uiso   1.00
O1241  O     0.32857   0.87311   0.92815   0.00000  Uiso   1.00
H1242  H     0.01063   0.89747   0.94769   0.00000  Uiso   1.00
C1243  C     0.08644   0.95986   0.76844   0.00000  Uiso   1.00
O1244  O     0.06641   0.92707   0.77805   0.00000  Uiso   1.00
O1245  O     0.06824   0.97966   0.72705   0.00000  Uiso   1.00
H1246  H     0.03916   0.96348   0.70791   0.00000  Uiso   1.00
C1247  C     0.24689   0.70681   0.89823   0.00000  Uiso   1.00
O1248  O     0.26692   0.73959   0.88862   0.00000  Uiso   1.00
O1249  O     0.26510   0.68701   0.93961   0.00000  Uiso   1.00
H1250  H     0.29417   0.70318   0.95876   0.00000  Uiso   1.00
C1251  C     0.50192   0.75343   0.83344   0.00000  Uiso   1.00
C1252  C     0.49808   0.91323   0.83323   0.00000  Uiso   1.00
C1253  C     0.40054   0.83273   0.82160   0.00000  Uiso   1.00
C1254  C     0.59945   0.83394   0.84506   0.00000  Uiso   1.00
C1255  C     0.34646   0.82530   0.81698   0.00000  Uiso   1.00
C1256  C     0.65354   0.84137   0.84969   0.00000  Uiso   1.00
C1257  C     0.46648   0.68934   0.80109   0.00000  Uiso   1.00
C1258  C     0.53352   0.97733   0.86558   0.00000  Uiso   1.00
C1259  C     0.46204   0.97970   0.80109   0.00000  Uiso   1.00
C1260  C     0.53796   0.68697   0.86558   0.00000  Uiso   1.00
C1261  C     0.49667   0.95741   0.83352   0.00000  Uiso   1.00
C1262  C     0.50333   0.70925   0.83315   0.00000  Uiso   1.00
C1263  C     0.53445   0.85760   0.69512   0.00000  Uiso   1.00
C1264  C     0.46555   0.80907   0.97155   0.00000  Uiso   1.00
C1265  C     0.53442   0.85761   0.98051   0.00000  Uiso   1.00
C1266  C     0.46558   0.80906   0.68616   0.00000  Uiso   1.00
H1267  H     0.43966   0.70771   0.77735   0.00000  Uiso   1.00
H1268  H     0.56034   0.95896   0.88932   0.00000  Uiso   1.00
H1269  H     0.56201   0.87701   0.71685   0.00000  Uiso   1.00
H1270  H     0.43799   0.78966   0.94982   0.00000  Uiso   1.00
H1271  H     0.56190   0.87706   0.96593   0.00000  Uiso   1.00
H1272  H     0.43810   0.78961   0.70073   0.00000  Uiso   1.00
N1273  N     0.49999   0.83332   0.95240   0.00000  Uiso   1.00
N1274  N     0.50001   0.83334   0.71427   0.00000  Uiso   1.00
O1275  O     0.50000   0.77225   0.87154   0.00000  Uiso   1.00
O1276  O     0.50000   0.89442   0.79513   0.00000  Uiso   1.00
O1277  O     0.50000   0.77226   0.79510   0.00000  Uiso   1.00
O1278  O     0.50000   0.89441   0.87157   0.00000  Uiso   1.00
O1279  O     0.42392   0.83333   0.86261   0.00000  Uiso   1.00
O1280  O     0.57608   0.83334   0.80405   0.00000  Uiso   1.00
O1281  O     0.42392   0.83334   0.78617   0.00000  Uiso   1.00
O1282  O     0.57608   0.83333   0.88050   0.00000  Uiso   1.00
Zn1283 Zn    0.50000   0.83333   0.88437   0.00000  Uiso   1.00
Zn1284 Zn    0.50000   0.83334   0.78229   0.00000  Uiso   1.00
C1285  C     0.65952   0.79202   0.78315   0.00000  Uiso   1.00
O1286  O     0.63387   0.76286   0.79476   0.00000  Uiso   1.00
O1287  O     0.33806   0.79359   0.73851   0.00000  Uiso   1.00
H1288  H     0.65601   0.76922   0.71897   0.00000  Uiso   1.00
C1289  C     0.34048   0.87466   0.88351   0.00000  Uiso   1.00
O1290  O     0.36616   0.90380   0.87192   0.00000  Uiso   1.00
O1291  O     0.66191   0.87311   0.92815   0.00000  Uiso   1.00
H1292  H     0.34396   0.89747   0.94769   0.00000  Uiso   1.00
C1293  C     0.41977   0.95986   0.76844   0.00000  Uiso   1.00
O1294  O     0.39974   0.92707   0.77805   0.00000  Uiso   1.00
O1295  O     0.40157   0.97966   0.72705   0.00000  Uiso   1.00
H1296  H     0.37249   0.96348   0.70791   0.00000  Uiso   1.00
C1297  C     0.58023   0.70681   0.89823   0.00000  Uiso   1.00
O1298  O     0.60026   0.73959   0.88862   0.00000  Uiso   1.00
O1299  O     0.59843   0.68701   0.93961   0.00000  Uiso   1.00
H1300  H     0.62751   0.70318   0.95876   0.00000  Uiso   1.00
C1301  C     0.83525   0.75343   0.83344   0.00000  Uiso   1.00
C1302  C     0.83141   0.91323   0.83323   0.00000  Uiso   1.00
C1303  C     0.73388   0.83273   0.82160   0.00000  Uiso   1.00
C1304  C     0.93279   0.83394   0.84506   0.00000  Uiso   1.00
C1305  C     0.67980   0.82530   0.81698   0.00000  Uiso   1.00
C1306  C     0.98687   0.84137   0.84969   0.00000  Uiso   1.00
C1307  C     0.79981   0.68934   0.80109   0.00000  Uiso   1.00
C1308  C     0.86685   0.97733   0.86558   0.00000  Uiso   1.00
C1309  C     0.79537   0.97970   0.80109   0.00000  Uiso   1.00
C1310  C     0.87130   0.68697   0.86558   0.00000  Uiso   1.00
C1311  C     0.83000   0.95741   0.83352   0.00000  Uiso   1.00
C1312  C     0.83666   0.70925   0.83315   0.00000  Uiso   1.00
C1313  C     0.86779   0.85760   0.69512   0.00000  Uiso   1.00
C1314  C     0.79888   0.80907   0.97155   0.00000  Uiso   1.00
C1315  C     0.86775   0.85761   0.98051   0.00000  Uiso   1.00
C1316  C     0.79891   0.80906   0.68616   0.00000  Uiso   1.00
H1317  H     0.77299   0.70771   0.77735   0.00000  Uiso   1.00
H1318  H     0.89368   0.95896   0.88932   0.00000  Uiso   1.00
H1319  H     0.89535   0.87701   0.71685   0.00000  Uiso   1.00
H1320  H     0.77132   0.78966   0.94982   0.00000  Uiso   1.00
H1321  H     0.89524   0.87706   0.96593   0.00000  Uiso   1.00
H1322  H     0.77143   0.78961   0.70073   0.00000  Uiso   1.00
N1323  N     0.83332   0.83332   0.95240   0.00000  Uiso   1.00
N1324  N     0.83335   0.83334   0.71427   0.00000  Uiso   1.00
O1325  O     0.83333   0.77225   0.87154   0.00000  Uiso   1.00
O1326  O     0.83334   0.89442   0.79513   0.00000  Uiso   1.00
O1327  O     0.83333   0.77226   0.79510   0.00000  Uiso   1.00
O1328  O     0.83334   0.89441   0.87157   0.00000  Uiso   1.00
O1329  O     0.75725   0.83333   0.86261   0.00000  Uiso   1.00
O1330  O     0.90942   0.83334   0.80405   0.00000  Uiso   1.00
O1331  O     0.75725   0.83334   0.78617   0.00000  Uiso   1.00
O1332  O     0.90942   0.83333   0.88050   0.00000  Uiso   1.00
Zn1333 Zn    0.83333   0.83333   0.88437   0.00000  Uiso   1.00
Zn1334 Zn    0.83333   0.83334   0.78229   0.00000  Uiso   1.00
C1335  C     0.99286   0.79202   0.78315   0.00000  Uiso   1.00
O1336  O     0.96720   0.76286   0.79476   0.00000  Uiso   1.00
O1337  O     0.67139   0.79359   0.73851   0.00000  Uiso   1.00
H1338  H     0.98934   0.76922   0.71897   0.00000  Uiso   1.00
C1339  C     0.67381   0.87466   0.88351   0.00000  Uiso   1.00
O1340  O     0.69949   0.90380   0.87192   0.00000  Uiso   1.00
O1341  O     0.99524   0.87311   0.92815   0.00000  Uiso   1.00
H1342  H     0.67729   0.89747   0.94769   0.00000  Uiso   1.00
C1343  C     0.75311   0.95986   0.76844   0.00000  Uiso   1.00
O1344  O     0.73308   0.92707   0.77805   0.00000  Uiso   1.00
O1345  O     0.73490   0.97966   0.72705   0.00000  Uiso   1.00
H1346  H     0.70582   0.96348   0.70791   0.00000  Uiso   1.00
C1347  C     0.91356   0.70681   0.89823   0.00000  Uiso   1.00
O1348  O     0.93359   0.73959   0.88862   0.00000  Uiso   1.00
O1349  O     0.93176   0.68701   0.93961   0.00000  Uiso   1.00
H1350  H     0.96084   0.70318   0.95876   0.00000  Uiso   1.00
loop_
_geom_bond_atom_site_label_1
_geom_bond_atom_site_label_2
_geom_bond_distance
_geom_bond_site_symmetry_2
_ccdc_geom_bond_type
C1     O25     1.281   .     A
C1     C12     1.412   .     S
C1     O27     1.280   .     A
C2     O26     1.281   .     A
C2     C11     1.412   .     S
C2     O28     1.280   .     A
C3     O31     1.283   .     A
C3     O29     1.274   .     A
C3     C5      1.406   .     S
C4     O30     1.274   .     A
C4     O32     1.283   .     A
C4     C6      1.406   .     S
C5     C106    1.357   1_455 S
C5     C135    1.498   1_455 S
C6     C55     1.357   .     S
C6     C89     1.498   .     S
C7     C12     1.395   .     A
C7     H17     1.086   .     S
C7     C309    1.378   1_545 S
C8     C11     1.395   .     A
C8     H18     1.086   .     S
C8     C160    1.378   .     S
C9     C11     1.408   .     A
C9     C43     1.490   .     S
C9     C157    1.378   .     S
C10    C12     1.408   .     A
C10    C47     1.490   .     S
C10    C308    1.378   1_545 S
C13    H19     1.082   .     S
C13    N24     1.367   .     A
C13    C915    1.417   1_554 S
C14    N23     1.367   .     A
C14    H20     1.082   .     S
C14    C466    1.417   .     S
C15    N23     1.366   .     A
C15    H21     1.082   .     S
C15    C463    1.417   .     S
C16    N24     1.366   .     A
C16    H22     1.082   .     S
C16    C914    1.417   1_554 S
N23    Zn33    2.010   .     S
N24    Zn34    2.010   .     S
O25    Zn33    1.986   .     S
O26    Zn34    1.986   .     S
O27    Zn34    1.990   .     S
O28    Zn33    1.990   .     S
O29    Zn33    1.980   .     S
O30    Zn34    1.980   .     S
O31    Zn34    1.987   .     S
O32    Zn33    1.987   .     S
C35    O36     1.224   .     D
C35    C55     1.498   .     S
C35    O87     1.398   .     S
O37    C135    1.398   1_455 S
O37    H138    1.014   1_455 S
H38    O87     1.014   .     S
C39    O40     1.224   .     D
C39    C106    1.498   1_455 S
C39    O141    1.398   1_455 S
O41    C89     1.398   .     S
O41    H92     1.014   .     S
H42    O141    1.014   1_455 S
C43    O44     1.222   .     D
C43    O45     1.399   .     S
O45    H46     1.014   .     S
C47    O49     1.399   .     S
C47    O48     1.222   .     D
O49    H50     1.014   .     S
C51    O75     1.281   .     A
C51    C62     1.412   .     S
C51    O77     1.280   .     A
C52    O76     1.281   .     A
C52    C61     1.412   .     S
C52    O78     1.280   .     A
C53    O81     1.283   .     A
C53    O79     1.274   .     A
C53    C55     1.406   .     S
C54    O80     1.274   .     A
C54    O82     1.283   .     A
C54    C56     1.406   .     S
C56    C105    1.357   .     S
C56    C139    1.498   .     S
C57    C62     1.395   .     A
C57    H67     1.086   .     S
C57    C359    1.378   1_545 S
C58    C61     1.395   .     A
C58    H68     1.086   .     S
C58    C210    1.378   .     S
C59    C61     1.408   .     A
C59    C93     1.490   .     S
C59    C207    1.378   .     S
C60    C62     1.408   .     A
C60    C97     1.490   .     S
C60    C358    1.378   1_545 S
C63    H69     1.082   .     S
C63    N74     1.367   .     A
C63    C965    1.417   1_554 S
C64    N73     1.367   .     A
C64    H70     1.082   .     S
C64    C516    1.417   .     S
C65    N73     1.366   .     A
C65    H71     1.082   .     S
C65    C513    1.417   .     S
C66    N74     1.366   .     A
C66    H72     1.082   .     S
C66    C964    1.417   1_554 S
N73    Zn83    2.010   .     S
N74    Zn84    2.010   .     S
O75    Zn83    1.986   .     S
O76    Zn84    1.986   .     S
O77    Zn84    1.990   .     S
O78    Zn83    1.990   .     S
O79    Zn83    1.980   .     S
O80    Zn84    1.980   .     S
O81    Zn84    1.987   .     S
O82    Zn83    1.987   .     S
C85    O86     1.224   .     D
C85    C105    1.498   .     S
C85    O137    1.398   .     S
H88    O137    1.014   .     S
C89    O90     1.224   .     D
O91    C139    1.398   .     S
O91    H142    1.014   .     S
C93    O94     1.222   .     D
C93    O95     1.399   .     S
O95    H96     1.014   .     S
C97    O99     1.399   .     S
C97    O98     1.222   .     D
O99    H100    1.014   .     S
C101   O125    1.281   .     A
C101   C112    1.412   .     S
C101   O127    1.280   .     A
C102   O126    1.281   .     A
C102   C111    1.412   .     S
C102   O128    1.280   .     A
C103   O131    1.283   .     A
C103   O129    1.274   .     A
C103   C105    1.406   .     S
C104   O130    1.274   .     A
C104   O132    1.283   .     A
C104   C106    1.406   .     S
C106   C5      1.357   1_655 S
C106   C39     1.498   1_655 S
C107   C112    1.395   .     A
C107   H117    1.086   .     S
C107   C409    1.378   1_545 S
C108   C111    1.395   .     A
C108   H118    1.086   .     S
C108   C260    1.378   .     S
C109   C111    1.408   .     A
C109   C143    1.490   .     S
C109   C257    1.378   .     S
C110   C112    1.408   .     A
C110   C147    1.490   .     S
C110   C408    1.378   1_545 S
C113   H119    1.082   .     S
C113   N124    1.367   .     A
C113   C1015   1.417   1_554 S
C114   N123    1.367   .     A
C114   H120    1.082   .     S
C114   C566    1.417   .     S
C115   N123    1.366   .     A
C115   H121    1.082   .     S
C115   C563    1.417   .     S
C116   N124    1.366   .     A
C116   H122    1.082   .     S
C116   C1014   1.417   1_554 S
N123   Zn133   2.010   .     S
N124   Zn134   2.010   .     S
O125   Zn133   1.986   .     S
O126   Zn134   1.986   .     S
O127   Zn134   1.990   .     S
O128   Zn133   1.990   .     S
O129   Zn133   1.980   .     S
O130   Zn134   1.980   .     S
O131   Zn134   1.987   .     S
O132   Zn133   1.987   .     S
C135   O136    1.224   .     D
C135   C5      1.498   1_655 S
C135   O37     1.398   1_655 S
H138   O37     1.014   1_655 S
C139   O140    1.224   .     D
O141   C39     1.398   1_655 S
O141   H42     1.014   1_655 S
C143   O144    1.222   .     D
C143   O145    1.399   .     S
O145   H146    1.014   .     S
C147   O149    1.399   .     S
C147   O148    1.222   .     D
O149   H150    1.014   .     S
C151   O175    1.281   .     A
C151   C162    1.412   .     S
C151   O177    1.280   .     A
C152   O176    1.281   .     A
C152   C161    1.412   .     S
C152   O178    1.280   .     A
C153   O181    1.283   .     A
C153   O179    1.274   .     A
C153   C155    1.406   .     S
C154   O180    1.274   .     A
C154   O182    1.283   .     A
C154   C156    1.406   .     S
C155   C256    1.357   1_455 S
C155   C285    1.498   1_455 S
C156   C205    1.357   .     S
C156   C239    1.498   .     S
C157   C162    1.395   .     A
C157   H167    1.086   .     S
C158   C161    1.395   .     A
C158   H168    1.086   .     S
C158   C310    1.378   .     S
C159   C161    1.408   .     A
C159   C193    1.490   .     S
C159   C307    1.378   .     S
C160   C162    1.408   .     A
C160   C197    1.490   .     S
C163   H169    1.082   .     S
C163   N174    1.367   .     A
C163   C1065   1.417   1_554 S
C164   N173    1.367   .     A
C164   H170    1.082   .     S
C164   C616    1.417   .     S
C165   N173    1.366   .     A
C165   H171    1.082   .     S
C165   C613    1.417   .     S
C166   N174    1.366   .     A
C166   H172    1.082   .     S
C166   C1064   1.417   1_554 S
N173   Zn183   2.010   .     S
N174   Zn184   2.010   .     S
O175   Zn183   1.986   .     S
O176   Zn184   1.986   .     S
O177   Zn184   1.990   .     S
O178   Zn183   1.990   .     S
O179   Zn183   1.980   .     S
O180   Zn184   1.980   .     S
O181   Zn184   1.987   .     S
O182   Zn183   1.987   .     S
C185   O186    1.224   .     D
C185   C205    1.498   .     S
C185   O237    1.398   .     S
O187   C285    1.398   1_455 S
O187   H288    1.014   1_455 S
H188   O237    1.014   .     S
C189   O190    1.224   .     D
C189   C256    1.498   1_455 S
C189   O291    1.398   1_455 S
O191   C239    1.398   .     S
O191   H242    1.014   .     S
H192   O291    1.014   1_455 S
C193   O194    1.222   .     D
C193   O195    1.399   .     S
O195   H196    1.014   .     S
C197   O199    1.399   .     S
C197   O198    1.222   .     D
O199   H200    1.014   .     S
C201   O225    1.281   .     A
C201   C212    1.412   .     S
C201   O227    1.280   .     A
C202   O226    1.281   .     A
C202   C211    1.412   .     S
C202   O228    1.280   .     A
C203   O231    1.283   .     A
C203   O229    1.274   .     A
C203   C205    1.406   .     S
C204   O230    1.274   .     A
C204   O232    1.283   .     A
C204   C206    1.406   .     S
C206   C255    1.357   .     S
C206   C289    1.498   .     S
C207   C212    1.395   .     A
C207   H217    1.086   .     S
C208   C211    1.395   .     A
C208   H218    1.086   .     S
C208   C360    1.378   .     S
C209   C211    1.408   .     A
C209   C243    1.490   .     S
C209   C357    1.378   .     S
C210   C212    1.408   .     A
C210   C247    1.490   .     S
C213   H219    1.082   .     S
C213   N224    1.367   .     A
C213   C1115   1.417   1_554 S
C214   N223    1.367   .     A
C214   H220    1.082   .     S
C214   C666    1.417   .     S
C215   N223    1.366   .     A
C215   H221    1.082   .     S
C215   C663    1.417   .     S
C216   N224    1.366   .     A
C216   H222    1.082   .     S
C216   C1114   1.417   1_554 S
N223   Zn233   2.010   .     S
N224   Zn234   2.010   .     S
O225   Zn233   1.986   .     S
O226   Zn234   1.986   .     S
O227   Zn234   1.990   .     S
O228   Zn233   1.990   .     S
O229   Zn233   1.980   .     S
O230   Zn234   1.980   .     S
O231   Zn234   1.987   .     S
O232   Zn233   1.987   .     S
C235   O236    1.224   .     D
C235   C255    1.498   .     S
C235   O287    1.398   .     S
H238   O287    1.014   .     S
C239   O240    1.224   .     D
O241   C289    1.398   .     S
O241   H292    1.014   .     S
C243   O244    1.222   .     D
C243   O245    1.399   .     S
O245   H246    1.014   .     S
C247   O249    1.399   .     S
C247   O248    1.222   .     D
O249   H250    1.014   .     S
C251   O275    1.281   .     A
C251   C262    1.412   .     S
C251   O277    1.280   .     A
C252   O276    1.281   .     A
C252   C261    1.412   .     S
C252   O278    1.280   .     A
C253   O281    1.283   .     A
C253   O279    1.274   .     A
C253   C255    1.406   .     S
C254   O280    1.274   .     A
C254   O282    1.283   .     A
C254   C256    1.406   .     S
C256   C155    1.357   1_655 S
C256   C189    1.498   1_655 S
C257   C262    1.395   .     A
C257   H267    1.086   .     S
C258   C261    1.395   .     A
C258   H268    1.086   .     S
C258   C410    1.378   .     S
C259   C261    1.408   .     A
C259   C293    1.490   .     S
C259   C407    1.378   .     S
C260   C262    1.408   .     A
C260   C297    1.490   .     S
C263   H269    1.082   .     S
C263   N274    1.367   .     A
C263   C1165   1.417   1_554 S
C264   N273    1.367   .     A
C264   H270    1.082   .     S
C264   C716    1.417   .     S
C265   N273    1.366   .     A
C265   H271    1.082   .     S
C265   C713    1.417   .     S
C266   N274    1.366   .     A
C266   H272    1.082   .     S
C266   C1164   1.417   1_554 S
N273   Zn283   2.010   .     S
N274   Zn284   2.010   .     S
O275   Zn283   1.986   .     S
O276   Zn284   1.986   .     S
O277   Zn284   1.990   .     S
O278   Zn283   1.990   .     S
O279   Zn283   1.980   .     S
O280   Zn284   1.980   .     S
O281   Zn284   1.987   .     S
O282   Zn283   1.987   .     S
C285   O286    1.224   .     D
C285   C155    1.498   1_655 S
C285   O187    1.398   1_655 S
H288   O187    1.014   1_655 S
C289   O290    1.224   .     D
O291   C189    1.398   1_655 S
O291   H192    1.014   1_655 S
C293   O294    1.222   .     D
C293   O295    1.399   .     S
O295   H296    1.014   .     S
C297   O299    1.399   .     S
C297   O298    1.222   .     D
O299   H300    1.014   .     S
C301   O325    1.281   .     A
C301   C312    1.412   .     S
C301   O327    1.280   .     A
C302   O326    1.281   .     A
C302   C311    1.412   .     S
C302   O328    1.280   .     A
C303   O331    1.283   .     A
C303   O329    1.274   .     A
C303   C305    1.406   .     S
C304   O330    1.274   .     A
C304   O332    1.283   .     A
C304   C306    1.406   .     S
C305   C406    1.357   1_455 S
C305   C435    1.498   1_455 S
C306   C355    1.357   .     S
C306   C389    1.498   .     S
C307   C312    1.395   .     A
C307   H317    1.086   .     S
C308   C311    1.395   .     A
C308   H318    1.086   .     S
C308   C10     1.378   1_565 S
C309   C311    1.408   .     A
C309   C343    1.490   .     S
C309   C7      1.378   1_565 S
C310   C312    1.408   .     A
C310   C347    1.490   .     S
C313   H319    1.082   .     S
C313   N324    1.367   .     A
C313   C1215   1.417   1_554 S
C314   N323    1.367   .     A
C314   H320    1.082   .     S
C314   C766    1.417   .     S
C315   N323    1.366   .     A
C315   H321    1.082   .     S
C315   C763    1.417   .     S
C316   N324    1.366   .     A
C316   H322    1.082   .     S
C316   C1214   1.417   1_554 S
N323   Zn333   2.010   .     S
N324   Zn334   2.010   .     S
O325   Zn333   1.986   .     S
O326   Zn334   1.986   .     S
O327   Zn334   1.990   .     S
O328   Zn333   1.990   .     S
O329   Zn333   1.980   .     S
O330   Zn334   1.980   .     S
O331   Zn334   1.987   .     S
O332   Zn333   1.987   .     S
C335   O336    1.224   .     D
C335   C355    1.498   .     S
C335   O387    1.398   .     S
O337   C435    1.398   1_455 S
O337   H438    1.014   1_455 S
H338   O387    1.014   .     S
C339   O340    1.224   .     D
C339   C406    1.498   1_455 S
C339   O441    1.398   1_455 S
O341   C389    1.398   .     S
O341   H392    1.014   .     S
H342   O441    1.014   1_455 S
C343   O344    1.222   .     D
C343   O345    1.399   .     S
O345   H346    1.014   .     S
C347   O349    1.399   .     S
C347   O348    1.222   .     D
O349   H350    1.014   .     S
C351   O375    1.281   .     A
C351   C362    1.412   .     S
C351   O377    1.280   .     A
C352   O376    1.281   .     A
C352   C361    1.412   .     S
C352   O378    1.280   .     A
C353   O381    1.283   .     A
C353   O379    1.274   .     A
C353   C355    1.406   .     S
C354   O380    1.274   .     A
C354   O382    1.283   .     A
C354   C356    1.406   .     S
C356   C405    1.357   .     S
C356   C439    1.498   .     S
C357   C362    1.395   .     A
C357   H367    1.086   .     S
C358   C361    1.395   .     A
C358   H368    1.086   .     S
C358   C60     1.378   1_565 S
C359   C361    1.408   .     A
C359   C393    1.490   .     S
C359   C57     1.378   1_565 S
C360   C362    1.408   .     A
C360   C397    1.490   .     S
C363   H369    1.082   .     S
C363   N374    1.367   .     A
C363   C1265   1.417   1_554 S
C364   N373    1.367   .     A
C364   H370    1.082   .     S
C364   C816    1.417   .     S
C365   N373    1.366   .     A
C365   H371    1.082   .     S
C365   C813    1.417   .     S
C366   N374    1.366   .     A
C366   H372    1.082   .     S
C366   C1264   1.417   1_554 S
N373   Zn383   2.010   .     S
N374   Zn384   2.010   .     S
O375   Zn383   1.986   .     S
O376   Zn384   1.986   .     S
O377   Zn384   1.990   .     S
O378   Zn383   1.990   .     S
O379   Zn383   1.980   .     S
O380   Zn384   1.980   .     S
O381   Zn384   1.987   .     S
O382   Zn383   1.987   .     S
C385   O386    1.224   .     D
C385   C405    1.498   .     S
C385   O437    1.398   .     S
H388   O437    1.014   .     S
C389   O390    1.224   .     D
O391   C439    1.398   .     S
O391   H442    1.014   .     S
C393   O394    1.222   .     D
C393   O395    1.399   .     S
O395   H396    1.014   .     S
C397   O399    1.399   .     S
C397   O398    1.222   .     D
O399   H400    1.014   .     S
C401   O425    1.281   .     A
C401   C412    1.412   .     S
C401   O427    1.280   .     A
C402   O426    1.281   .     A
C402   C411    1.412   .     S
C402   O428    1.280   .     A
C403   O431    1.283   .     A
C403   O429    1.274   .     A
C403   C405    1.406   .     S
C404   O430    1.274   .     A
C404   O432    1.283   .     A
C404   C406    1.406   .     S
C406   C305    1.357   1_655 S
C406   C339    1.498   1_655 S
C407   C412    1.395   .     A
C407   H417    1.086   .     S
C408   C411    1.395   .     A
C408   H418    1.086   .     S
C408   C110    1.378   1_565 S
C409   C411    1.408   .     A
C409   C443    1.490   .     S
C409   C107    1.378   1_565 S
C410   C412    1.408   .     A
C410   C447    1.490   .     S
C413   H419    1.082   .     S
C413   N424    1.367   .     A
C413   C1315   1.417   1_554 S
C414   N423    1.367   .     A
C414   H420    1.082   .     S
C414   C866    1.417   .     S
C415   N423    1.366   .     A
C415   H421    1.082   .     S
C415   C863    1.417   .     S
C416   N424    1.366   .     A
C416   H422    1.082   .     S
C416   C1314   1.417   1_554 S
N423   Zn433   2.010   .     S
N424   Zn434   2.010   .     S
O425   Zn433   1.986   .     S
O426   Zn434   1.986   .     S
O427   Zn434   1.990   .     S
O428   Zn433   1.990   .     S
O429   Zn433   1.980   .     S
O430   Zn434   1.980   .     S
O431   Zn434   1.987   .     S
O432   Zn433   1.987   .     S
C435   O436    1.224   .     D
C435   C305    1.498   1_655 S
C435   O337    1.398   1_655 S
H438   O337    1.014   1_655 S
C439   O440    1.224   .     D
O441   C339    1.398   1_655 S
O441   H342    1.014   1_655 S
C443   O444    1.222   .     D
C443   O445    1.399   .     S
O445   H446    1.014   .     S
C447   O449    1.399   .     S
C447   O448    1.222   .     D
O449   H450    1.014   .     S
C451   O475    1.281   .     A
C451   C462    1.412   .     S
C451   O477    1.280   .     A
C452   O476    1.281   .     A
C452   C461    1.412   .     S
C452   O478    1.280   .     A
C453   O481    1.283   .     A
C453   O479    1.274   .     A
C453   C455    1.406   .     S
C454   O480    1.274   .     A
C454   O482    1.283   .     A
C454   C456    1.406   .     S
C455   C556    1.357   1_455 S
C455   C585    1.498   1_455 S
C456   C505    1.357   .     S
C456   C539    1.498   .     S
C457   C462    1.395   .     A
C457   H467    1.086   .     S
C457   C759    1.378   1_545 S
C458   C461    1.395   .     A
C458   H468    1.086   .     S
C458   C610    1.378   .     S
C459   C461    1.408   .     A
C459   C493    1.490   .     S
C459   C607    1.378   .     S
C460   C462    1.408   .     A
C460   C497    1.490   .     S
C460   C758    1.378   1_545 S
C463   H469    1.082   .     S
C463   N474    1.367   .     A
C464   N473    1.367   .     A
C464   H470    1.082   .     S
C464   C916    1.417   .     S
C465   N473    1.366   .     A
C465   H471    1.082   .     S
C465   C913    1.417   .     S
C466   N474    1.366   .     A
C466   H472    1.082   .     S
N473   Zn483   2.010   .     S
N474   Zn484   2.010   .     S
O475   Zn483   1.986   .     S
O476   Zn484   1.986   .     S
O477   Zn484   1.990   .     S
O478   Zn483   1.990   .     S
O479   Zn483   1.980   .     S
O480   Zn484   1.980   .     S
O481   Zn484   1.987   .     S
O482   Zn483   1.987   .     S
C485   O486    1.224   .     D
C485   C505    1.498   .     S
C485   O537    1.398   .     S
O487   C585    1.398   1_455 S
O487   H588    1.014   1_455 S
H488   O537    1.014   .     S
C489   O490    1.224   .     D
C489   C556    1.498   1_455 S
C489   O591    1.398   1_455 S
O491   C539    1.398   .     S
O491   H542    1.014   .     S
H492   O591    1.014   1_455 S
C493   O494    1.222   .     D
C493   O495    1.399   .     S
O495   H496    1.014   .     S
C497   O499    1.399   .     S
C497   O498    1.222   .     D
O499   H500    1.014   .     S
C501   O525    1.281   .     A
C501   C512    1.412   .     S
C501   O527    1.280   .     A
C502   O526    1.281   .     A
C502   C511    1.412   .     S
C502   O528    1.280   .     A
C503   O531    1.283   .     A
C503   O529    1.274   .     A
C503   C505    1.406   .     S
C504   O530    1.274   .     A
C504   O532    1.283   .     A
C504   C506    1.406   .     S
C506   C555    1.357   .     S
C506   C589    1.498   .     S
C507   C512    1.395   .     A
C507   H517    1.086   .     S
C507   C809    1.378   1_545 S
C508   C511    1.395   .     A
C508   H518    1.086   .     S
C508   C660    1.378   .     S
C509   C511    1.408   .     A
C509   C543    1.490   .     S
C509   C657    1.378   .     S
C510   C512    1.408   .     A
C510   C547    1.490   .     S
C510   C808    1.378   1_545 S
C513   H519    1.082   .     S
C513   N524    1.367   .     A
C514   N523    1.367   .     A
C514   H520    1.082   .     S
C514   C966    1.417   .     S
C515   N523    1.366   .     A
C515   H521    1.082   .     S
C515   C963    1.417   .     S
C516   N524    1.366   .     A
C516   H522    1.082   .     S
N523   Zn533   2.010   .     S
N524   Zn534   2.010   .     S
O525   Zn533   1.986   .     S
O526   Zn534   1.986   .     S
O527   Zn534   1.990   .     S
O528   Zn533   1.990   .     S
O529   Zn533   1.980   .     S
O530   Zn534   1.980   .     S
O531   Zn534   1.987   .     S
O532   Zn533   1.987   .     S
C535   O536    1.224   .     D
C535   C555    1.498   .     S
C535   O587    1.398   .     S
H538   O587    1.014   .     S
C539   O540    1.224   .     D
O541   C589    1.398   .     S
O541   H592    1.014   .     S
C543   O544    1.222   .     D
C543   O545    1.399   .     S
O545   H546    1.014   .     S
C547   O549    1.399   .     S
C547   O548    1.222   .     D
O549   H550    1.014   .     S
C551   O575    1.281   .     A
C551   C562    1.412   .     S
C551   O577    1.280   .     A
C552   O576    1.281   .     A
C552   C561    1.412   .     S
C552   O578    1.280   .     A
C553   O581    1.283   .     A
C553   O579    1.274   .     A
C553   C555    1.406   .     S
C554   O580    1.274   .     A
C554   O582    1.283   .     A
C554   C556    1.406   .     S
C556   C455    1.357   1_655 S
C556   C489    1.498   1_655 S
C557   C562    1.395   .     A
C557   H567    1.086   .     S
C557   C859    1.378   1_545 S
C558   C561    1.395   .     A
C558   H568    1.086   .     S
C558   C710    1.378   .     S
C559   C561    1.408   .     A
C559   C593    1.490   .     S
C559   C707    1.378   .     S
C560   C562    1.408   .     A
C560   C597    1.490   .     S
C560   C858    1.378   1_545 S
C563   H569    1.082   .     S
C563   N574    1.367   .     A
C564   N573    1.367   .     A
C564   H570    1.082   .     S
C564   C1016   1.417   .     S
C565   N573    1.366   .     A
C565   H571    1.082   .     S
C565   C1013   1.417   .     S
C566   N574    1.366   .     A
C566   H572    1.082   .     S
N573   Zn583   2.010   .     S
N574   Zn584   2.010   .     S
O575   Zn583   1.986   .     S
O576   Zn584   1.986   .     S
O577   Zn584   1.990   .     S
O578   Zn583   1.990   .     S
O579   Zn583   1.980   .     S
O580   Zn584   1.980   .     S
O581   Zn584   1.987   .     S
O582   Zn583   1.987   .     S
C585   O586    1.224   .     D
C585   C455    1.498   1_655 S
C585   O487    1.398   1_655 S
H588   O487    1.014   1_655 S
C589   O590    1.224   .     D
O591   C489    1.398   1_655 S
O591   H492    1.014   1_655 S
C593   O594    1.222   .     D
C593   O595    1.399   .     S
O595   H596    1.014   .     S
C597   O599    1.399   .     S
C597   O598    1.222   .     D
O599   H600    1.014   .     S
C601   O625    1.281   .     A
C601   C612    1.412   .     S
C601   O627    1.280   .     A
C602   O626    1.281   .     A
C602   C611    1.412   .     S
C602   O628    1.280   .     A
C603   O631    1.283   .     A
C603   O629    1.274   .     A
C603   C605    1.406   .     S
C604   O630    1.274   .     A
C604   O632    1.283   .     A
C604   C606    1.406   .     S
C605   C706    1.357   1_455 S
C605   C735    1.498   1_455 S
C606   C655    1.357   .     S
C606   C689    1.498   .     S
C607   C612    1.395   .     A
C607   H617    1.086   .     S
C608   C611    1.395   .     A
C608   H618    1.086   .     S
C608   C760    1.378   .     S
C609   C611    1.408   .     A
C609   C643    1.490   .     S
C609   C757    1.378   .     S
C610   C612    1.408   .     A
C610   C647    1.490   .     S
C613   H619    1.082   .     S
C613   N624    1.367   .     A
C614   N623    1.367   .     A
C614   H620    1.082   .     S
C614   C1066   1.417   .     S
C615   N623    1.366   .     A
C615   H621    1.082   .     S
C615   C1063   1.417   .     S
C616   N624    1.366   .     A
C616   H622    1.082   .     S
N623   Zn633   2.010   .     S
N624   Zn634   2.010   .     S
O625   Zn633   1.986   .     S
O626   Zn634   1.986   .     S
O627   Zn634   1.990   .     S
O628   Zn633   1.990   .     S
O629   Zn633   1.980   .     S
O630   Zn634   1.980   .     S
O631   Zn634   1.987   .     S
O632   Zn633   1.987   .     S
C635   O636    1.224   .     D
C635   C655    1.498   .     S
C635   O687    1.398   .     S
O637   C735    1.398   1_455 S
O637   H738    1.014   1_455 S
H638   O687    1.014   .     S
C639   O640    1.224   .     D
C639   C706    1.498   1_455 S
C639   O741    1.398   1_455 S
O641   C689    1.398   .     S
O641   H692    1.014   .     S
H642   O741    1.014   1_455 S
C643   O644    1.222   .     D
C643   O645    1.399   .     S
O645   H646    1.014   .     S
C647   O649    1.399   .     S
C647   O648    1.222   .     D
O649   H650    1.014   .     S
C651   O675    1.281   .     A
C651   C662    1.412   .     S
C651   O677    1.280   .     A
C652   O676    1.281   .     A
C652   C661    1.412   .     S
C652   O678    1.280   .     A
C653   O681    1.283   .     A
C653   O679    1.274   .     A
C653   C655    1.406   .     S
C654   O680    1.274   .     A
C654   O682    1.283   .     A
C654   C656    1.406   .     S
C656   C705    1.357   .     S
C656   C739    1.498   .     S
C657   C662    1.395   .     A
C657   H667    1.086   .     S
C658   C661    1.395   .     A
C658   H668    1.086   .     S
C658   C810    1.378   .     S
C659   C661    1.408   .     A
C659   C693    1.490   .     S
C659   C807    1.378   .     S
C660   C662    1.408   .     A
C660   C697    1.490   .     S
C663   H669    1.082   .     S
C663   N674    1.367   .     A
C664   N673    1.367   .     A
C664   H670    1.082   .     S
C664   C1116   1.417   .     S
C665   N673    1.366   .     A
C665   H671    1.082   .     S
C665   C1113   1.417   .     S
C666   N674    1.366   .     A
C666   H672    1.082   .     S
N673   Zn683   2.010   .     S
N674   Zn684   2.010   .     S
O675   Zn683   1.986   .     S
O676   Zn684   1.986   .     S
O677   Zn684   1.990   .     S
O678   Zn683   1.990   .     S
O679   Zn683   1.980   .     S
O680   Zn684   1.980   .     S
O681   Zn684   1.987   .     S
O682   Zn683   1.987   .     S
C685   O686    1.224   .     D
C685   C705    1.498   .     S
C685   O737    1.398   .     S
H688   O737    1.014   .     S
C689   O690    1.224   .     D
O691   C739    1.398   .     S
O691   H742    1.014   .     S
C693   O694    1.222   .     D
C693   O695    1.399   .     S
O695   H696    1.014   .     S
C697   O699    1.399   .     S
C697   O698    1.222   .     D
O699   H700    1.014   .     S
C701   O725    1.281   .     A
C701   C712    1.412   .     S
C701   O727    1.280   .     A
C702   O726    1.281   .     A
C702   C711    1.412   .     S
C702   O728    1.280   .     A
C703   O731    1.283   .     A
C703   O729    1.274   .     A
C703   C705    1.406   .     S
C704   O730    1.274   .     A
C704   O732    1.283   .     A
C704   C706    1.406   .     S
C706   C605    1.357   1_655 S
C706   C639    1.498   1_655 S
C707   C712    1.395   .     A
C707   H717    1.086   .     S
C708   C711    1.395   .     A
C708   H718    1.086   .     S
C708   C860    1.378   .     S
C709   C711    1.408   .     A
C709   C743    1.490   .     S
C709   C857    1.378   .     S
C710   C712    1.408   .     A
C710   C747    1.490   .     S
C713   H719    1.082   .     S
C713   N724    1.367   .     A
C714   N723    1.367   .     A
C714   H720    1.082   .     S
C714   C1166   1.417   .     S
C715   N723    1.366   .     A
C715   H721    1.082   .     S
C715   C1163   1.417   .     S
C716   N724    1.366   .     A
C716   H722    1.082   .     S
N723   Zn733   2.010   .     S
N724   Zn734   2.010   .     S
O725   Zn733   1.986   .     S
O726   Zn734   1.986   .     S
O727   Zn734   1.990   .     S
O728   Zn733   1.990   .     S
O729   Zn733   1.980   .     S
O730   Zn734   1.980   .     S
O731   Zn734   1.987   .     S
O732   Zn733   1.987   .     S
C735   O736    1.224   .     D
C735   C605    1.498   1_655 S
C735   O637    1.398   1_655 S
H738   O637    1.014   1_655 S
C739   O740    1.224   .     D
O741   C639    1.398   1_655 S
O741   H642    1.014   1_655 S
C743   O744    1.222   .     D
C743   O745    1.399   .     S
O745   H746    1.014   .     S
C747   O749    1.399   .     S
C747   O748    1.222   .     D
O749   H750    1.014   .     S
C751   O775    1.281   .     A
C751   C762    1.412   .     S
C751   O777    1.280   .     A
C752   O776    1.281   .     A
C752   C761    1.412   .     S
C752   O778    1.280   .     A
C753   O781    1.283   .     A
C753   O779    1.274   .     A
C753   C755    1.406   .     S
C754   O780    1.274   .     A
C754   O782    1.283   .     A
C754   C756    1.406   .     S
C755   C856    1.357   1_455 S
C755   C885    1.498   1_455 S
C756   C805    1.357   .     S
C756   C839    1.498   .     S
C757   C762    1.395   .     A
C757   H767    1.086   .     S
C758   C761    1.395   .     A
C758   H768    1.086   .     S
C758   C460    1.378   1_565 S
C759   C761    1.408   .     A
C759   C793    1.490   .     S
C759   C457    1.378   1_565 S
C760   C762    1.408   .     A
C760   C797    1.490   .     S
C763   H769    1.082   .     S
C763   N774    1.367   .     A
C764   N773    1.367   .     A
C764   H770    1.082   .     S
C764   C1216   1.417   .     S
C765   N773    1.366   .     A
C765   H771    1.082   .     S
C765   C1213   1.417   .     S
C766   N774    1.366   .     A
C766   H772    1.082   .     S
N773   Zn783   2.010   .     S
N774   Zn784   2.010   .     S
O775   Zn783   1.986   .     S
O776   Zn784   1.986   .     S
O777   Zn784   1.990   .     S
O778   Zn783   1.990   .     S
O779   Zn783   1.980   .     S
O780   Zn784   1.980   .     S
O781   Zn784   1.987   .     S
O782   Zn783   1.987   .     S
C785   O786    1.224   .     D
C785   C805    1.498   .     S
C785   O837    1.398   .     S
O787   C885    1.398   1_455 S
O787   H888    1.014   1_455 S
H788   O837    1.014   .     S
C789   O790    1.224   .     D
C789   C856    1.498   1_455 S
C789   O891    1.398   1_455 S
O791   C839    1.398   .     S
O791   H842    1.014   .     S
H792   O891    1.014   1_455 S
C793   O794    1.222   .     D
C793   O795    1.399   .     S
O795   H796    1.014   .     S
C797   O799    1.399   .     S
C797   O798    1.222   .     D
O799   H800    1.014   .     S
C801   O825    1.281   .     A
C801   C812    1.412   .     S
C801   O827    1.280   .     A
C802   O826    1.281   .     A
C802   C811    1.412   .     S
C802   O828    1.280   .     A
C803   O831    1.283   .     A
C803   O829    1.274   .     A
C803   C805    1.406   .     S
C804   O830    1.274   .     A
C804   O832    1.283   .     A
C804   C806    1.406   .     S
C806   C855    1.357   .     S
C806   C889    1.498   .     S
C807   C812    1.395   .     A
C807   H817    1.086   .     S
C808   C811    1.395   .     A
C808   H818    1.086   .     S
C808   C510    1.378   1_565 S
C809   C811    1.408   .     A
C809   C843    1.490   .     S
C809   C507    1.378   1_565 S
C810   C812    1.408   .     A
C810   C847    1.490   .     S
C813   H819    1.082   .     S
C813   N824    1.367   .     A
C814   N823    1.367   .     A
C814   H820    1.082   .     S
C814   C1266   1.417   .     S
C815   N823    1.366   .     A
C815   H821    1.082   .     S
C815   C1263   1.417   .     S
C816   N824    1.366   .     A
C816   H822    1.082   .     S
N823   Zn833   2.010   .     S
N824   Zn834   2.010   .     S
O825   Zn833   1.986   .     S
O826   Zn834   1.986   .     S
O827   Zn834   1.990   .     S
O828   Zn833   1.990   .     S
O829   Zn833   1.980   .     S
O830   Zn834   1.980   .     S
O831   Zn834   1.987   .     S
O832   Zn833   1.987   .     S
C835   O836    1.224   .     D
C835   C855    1.498   .     S
C835   O887    1.398   .     S
H838   O887    1.014   .     S
C839   O840    1.224   .     D
O841   C889    1.398   .     S
O841   H892    1.014   .     S
C843   O844    1.222   .     D
C843   O845    1.399   .     S
O845   H846    1.014   .     S
C847   O849    1.399   .     S
C847   O848    1.222   .     D
O849   H850    1.014   .     S
C851   O875    1.281   .     A
C851   C862    1.412   .     S
C851   O877    1.280   .     A
C852   O876    1.281   .     A
C852   C861    1.412   .     S
C852   O878    1.280   .     A
C853   O881    1.283   .     A
C853   O879    1.274   .     A
C853   C855    1.406   .     S
C854   O880    1.274   .     A
C854   O882    1.283   .     A
C854   C856    1.406   .     S
C856   C755    1.357   1_655 S
C856   C789    1.498   1_655 S
C857   C862    1.395   .     A
C857   H867    1.086   .     S
C858   C861    1.395   .     A
C858   H868    1.086   .     S
C858   C560    1.378   1_565 S
C859   C861    1.408   .     A
C859   C893    1.490   .     S
C859   C557    1.378   1_565 S
C860   C862    1.408   .     A
C860   C897    1.490   .     S
C863   H869    1.082   .     S
C863   N874    1.367   .     A
C864   N873    1.367   .     A
C864   H870    1.082   .     S
C864   C1316   1.417   .     S
C865   N873    1.366   .     A
C865   H871    1.082   .     S
C865   C1313   1.417   .     S
C866   N874    1.366   .     A
C866   H872    1.082   .     S
N873   Zn883   2.010   .     S
N874   Zn884   2.010   .     S
O875   Zn883   1.986   .     S
O876   Zn884   1.986   .     S
O877   Zn884   1.990   .     S
O878   Zn883   1.990   .     S
O879   Zn883   1.980   .     S
O880   Zn884   1.980   .     S
O881   Zn884   1.987   .     S
O882   Zn883   1.987   .     S
C885   O886    1.224   .     D
C885   C755    1.498   1_655 S
C885   O787    1.398   1_655 S
H888   O787    1.014   1_655 S
C889   O890    1.224   .     D
O891   C789    1.398   1_655 S
O891   H792    1.014   1_655 S
C893   O894    1.222   .     D
C893   O895    1.399   .     S
O895   H896    1.014   .     S
C897   O899    1.399   .     S
C897   O898    1.222   .     D
O899   H900    1.014   .     S
C901   O925    1.281   .     A
C901   C912    1.412   .     S
C901   O927    1.280   .     A
C902   O926    1.281   .     A
C902   C911    1.412   .     S
C902   O928    1.280   .     A
C903   O931    1.283   .     A
C903   O929    1.274   .     A
C903   C905    1.406   .     S
C904   O930    1.274   .     A
C904   O932    1.283   .     A
C904   C906    1.406   .     S
C905   C1006   1.357   1_455 S
C905   C1035   1.498   1_455 S
C906   C955    1.357   .     S
C906   C989    1.498   .     S
C907   C912    1.395   .     A
C907   H917    1.086   .     S
C907   C1209   1.378   1_545 S
C908   C911    1.395   .     A
C908   H918    1.086   .     S
C908   C1060   1.378   .     S
C909   C911    1.408   .     A
C909   C943    1.490   .     S
C909   C1057   1.378   .     S
C910   C912    1.408   .     A
C910   C947    1.490   .     S
C910   C1208   1.378   1_545 S
C913   H919    1.082   .     S
C913   N924    1.367   .     A
C914   N923    1.367   .     A
C914   H920    1.082   .     S
C914   C16     1.417   1_556 S
C915   N923    1.366   .     A
C915   H921    1.082   .     S
C915   C13     1.417   1_556 S
C916   N924    1.366   .     A
C916   H922    1.082   .     S
N923   Zn933   2.010   .     S
N924   Zn934   2.010   .     S
O925   Zn933   1.986   .     S
O926   Zn934   1.986   .     S
O927   Zn934   1.990   .     S
O928   Zn933   1.990   .     S
O929   Zn933   1.980   .     S
O930   Zn934   1.980   .     S
O931   Zn934   1.987   .     S
O932   Zn933   1.987   .     S
C935   O936    1.224   .     D
C935   C955    1.498   .     S
C935   O987    1.398   .     S
O937   C1035   1.398   1_455 S
O937   H1038   1.014   1_455 S
H938   O987    1.014   .     S
C939   O940    1.224   .     D
C939   C1006   1.498   1_455 S
C939   O1041   1.398   1_455 S
O941   C989    1.398   .     S
O941   H992    1.014   .     S
H942   O1041   1.014   1_455 S
C943   O944    1.222   .     D
C943   O945    1.399   .     S
O945   H946    1.014   .     S
C947   O949    1.399   .     S
C947   O948    1.222   .     D
O949   H950    1.014   .     S
C951   O975    1.281   .     A
C951   C962    1.412   .     S
C951   O977    1.280   .     A
C952   O976    1.281   .     A
C952   C961    1.412   .     S
C952   O978    1.280   .     A
C953   O981    1.283   .     A
C953   O979    1.274   .     A
C953   C955    1.406   .     S
C954   O980    1.274   .     A
C954   O982    1.283   .     A
C954   C956    1.406   .     S
C956   C1005   1.357   .     S
C956   C1039   1.498   .     S
C957   C962    1.395   .     A
C957   H967    1.086   .     S
C957   C1259   1.378   1_545 S
C958   C961    1.395   .     A
C958   H968    1.086   .     S
C958   C1110   1.378   .     S
C959   C961    1.408   .     A
C959   C993    1.490   .     S
C959   C1107   1.378   .     S
C960   C962    1.408   .     A
C960   C997    1.490   .     S
C960   C1258   1.378   1_545 S
C963   H969    1.082   .     S
C963   N974    1.367   .     A
C964   N973    1.367   .     A
C964   H970    1.082   .     S
C964   C66     1.417   1_556 S
C965   N973    1.366   .     A
C965   H971    1.082   .     S
C965   C63     1.417   1_556 S
C966   N974    1.366   .     A
C966   H972    1.082   .     S
N973   Zn983   2.010   .     S
N974   Zn984   2.010   .     S
O975   Zn983   1.986   .     S
O976   Zn984   1.986   .     S
O977   Zn984   1.990   .     S
O978   Zn983   1.990   .     S
O979   Zn983   1.980   .     S
O980   Zn984   1.980   .     S
O981   Zn984   1.987   .     S
O982   Zn983   1.987   .     S
C985   O986    1.224   .     D
C985   C1005   1.498   .     S
C985   O1037   1.398   .     S
H988   O1037   1.014   .     S
C989   O990    1.224   .     D
O991   C1039   1.398   .     S
O991   H1042   1.014   .     S
C993   O994    1.222   .     D
C993   O995    1.399   .     S
O995   H996    1.014   .     S
C997   O999    1.399   .     S
C997   O998    1.222   .     D
O999   H1000   1.014   .     S
C1001  O1025   1.281   .     A
C1001  C1012   1.412   .     S
C1001  O1027   1.280   .     A
C1002  O1026   1.281   .     A
C1002  C1011   1.412   .     S
C1002  O1028   1.280   .     A
C1003  O1031   1.283   .     A
C1003  O1029   1.274   .     A
C1003  C1005   1.406   .     S
C1004  O1030   1.274   .     A
C1004  O1032   1.283   .     A
C1004  C1006   1.406   .     S
C1006  C905    1.357   1_655 S
C1006  C939    1.498   1_655 S
C1007  C1012   1.395   .     A
C1007  H1017   1.086   .     S
C1007  C1309   1.378   1_545 S
C1008  C1011   1.395   .     A
C1008  H1018   1.086   .     S
C1008  C1160   1.378   .     S
C1009  C1011   1.408   .     A
C1009  C1043   1.490   .     S
C1009  C1157   1.378   .     S
C1010  C1012   1.408   .     A
C1010  C1047   1.490   .     S
C1010  C1308   1.378   1_545 S
C1013  H1019   1.082   .     S
C1013  N1024   1.367   .     A
C1014  N1023   1.367   .     A
C1014  H1020   1.082   .     S
C1014  C116    1.417   1_556 S
C1015  N1023   1.366   .     A
C1015  H1021   1.082   .     S
C1015  C113    1.417   1_556 S
C1016  N1024   1.366   .     A
C1016  H1022   1.082   .     S
N1023  Zn1033  2.010   .     S
N1024  Zn1034  2.010   .     S
O1025  Zn1033  1.986   .     S
O1026  Zn1034  1.986   .     S
O1027  Zn1034  1.990   .     S
O1028  Zn1033  1.990   .     S
O1029  Zn1033  1.980   .     S
O1030  Zn1034  1.980   .     S
O1031  Zn1034  1.987   .     S
O1032  Zn1033  1.987   .     S
C1035  O1036   1.224   .     D
C1035  C905    1.498   1_655 S
C1035  O937    1.398   1_655 S
H1038  O937    1.014   1_655 S
C1039  O1040   1.224   .     D
O1041  C939    1.398   1_655 S
O1041  H942    1.014   1_655 S
C1043  O1044   1.222   .     D
C1043  O1045   1.399   .     S
O1045  H1046   1.014   .     S
C1047  O1049   1.399   .     S
C1047  O1048   1.222   .     D
O1049  H1050   1.014   .     S
C1051  O1075   1.281   .     A
C1051  C1062   1.412   .     S
C1051  O1077   1.280   .     A
C1052  O1076   1.281   .     A
C1052  C1061   1.412   .     S
C1052  O1078   1.280   .     A
C1053  O1081   1.283   .     A
C1053  O1079   1.274   .     A
C1053  C1055   1.406   .     S
C1054  O1080   1.274   .     A
C1054  O1082   1.283   .     A
C1054  C1056   1.406   .     S
C1055  C1156   1.357   1_455 S
C1055  C1185   1.498   1_455 S
C1056  C1105   1.357   .     S
C1056  C1139   1.498   .     S
C1057  C1062   1.395   .     A
C1057  H1067   1.086   .     S
C1058  C1061   1.395   .     A
C1058  H1068   1.086   .     S
C1058  C1210   1.378   .     S
C1059  C1061   1.408   .     A
C1059  C1093   1.490   .     S
C1059  C1207   1.378   .     S
C1060  C1062   1.408   .     A
C1060  C1097   1.490   .     S
C1063  H1069   1.082   .     S
C1063  N1074   1.367   .     A
C1064  N1073   1.367   .     A
C1064  H1070   1.082   .     S
C1064  C166    1.417   1_556 S
C1065  N1073   1.366   .     A
C1065  H1071   1.082   .     S
C1065  C163    1.417   1_556 S
C1066  N1074   1.366   .     A
C1066  H1072   1.082   .     S
N1073  Zn1083  2.010   .     S
N1074  Zn1084  2.010   .     S
O1075  Zn1083  1.986   .     S
O1076  Zn1084  1.986   .     S
O1077  Zn1084  1.990   .     S
O1078  Zn1083  1.990   .     S
O1079  Zn1083  1.980   .     S
O1080  Zn1084  1.980   .     S
O1081  Zn1084  1.987   .     S
O1082  Zn1083  1.987   .     S
C1085  O1086   1.224   .     D
C1085  C1105   1.498   .     S
C1085  O1137   1.398   .     S
O1087  C1185   1.398   1_455 S
O1087  H1188   1.014   1_455 S
H1088  O1137   1.014   .     S
C1089  O1090   1.224   .     D
C1089  C1156   1.498   1_455 S
C1089  O1191   1.398   1_455 S
O1091  C1139   1.398   .     S
O1091  H1142   1.014   .     S
H1092  O1191   1.014   1_455 S
C1093  O1094   1.222   .     D
C1093  O1095   1.399   .     S
O1095  H1096   1.014   .     S
C1097  O1099   1.399   .     S
C1097  O1098   1.222   .     D
O1099  H1100   1.014   .     S
C1101  O1125   1.281   .     A
C1101  C1112   1.412   .     S
C1101  O1127   1.280   .     A
C1102  O1126   1.281   .     A
C1102  C1111   1.412   .     S
C1102  O1128   1.280   .     A
C1103  O1131   1.283   .     A
C1103  O1129   1.274   .     A
C1103  C1105   1.406   .     S
C1104  O1130   1.274   .     A
C1104  O1132   1.283   .     A
C1104  C1106   1.406   .     S
C1106  C1155   1.357   .     S
C1106  C1189   1.498   .     S
C1107  C1112   1.395   .     A
C1107  H1117   1.086   .     S
C1108  C1111   1.395   .     A
C1108  H1118   1.086   .     S
C1108  C1260   1.378   .     S
C1109  C1111   1.408   .     A
C1109  C1143   1.490   .     S
C1109  C1257   1.378   .     S
C1110  C1112   1.408   .     A
C1110  C1147   1.490   .     S
C1113  H1119   1.082   .     S
C1113  N1124   1.367   .     A
C1114  N1123   1.367   .     A
C1114  H1120   1.082   .     S
C1114  C216    1.417   1_556 S
C1115  N1123   1.366   .     A
C1115  H1121   1.082   .     S
C1115  C213    1.417   1_556 S
C1116  N1124   1.366   .     A
C1116  H1122   1.082   .     S
N1123  Zn1133  2.010   .     S
N1124  Zn1134  2.010   .     S
O1125  Zn1133  1.986   .     S
O1126  Zn1134  1.986   .     S
O1127  Zn1134  1.990   .     S
O1128  Zn1133  1.990   .     S
O1129  Zn1133  1.980   .     S
O1130  Zn1134  1.980   .     S
O1131  Zn1134  1.987   .     S
O1132  Zn1133  1.987   .     S
C1135  O1136   1.224   .     D
C1135  C1155   1.498   .     S
C1135  O1187   1.398   .     S
H1138  O1187   1.014   .     S
C1139  O1140   1.224   .     D
O1141  C1189   1.398   .     S
O1141  H1192   1.014   .     S
C1143  O1144   1.222   .     D
C1143  O1145   1.399   .     S
O1145  H1146   1.014   .     S
C1147  O1149   1.399   .     S
C1147  O1148   1.222   .     D
O1149  H1150   1.014   .     S
C1151  O1175   1.281   .     A
C1151  C1162   1.412   .     S
C1151  O1177   1.280   .     A
C1152  O1176   1.281   .     A
C1152  C1161   1.412   .     S
C1152  O1178   1.280   .     A
C1153  O1181   1.283   .     A
C1153  O1179   1.274   .     A
C1153  C1155   1.406   .     S
C1154  O1180   1.274   .     A
C1154  O1182   1.283   .     A
C1154  C1156   1.406   .     S
C1156  C1055   1.357   1_655 S
C1156  C1089   1.498   1_655 S
C1157  C1162   1.395   .     A
C1157  H1167   1.086   .     S
C1158  C1161   1.395   .     A
C1158  H1168   1.086   .     S
C1158  C1310   1.378   .     S
C1159  C1161   1.408   .     A
C1159  C1193   1.490   .     S
C1159  C1307   1.378   .     S
C1160  C1162   1.408   .     A
C1160  C1197   1.490   .     S
C1163  H1169   1.082   .     S
C1163  N1174   1.367   .     A
C1164  N1173   1.367   .     A
C1164  H1170   1.082   .     S
C1164  C266    1.417   1_556 S
C1165  N1173   1.366   .     A
C1165  H1171   1.082   .     S
C1165  C263    1.417   1_556 S
C1166  N1174   1.366   .     A
C1166  H1172   1.082   .     S
N1173  Zn1183  2.010   .     S
N1174  Zn1184  2.010   .     S
O1175  Zn1183  1.986   .     S
O1176  Zn1184  1.986   .     S
O1177  Zn1184  1.990   .     S
O1178  Zn1183  1.990   .     S
O1179  Zn1183  1.980   .     S
O1180  Zn1184  1.980   .     S
O1181  Zn1184  1.987   .     S
O1182  Zn1183  1.987   .     S
C1185  O1186   1.224   .     D
C1185  C1055   1.498   1_655 S
C1185  O1087   1.398   1_655 S
H1188  O1087   1.014   1_655 S
C1189  O1190   1.224   .     D
O1191  C1089   1.398   1_655 S
O1191  H1092   1.014   1_655 S
C1193  O1194   1.222   .     D
C1193  O1195   1.399   .     S
O1195  H1196   1.014   .     S
C1197  O1199   1.399   .     S
C1197  O1198   1.222   .     D
O1199  H1200   1.014   .     S
C1201  O1225   1.281   .     A
C1201  C1212   1.412   .     S
C1201  O1227   1.280   .     A
C1202  O1226   1.281   .     A
C1202  C1211   1.412   .     S
C1202  O1228   1.280   .     A
C1203  O1231   1.283   .     A
C1203  O1229   1.274   .     A
C1203  C1205   1.406   .     S
C1204  O1230   1.274   .     A
C1204  O1232   1.283   .     A
C1204  C1206   1.406   .     S
C1205  C1306   1.357   1_455 S
C1205  C1335   1.498   1_455 S
C1206  C1255   1.357   .     S
C1206  C1289   1.498   .     S
C1207  C1212   1.395   .     A
C1207  H1217   1.086   .     S
C1208  C1211   1.395   .     A
C1208  H1218   1.086   .     S
C1208  C910    1.378   1_565 S
C1209  C1211   1.408   .     A
C1209  C1243   1.490   .     S
C1209  C907    1.378   1_565 S
C1210  C1212   1.408   .     A
C1210  C1247   1.490   .     S
C1213  H1219   1.082   .     S
C1213  N1224   1.367   .     A
C1214  N1223   1.367   .     A
C1214  H1220   1.082   .     S
C1214  C316    1.417   1_556 S
C1215  N1223   1.366   .     A
C1215  H1221   1.082   .     S
C1215  C313    1.417   1_556 S
C1216  N1224   1.366   .     A
C1216  H1222   1.082   .     S
N1223  Zn1233  2.010   .     S
N1224  Zn1234  2.010   .     S
O1225  Zn1233  1.986   .     S
O1226  Zn1234  1.986   .     S
O1227  Zn1234  1.990   .     S
O1228  Zn1233  1.990   .     S
O1229  Zn1233  1.980   .     S
O1230  Zn1234  1.980   .     S
O1231  Zn1234  1.987   .     S
O1232  Zn1233  1.987   .     S
C1235  O1236   1.224   .     D
C1235  C1255   1.498   .     S
C1235  O1287   1.398   .     S
O1237  C1335   1.398   1_455 S
O1237  H1338   1.014   1_455 S
H1238  O1287   1.014   .     S
C1239  O1240   1.224   .     D
C1239  C1306   1.498   1_455 S
C1239  O1341   1.398   1_455 S
O1241  C1289   1.398   .     S
O1241  H1292   1.014   .     S
H1242  O1341   1.014   1_455 S
C1243  O1244   1.222   .     D
C1243  O1245   1.399   .     S
O1245  H1246   1.014   .     S
C1247  O1249   1.399   .     S
C1247  O1248   1.222   .     D
O1249  H1250   1.014   .     S
C1251  O1275   1.281   .     A
C1251  C1262   1.412   .     S
C1251  O1277   1.280   .     A
C1252  O1276   1.281   .     A
C1252  C1261   1.412   .     S
C1252  O1278   1.280   .     A
C1253  O1281   1.283   .     A
C1253  O1279   1.274   .     A
C1253  C1255   1.406   .     S
C1254  O1280   1.274   .     A
C1254  O1282   1.283   .     A
C1254  C1256   1.406   .     S
C1256  C1305   1.357   .     S
C1256  C1339   1.498   .     S
C1257  C1262   1.395   .     A
C1257  H1267   1.086   .     S
C1258  C1261   1.395   .     A
C1258  H1268   1.086   .     S
C1258  C960    1.378   1_565 S
C1259  C1261   1.408   .     A
C1259  C1293   1.490   .     S
C1259  C957    1.378   1_565 S
C1260  C1262   1.408   .     A
C1260  C1297   1.490   .     S
C1263  H1269   1.082   .     S
C1263  N1274   1.367   .     A
C1264  N1273   1.367   .     A
C1264  H1270   1.082   .     S
C1264  C366    1.417   1_556 S
C1265  N1273   1.366   .     A
C1265  H1271   1.082   .     S
C1265  C363    1.417   1_556 S
C1266  N1274   1.366   .     A
C1266  H1272   1.082   .     S
N1273  Zn1283  2.010   .     S
N1274  Zn1284  2.010   .     S
O1275  Zn1283  1.986   .     S
O1276  Zn1284  1.986   .     S
O1277  Zn1284  1.990   .     S
O1278  Zn1283  1.990   .     S
O1279  Zn1283  1.980   .     S
O1280  Zn1284  1.980   .     S
O1281  Zn1284  1.987   .     S
O1282  Zn1283  1.987   .     S
C1285  O1286   1.224   .     D
C1285  C1305   1.498   .     S
C1285  O1337   1.398   .     S
H1288  O1337   1.014   .     S
C1289  O1290   1.224   .     D
O1291  C1339   1.398   .     S
O1291  H1342   1.014   .     S
C1293  O1294   1.222   .     D
C1293  O1295   1.399   .     S
O1295  H1296   1.014   .     S
C1297  O1299   1.399   .     S
C1297  O1298   1.222   .     D
O1299  H1300   1.014   .     S
C1301  O1325   1.281   .     A
C1301  C1312   1.412   .     S
C1301  O1327   1.280   .     A
C1302  O1326   1.281   .     A
C1302  C1311   1.412   .     S
C1302  O1328   1.280   .     A
C1303  O1331   1.283   .     A
C1303  O1329   1.274   .     A
C1303  C1305   1.406   .     S
C1304  O1330   1.274   .     A
C1304  O1332   1.283   .     A
C1304  C1306   1.406   .     S
C1306  C1205   1.357   1_655 S
C1306  C1239   1.498   1_655 S
C1307  C1312   1.395   .     A
C1307  H1317   1.086   .     S
C1308  C1311   1.395   .     A
C1308  H1318   1.086   .     S
C1308  C1010   1.378   1_565 S
C1309  C1311   1.408   .     A
C1309  C1343   1.490   .     S
C1309  C1007   1.378   1_565 S
C1310  C1312   1.408   .     A
C1310  C1347   1.490   .     S
C1313  H1319   1.082   .     S
C1313  N1324   1.367   .     A
C1314  N1323   1.367   .     A
C1314  H1320   1.082   .     S
C1314  C416    1.417   1_556 S
C1315  N1323   1.366   .     A
C1315  H1321   1.082   .     S
C1315  C413    1.417   1_556 S
C1316  N1324   1.366   .     A
C1316  H1322   1.082   .     S
N1323  Zn1333  2.010   .     S
N1324  Zn1334  2.010   .     S
O1325  Zn1333  1.986   .     S
O1326  Zn1334  1.986   .     S
O1327  Zn1334  1.990   .     S
O1328  Zn1333  1.990   .     S
O1329  Zn1333  1.980   .     S
O1330  Zn1334  1.980   .     S
O1331  Zn1334  1.987   .     S
O1332  Zn1333  1.987   .     S
C1335  O1336   1.224   .     D
C1335  C1205   1.498   1_655 S
C1335  O1237   1.398   1_655 S
H1338  O1237   1.014   1_655 S
C1339  O1340   1.224   .     D
O1341  C1239   1.398   1_655 S
O1341  H1242   1.014   1_655 S
C1343  O1344   1.222   .     D
C1343  O1345   1.399   .     S
O1345  H1346   1.014   .     S
C1347  O1349   1.399   .     S
C1347  O1348   1.222   .     D
O1349  H1350   1.014   .     S
