data_str_m3_o1_o16_pcu_sym.18
_audit_creation_date              2020-01-03
_audit_creation_method            'Materials Studio'
_symmetry_space_group_name_H-M    'P1'
_symmetry_Int_Tables_number       1
_symmetry_cell_setting            triclinic
loop_
_symmetry_equiv_pos_as_xyz
  x,y,z
_cell_length_a                    29.6211
_cell_length_b                    31.8221
_cell_length_c                    26.1726
_cell_angle_alpha                 90.8636
_cell_angle_beta                  70.1523
_cell_angle_gamma                 90.5041
loop_
_atom_site_label
_atom_site_type_symbol
_atom_site_fract_x
_atom_site_fract_y
_atom_site_fract_z
_atom_site_U_iso_or_equiv
_atom_site_adp_type
_atom_site_occupancy
Br1    Br    0.17023   0.28126   0.13845   0.00000  Uiso   1.00
Br2    Br    0.07608   0.10050   0.16855   0.00000  Uiso   1.00
C3     C     0.16644   0.24659   0.25130   0.00000  Uiso   1.00
C4     C     0.12285   0.15710   0.41055   0.00000  Uiso   1.00
C5     C     0.16473   0.31326   0.29898   0.00000  Uiso   1.00
C6     C     0.14010   0.16350   0.35191   0.00000  Uiso   1.00
C7     C     0.16543   0.02321   0.29733   0.00000  Uiso   1.00
C8     C     0.16627   0.04289   0.25007   0.00000  Uiso   1.00
C9     C     0.16692   0.02094   0.20362   0.00000  Uiso   1.00
C10    C     0.16751   0.31111   0.20387   0.00000  Uiso   1.00
C11    C     0.16656   0.29085   0.25149   0.00000  Uiso   1.00
C12    C     0.31882   0.14014   0.21657   0.00000  Uiso   1.00
C13    C     0.03323   0.13989   0.21653   0.00000  Uiso   1.00
C14    C     0.14383   0.15182   0.49179   0.00000  Uiso   1.00
C15    C     0.01416   0.19310   0.28371   0.00000  Uiso   1.00
C16    C     0.29961   0.19301   0.28375   0.00000  Uiso   1.00
C17    C     0.16668   0.08683   0.24940   0.00000  Uiso   1.00
C18    C     0.19329   0.16624   0.14777   0.00000  Uiso   1.00
C19    C     0.26126   0.12551   0.00783   0.00000  Uiso   1.00
C20    C     0.20930   0.15957   0.08932   0.00000  Uiso   1.00
C21    C     0.07625   0.16976   0.44171   0.00000  Uiso   1.00
C22    C     0.06265   0.17172   0.49792   0.00000  Uiso   1.00
C23    C     0.09636   0.16407   0.02293   0.00000  Uiso   1.00
C24    C     0.15448   0.14271   0.43643   0.00000  Uiso   1.00
C25    C     0.18113   0.14867   0.01367   0.00000  Uiso   1.00
C26    C     0.22542   0.12893   0.48370   0.00000  Uiso   1.00
C27    C     0.23208   0.11311   0.43100   0.00000  Uiso   1.00
C28    C     0.19655   0.12006   0.40825   0.00000  Uiso   1.00
C29    C     0.17581   0.16647   0.06415   0.00000  Uiso   1.00
C30    C     0.25273   0.13989   0.06087   0.00000  Uiso   1.00
H31    H     0.27917   0.13428   0.08016   0.00000  Uiso   1.00
H32    H     0.08406   0.16680   0.06668   0.00000  Uiso   1.00
H33    H     0.02656   0.18111   0.02203   0.00000  Uiso   1.00
H34    H     0.20162   0.10704   0.36836   0.00000  Uiso   1.00
H35    H     0.25894   0.04548   0.34005   0.00000  Uiso   1.00
H36    H     0.09691   0.25743   0.41961   0.00000  Uiso   1.00
H37    H     0.16417   0.04178   0.33284   0.00000  Uiso   1.00
H38    H     0.16773   0.03737   0.16732   0.00000  Uiso   1.00
H39    H     0.30819   0.11897   0.18992   0.00000  Uiso   1.00
H40    H     0.02435   0.21423   0.31072   0.00000  Uiso   1.00
H41    H     0.27376   0.21406   0.31086   0.00000  Uiso   1.00
H42    H     0.29538   0.11071   0.48702   0.00000  Uiso   1.00
H43    H     0.14478   0.18523   0.08561   0.00000  Uiso   1.00
H44    H     0.05088   0.17942   0.42260   0.00000  Uiso   1.00
N45    N     0.04760   0.16668   0.25002   0.00000  Uiso   1.00
N46    N     0.28573   0.16665   0.25001   0.00000  Uiso   1.00
O47    O     0.12846   0.22775   0.25001   0.00000  Uiso   1.00
O48    O     0.29268   0.04885   0.42142   0.00000  Uiso   1.00
O49    O     0.28094   0.07002   0.33124   0.00000  Uiso   1.00
O50    O     0.19875   0.25956   0.35529   0.00000  Uiso   1.00
O51    O     0.15498   0.32077   0.40495   0.00000  Uiso   1.00
O52    O     0.10616   0.26052   0.37977   0.00000  Uiso   1.00
O53    O     0.20490   0.22774   0.25001   0.00000  Uiso   1.00
O54    O     0.10947   0.16666   0.32681   0.00000  Uiso   1.00
O55    O     0.18591   0.16665   0.32681   0.00000  Uiso   1.00
O56    O     0.12843   0.10559   0.25000   0.00000  Uiso   1.00
O57    O     0.20488   0.10558   0.25000   0.00000  Uiso   1.00
O58    O     0.14742   0.16668   0.17319   0.00000  Uiso   1.00
O59    O     0.22387   0.16667   0.17319   0.00000  Uiso   1.00
O60    O     0.32719   0.11542   0.38021   0.00000  Uiso   1.00
S61    S     0.28485   0.08627   0.39110   0.00000  Uiso   1.00
S62    S     0.15744   0.28850   0.36150   0.00000  Uiso   1.00
Zn63   Zn    0.11562   0.16667   0.25000   0.00000  Uiso   1.00
Zn64   Zn    0.21771   0.16666   0.25000   0.00000  Uiso   1.00
Br65   Br    0.50357   0.28126   0.13845   0.00000  Uiso   1.00
Br66   Br    0.40941   0.10050   0.16855   0.00000  Uiso   1.00
C67    C     0.49977   0.24659   0.25130   0.00000  Uiso   1.00
C68    C     0.45618   0.15710   0.41055   0.00000  Uiso   1.00
C69    C     0.49806   0.31326   0.29898   0.00000  Uiso   1.00
C70    C     0.47343   0.16350   0.35191   0.00000  Uiso   1.00
C71    C     0.49877   0.02321   0.29733   0.00000  Uiso   1.00
C72    C     0.49960   0.04289   0.25007   0.00000  Uiso   1.00
C73    C     0.50026   0.02094   0.20362   0.00000  Uiso   1.00
C74    C     0.50084   0.31111   0.20387   0.00000  Uiso   1.00
C75    C     0.49989   0.29085   0.25149   0.00000  Uiso   1.00
C76    C     0.65215   0.14014   0.21657   0.00000  Uiso   1.00
C77    C     0.36656   0.13989   0.21653   0.00000  Uiso   1.00
C78    C     0.47716   0.15182   0.49179   0.00000  Uiso   1.00
C79    C     0.34749   0.19310   0.28371   0.00000  Uiso   1.00
C80    C     0.63294   0.19301   0.28375   0.00000  Uiso   1.00
C81    C     0.50002   0.08683   0.24940   0.00000  Uiso   1.00
C82    C     0.52663   0.16624   0.14777   0.00000  Uiso   1.00
C83    C     0.59460   0.12551   0.00783   0.00000  Uiso   1.00
C84    C     0.54264   0.15957   0.08932   0.00000  Uiso   1.00
C85    C     0.40958   0.16976   0.44171   0.00000  Uiso   1.00
C86    C     0.39598   0.17172   0.49792   0.00000  Uiso   1.00
C87    C     0.42969   0.16407   0.02293   0.00000  Uiso   1.00
C88    C     0.48781   0.14271   0.43643   0.00000  Uiso   1.00
C89    C     0.51446   0.14867   0.01367   0.00000  Uiso   1.00
C90    C     0.55875   0.12893   0.48370   0.00000  Uiso   1.00
C91    C     0.56542   0.11311   0.43100   0.00000  Uiso   1.00
C92    C     0.52988   0.12006   0.40825   0.00000  Uiso   1.00
C93    C     0.50914   0.16647   0.06415   0.00000  Uiso   1.00
C94    C     0.58607   0.13989   0.06087   0.00000  Uiso   1.00
H95    H     0.61250   0.13428   0.08016   0.00000  Uiso   1.00
H96    H     0.41740   0.16680   0.06668   0.00000  Uiso   1.00
H97    H     0.35989   0.18111   0.02203   0.00000  Uiso   1.00
H98    H     0.53495   0.10704   0.36836   0.00000  Uiso   1.00
H99    H     0.59227   0.04548   0.34005   0.00000  Uiso   1.00
H100   H     0.43025   0.25743   0.41961   0.00000  Uiso   1.00
H101   H     0.49750   0.04178   0.33284   0.00000  Uiso   1.00
H102   H     0.50106   0.03737   0.16732   0.00000  Uiso   1.00
H103   H     0.64152   0.11897   0.18992   0.00000  Uiso   1.00
H104   H     0.35768   0.21423   0.31072   0.00000  Uiso   1.00
H105   H     0.60710   0.21406   0.31086   0.00000  Uiso   1.00
H106   H     0.62871   0.11071   0.48702   0.00000  Uiso   1.00
H107   H     0.47812   0.18523   0.08561   0.00000  Uiso   1.00
H108   H     0.38421   0.17942   0.42260   0.00000  Uiso   1.00
N109   N     0.38093   0.16668   0.25002   0.00000  Uiso   1.00
N110   N     0.61906   0.16665   0.25001   0.00000  Uiso   1.00
O111   O     0.46179   0.22775   0.25001   0.00000  Uiso   1.00
O112   O     0.62601   0.04885   0.42142   0.00000  Uiso   1.00
O113   O     0.61427   0.07002   0.33124   0.00000  Uiso   1.00
O114   O     0.53208   0.25956   0.35529   0.00000  Uiso   1.00
O115   O     0.48832   0.32077   0.40495   0.00000  Uiso   1.00
O116   O     0.43949   0.26052   0.37977   0.00000  Uiso   1.00
O117   O     0.53823   0.22774   0.25001   0.00000  Uiso   1.00
O118   O     0.44280   0.16666   0.32681   0.00000  Uiso   1.00
O119   O     0.51924   0.16665   0.32681   0.00000  Uiso   1.00
O120   O     0.46177   0.10559   0.25000   0.00000  Uiso   1.00
O121   O     0.53821   0.10558   0.25000   0.00000  Uiso   1.00
O122   O     0.48076   0.16668   0.17319   0.00000  Uiso   1.00
O123   O     0.55720   0.16667   0.17319   0.00000  Uiso   1.00
O124   O     0.66052   0.11542   0.38021   0.00000  Uiso   1.00
S125   S     0.61819   0.08627   0.39110   0.00000  Uiso   1.00
S126   S     0.49078   0.28850   0.36150   0.00000  Uiso   1.00
Zn127  Zn    0.44896   0.16667   0.25000   0.00000  Uiso   1.00
Zn128  Zn    0.55104   0.16666   0.25000   0.00000  Uiso   1.00
Br129  Br    0.83690   0.28126   0.13845   0.00000  Uiso   1.00
Br130  Br    0.74275   0.10050   0.16855   0.00000  Uiso   1.00
C131   C     0.83310   0.24659   0.25130   0.00000  Uiso   1.00
C132   C     0.78951   0.15710   0.41055   0.00000  Uiso   1.00
C133   C     0.83140   0.31326   0.29898   0.00000  Uiso   1.00
C134   C     0.80677   0.16350   0.35191   0.00000  Uiso   1.00
C135   C     0.83210   0.02321   0.29733   0.00000  Uiso   1.00
C136   C     0.83294   0.04289   0.25007   0.00000  Uiso   1.00
C137   C     0.83359   0.02094   0.20362   0.00000  Uiso   1.00
C138   C     0.83418   0.31111   0.20387   0.00000  Uiso   1.00
C139   C     0.83322   0.29085   0.25149   0.00000  Uiso   1.00
C140   C     0.98549   0.14014   0.21657   0.00000  Uiso   1.00
C141   C     0.69990   0.13989   0.21653   0.00000  Uiso   1.00
C142   C     0.81050   0.15182   0.49179   0.00000  Uiso   1.00
C143   C     0.68082   0.19310   0.28371   0.00000  Uiso   1.00
C144   C     0.96628   0.19301   0.28375   0.00000  Uiso   1.00
C145   C     0.83335   0.08683   0.24940   0.00000  Uiso   1.00
C146   C     0.85996   0.16624   0.14777   0.00000  Uiso   1.00
C147   C     0.92793   0.12551   0.00783   0.00000  Uiso   1.00
C148   C     0.87597   0.15957   0.08932   0.00000  Uiso   1.00
C149   C     0.74291   0.16976   0.44171   0.00000  Uiso   1.00
C150   C     0.72932   0.17172   0.49792   0.00000  Uiso   1.00
C151   C     0.76302   0.16407   0.02293   0.00000  Uiso   1.00
C152   C     0.82114   0.14271   0.43643   0.00000  Uiso   1.00
C153   C     0.84779   0.14867   0.01367   0.00000  Uiso   1.00
C154   C     0.89209   0.12893   0.48370   0.00000  Uiso   1.00
C155   C     0.89875   0.11311   0.43100   0.00000  Uiso   1.00
C156   C     0.86321   0.12006   0.40825   0.00000  Uiso   1.00
C157   C     0.84248   0.16647   0.06415   0.00000  Uiso   1.00
C158   C     0.91940   0.13989   0.06087   0.00000  Uiso   1.00
H159   H     0.94584   0.13428   0.08016   0.00000  Uiso   1.00
H160   H     0.75073   0.16680   0.06668   0.00000  Uiso   1.00
H161   H     0.69323   0.18111   0.02203   0.00000  Uiso   1.00
H162   H     0.86829   0.10704   0.36836   0.00000  Uiso   1.00
H163   H     0.92561   0.04548   0.34005   0.00000  Uiso   1.00
H164   H     0.76358   0.25743   0.41961   0.00000  Uiso   1.00
H165   H     0.83084   0.04178   0.33284   0.00000  Uiso   1.00
H166   H     0.83439   0.03737   0.16732   0.00000  Uiso   1.00
H167   H     0.97485   0.11897   0.18992   0.00000  Uiso   1.00
H168   H     0.69102   0.21423   0.31072   0.00000  Uiso   1.00
H169   H     0.94043   0.21406   0.31086   0.00000  Uiso   1.00
H170   H     0.96204   0.11071   0.48702   0.00000  Uiso   1.00
H171   H     0.81145   0.18523   0.08561   0.00000  Uiso   1.00
H172   H     0.71754   0.17942   0.42260   0.00000  Uiso   1.00
N173   N     0.71426   0.16668   0.25002   0.00000  Uiso   1.00
N174   N     0.95239   0.16665   0.25001   0.00000  Uiso   1.00
O175   O     0.79512   0.22775   0.25001   0.00000  Uiso   1.00
O176   O     0.95934   0.04885   0.42142   0.00000  Uiso   1.00
O177   O     0.94760   0.07002   0.33124   0.00000  Uiso   1.00
O178   O     0.86542   0.25956   0.35529   0.00000  Uiso   1.00
O179   O     0.82165   0.32077   0.40495   0.00000  Uiso   1.00
O180   O     0.77283   0.26052   0.37977   0.00000  Uiso   1.00
O181   O     0.87157   0.22774   0.25001   0.00000  Uiso   1.00
O182   O     0.77613   0.16666   0.32681   0.00000  Uiso   1.00
O183   O     0.85258   0.16665   0.32681   0.00000  Uiso   1.00
O184   O     0.79510   0.10559   0.25000   0.00000  Uiso   1.00
O185   O     0.87154   0.10558   0.25000   0.00000  Uiso   1.00
O186   O     0.81409   0.16668   0.17319   0.00000  Uiso   1.00
O187   O     0.89053   0.16667   0.17319   0.00000  Uiso   1.00
O188   O     0.99385   0.11542   0.38021   0.00000  Uiso   1.00
S189   S     0.95152   0.08627   0.39110   0.00000  Uiso   1.00
S190   S     0.82411   0.28850   0.36150   0.00000  Uiso   1.00
Zn191  Zn    0.78229   0.16667   0.25000   0.00000  Uiso   1.00
Zn192  Zn    0.88438   0.16666   0.25000   0.00000  Uiso   1.00
Br193  Br    0.17023   0.61459   0.13845   0.00000  Uiso   1.00
Br194  Br    0.07608   0.43384   0.16855   0.00000  Uiso   1.00
C195   C     0.16644   0.57993   0.25130   0.00000  Uiso   1.00
C196   C     0.12285   0.49043   0.41055   0.00000  Uiso   1.00
C197   C     0.16473   0.64659   0.29898   0.00000  Uiso   1.00
C198   C     0.14010   0.49684   0.35191   0.00000  Uiso   1.00
C199   C     0.16543   0.35654   0.29733   0.00000  Uiso   1.00
C200   C     0.16627   0.37623   0.25007   0.00000  Uiso   1.00
C201   C     0.16692   0.35428   0.20362   0.00000  Uiso   1.00
C202   C     0.16751   0.64444   0.20387   0.00000  Uiso   1.00
C203   C     0.16656   0.62418   0.25149   0.00000  Uiso   1.00
C204   C     0.31882   0.47347   0.21657   0.00000  Uiso   1.00
C205   C     0.03323   0.47322   0.21653   0.00000  Uiso   1.00
C206   C     0.14383   0.48516   0.49179   0.00000  Uiso   1.00
C207   C     0.01416   0.52643   0.28371   0.00000  Uiso   1.00
C208   C     0.29961   0.52635   0.28375   0.00000  Uiso   1.00
C209   C     0.16668   0.42016   0.24940   0.00000  Uiso   1.00
C210   C     0.19329   0.49957   0.14777   0.00000  Uiso   1.00
C211   C     0.26126   0.45884   0.00783   0.00000  Uiso   1.00
C212   C     0.20930   0.49291   0.08932   0.00000  Uiso   1.00
C213   C     0.07625   0.50309   0.44171   0.00000  Uiso   1.00
C214   C     0.06265   0.50505   0.49792   0.00000  Uiso   1.00
C215   C     0.09636   0.49740   0.02293   0.00000  Uiso   1.00
C216   C     0.15448   0.47604   0.43643   0.00000  Uiso   1.00
C217   C     0.18113   0.48200   0.01367   0.00000  Uiso   1.00
C218   C     0.22542   0.46227   0.48370   0.00000  Uiso   1.00
C219   C     0.23208   0.44644   0.43100   0.00000  Uiso   1.00
C220   C     0.19655   0.45339   0.40825   0.00000  Uiso   1.00
C221   C     0.17581   0.49981   0.06415   0.00000  Uiso   1.00
C222   C     0.25273   0.47322   0.06087   0.00000  Uiso   1.00
H223   H     0.27917   0.46761   0.08016   0.00000  Uiso   1.00
H224   H     0.08406   0.50013   0.06668   0.00000  Uiso   1.00
H225   H     0.02656   0.51444   0.02203   0.00000  Uiso   1.00
H226   H     0.20162   0.44038   0.36836   0.00000  Uiso   1.00
H227   H     0.25894   0.37882   0.34005   0.00000  Uiso   1.00
H228   H     0.09691   0.59077   0.41961   0.00000  Uiso   1.00
H229   H     0.16417   0.37512   0.33284   0.00000  Uiso   1.00
H230   H     0.16773   0.37070   0.16732   0.00000  Uiso   1.00
H231   H     0.30819   0.45231   0.18992   0.00000  Uiso   1.00
H232   H     0.02435   0.54756   0.31072   0.00000  Uiso   1.00
H233   H     0.27376   0.54740   0.31086   0.00000  Uiso   1.00
H234   H     0.29538   0.44404   0.48702   0.00000  Uiso   1.00
H235   H     0.14478   0.51857   0.08561   0.00000  Uiso   1.00
H236   H     0.05088   0.51275   0.42260   0.00000  Uiso   1.00
N237   N     0.04760   0.50001   0.25002   0.00000  Uiso   1.00
N238   N     0.28573   0.49998   0.25001   0.00000  Uiso   1.00
O239   O     0.12846   0.56108   0.25001   0.00000  Uiso   1.00
O240   O     0.29268   0.38218   0.42142   0.00000  Uiso   1.00
O241   O     0.28094   0.40335   0.33124   0.00000  Uiso   1.00
O242   O     0.19875   0.59289   0.35529   0.00000  Uiso   1.00
O243   O     0.15498   0.65411   0.40495   0.00000  Uiso   1.00
O244   O     0.10616   0.59385   0.37977   0.00000  Uiso   1.00
O245   O     0.20490   0.56107   0.25001   0.00000  Uiso   1.00
O246   O     0.10947   0.50000   0.32681   0.00000  Uiso   1.00
O247   O     0.18591   0.49999   0.32681   0.00000  Uiso   1.00
O248   O     0.12843   0.43893   0.25000   0.00000  Uiso   1.00
O249   O     0.20488   0.43892   0.25000   0.00000  Uiso   1.00
O250   O     0.14742   0.50001   0.17319   0.00000  Uiso   1.00
O251   O     0.22387   0.50000   0.17319   0.00000  Uiso   1.00
O252   O     0.32719   0.44876   0.38021   0.00000  Uiso   1.00
S253   S     0.28485   0.41961   0.39110   0.00000  Uiso   1.00
S254   S     0.15744   0.62183   0.36150   0.00000  Uiso   1.00
Zn255  Zn    0.11562   0.50001   0.25000   0.00000  Uiso   1.00
Zn256  Zn    0.21771   0.49999   0.25000   0.00000  Uiso   1.00
Br257  Br    0.50357   0.61459   0.13845   0.00000  Uiso   1.00
Br258  Br    0.40941   0.43384   0.16855   0.00000  Uiso   1.00
C259   C     0.49977   0.57993   0.25130   0.00000  Uiso   1.00
C260   C     0.45618   0.49043   0.41055   0.00000  Uiso   1.00
C261   C     0.49806   0.64659   0.29898   0.00000  Uiso   1.00
C262   C     0.47343   0.49684   0.35191   0.00000  Uiso   1.00
C263   C     0.49877   0.35654   0.29733   0.00000  Uiso   1.00
C264   C     0.49960   0.37623   0.25007   0.00000  Uiso   1.00
C265   C     0.50026   0.35428   0.20362   0.00000  Uiso   1.00
C266   C     0.50084   0.64444   0.20387   0.00000  Uiso   1.00
C267   C     0.49989   0.62418   0.25149   0.00000  Uiso   1.00
C268   C     0.65215   0.47347   0.21657   0.00000  Uiso   1.00
C269   C     0.36656   0.47322   0.21653   0.00000  Uiso   1.00
C270   C     0.47716   0.48516   0.49179   0.00000  Uiso   1.00
C271   C     0.34749   0.52643   0.28371   0.00000  Uiso   1.00
C272   C     0.63294   0.52635   0.28375   0.00000  Uiso   1.00
C273   C     0.50002   0.42016   0.24940   0.00000  Uiso   1.00
C274   C     0.52663   0.49957   0.14777   0.00000  Uiso   1.00
C275   C     0.59460   0.45884   0.00783   0.00000  Uiso   1.00
C276   C     0.54264   0.49291   0.08932   0.00000  Uiso   1.00
C277   C     0.40958   0.50309   0.44171   0.00000  Uiso   1.00
C278   C     0.39598   0.50505   0.49792   0.00000  Uiso   1.00
C279   C     0.42969   0.49740   0.02293   0.00000  Uiso   1.00
C280   C     0.48781   0.47604   0.43643   0.00000  Uiso   1.00
C281   C     0.51446   0.48200   0.01367   0.00000  Uiso   1.00
C282   C     0.55875   0.46227   0.48370   0.00000  Uiso   1.00
C283   C     0.56542   0.44644   0.43100   0.00000  Uiso   1.00
C284   C     0.52988   0.45339   0.40825   0.00000  Uiso   1.00
C285   C     0.50914   0.49981   0.06415   0.00000  Uiso   1.00
C286   C     0.58607   0.47322   0.06087   0.00000  Uiso   1.00
H287   H     0.61250   0.46761   0.08016   0.00000  Uiso   1.00
H288   H     0.41740   0.50013   0.06668   0.00000  Uiso   1.00
H289   H     0.35989   0.51444   0.02203   0.00000  Uiso   1.00
H290   H     0.53495   0.44038   0.36836   0.00000  Uiso   1.00
H291   H     0.59227   0.37882   0.34005   0.00000  Uiso   1.00
H292   H     0.43025   0.59077   0.41961   0.00000  Uiso   1.00
H293   H     0.49750   0.37512   0.33284   0.00000  Uiso   1.00
H294   H     0.50106   0.37070   0.16732   0.00000  Uiso   1.00
H295   H     0.64152   0.45231   0.18992   0.00000  Uiso   1.00
H296   H     0.35768   0.54756   0.31072   0.00000  Uiso   1.00
H297   H     0.60710   0.54740   0.31086   0.00000  Uiso   1.00
H298   H     0.62871   0.44404   0.48702   0.00000  Uiso   1.00
H299   H     0.47812   0.51857   0.08561   0.00000  Uiso   1.00
H300   H     0.38421   0.51275   0.42260   0.00000  Uiso   1.00
N301   N     0.38093   0.50001   0.25002   0.00000  Uiso   1.00
N302   N     0.61906   0.49998   0.25001   0.00000  Uiso   1.00
O303   O     0.46179   0.56108   0.25001   0.00000  Uiso   1.00
O304   O     0.62601   0.38218   0.42142   0.00000  Uiso   1.00
O305   O     0.61427   0.40335   0.33124   0.00000  Uiso   1.00
O306   O     0.53208   0.59289   0.35529   0.00000  Uiso   1.00
O307   O     0.48832   0.65411   0.40495   0.00000  Uiso   1.00
O308   O     0.43949   0.59385   0.37977   0.00000  Uiso   1.00
O309   O     0.53823   0.56107   0.25001   0.00000  Uiso   1.00
O310   O     0.44280   0.50000   0.32681   0.00000  Uiso   1.00
O311   O     0.51924   0.49999   0.32681   0.00000  Uiso   1.00
O312   O     0.46177   0.43893   0.25000   0.00000  Uiso   1.00
O313   O     0.53821   0.43892   0.25000   0.00000  Uiso   1.00
O314   O     0.48076   0.50001   0.17319   0.00000  Uiso   1.00
O315   O     0.55720   0.50000   0.17319   0.00000  Uiso   1.00
O316   O     0.66052   0.44876   0.38021   0.00000  Uiso   1.00
S317   S     0.61819   0.41961   0.39110   0.00000  Uiso   1.00
S318   S     0.49078   0.62183   0.36150   0.00000  Uiso   1.00
Zn319  Zn    0.44896   0.50001   0.25000   0.00000  Uiso   1.00
Zn320  Zn    0.55104   0.49999   0.25000   0.00000  Uiso   1.00
Br321  Br    0.83690   0.61459   0.13845   0.00000  Uiso   1.00
Br322  Br    0.74275   0.43384   0.16855   0.00000  Uiso   1.00
C323   C     0.83310   0.57993   0.25130   0.00000  Uiso   1.00
C324   C     0.78951   0.49043   0.41055   0.00000  Uiso   1.00
C325   C     0.83140   0.64659   0.29898   0.00000  Uiso   1.00
C326   C     0.80677   0.49684   0.35191   0.00000  Uiso   1.00
C327   C     0.83210   0.35654   0.29733   0.00000  Uiso   1.00
C328   C     0.83294   0.37623   0.25007   0.00000  Uiso   1.00
C329   C     0.83359   0.35428   0.20362   0.00000  Uiso   1.00
C330   C     0.83418   0.64444   0.20387   0.00000  Uiso   1.00
C331   C     0.83322   0.62418   0.25149   0.00000  Uiso   1.00
C332   C     0.98549   0.47347   0.21657   0.00000  Uiso   1.00
C333   C     0.69990   0.47322   0.21653   0.00000  Uiso   1.00
C334   C     0.81050   0.48516   0.49179   0.00000  Uiso   1.00
C335   C     0.68082   0.52643   0.28371   0.00000  Uiso   1.00
C336   C     0.96628   0.52635   0.28375   0.00000  Uiso   1.00
C337   C     0.83335   0.42016   0.24940   0.00000  Uiso   1.00
C338   C     0.85996   0.49957   0.14777   0.00000  Uiso   1.00
C339   C     0.92793   0.45884   0.00783   0.00000  Uiso   1.00
C340   C     0.87597   0.49291   0.08932   0.00000  Uiso   1.00
C341   C     0.74291   0.50309   0.44171   0.00000  Uiso   1.00
C342   C     0.72932   0.50505   0.49792   0.00000  Uiso   1.00
C343   C     0.76302   0.49740   0.02293   0.00000  Uiso   1.00
C344   C     0.82114   0.47604   0.43643   0.00000  Uiso   1.00
C345   C     0.84779   0.48200   0.01367   0.00000  Uiso   1.00
C346   C     0.89209   0.46227   0.48370   0.00000  Uiso   1.00
C347   C     0.89875   0.44644   0.43100   0.00000  Uiso   1.00
C348   C     0.86321   0.45339   0.40825   0.00000  Uiso   1.00
C349   C     0.84248   0.49981   0.06415   0.00000  Uiso   1.00
C350   C     0.91940   0.47322   0.06087   0.00000  Uiso   1.00
H351   H     0.94584   0.46761   0.08016   0.00000  Uiso   1.00
H352   H     0.75073   0.50013   0.06668   0.00000  Uiso   1.00
H353   H     0.69323   0.51444   0.02203   0.00000  Uiso   1.00
H354   H     0.86829   0.44038   0.36836   0.00000  Uiso   1.00
H355   H     0.92561   0.37882   0.34005   0.00000  Uiso   1.00
H356   H     0.76358   0.59077   0.41961   0.00000  Uiso   1.00
H357   H     0.83084   0.37512   0.33284   0.00000  Uiso   1.00
H358   H     0.83439   0.37070   0.16732   0.00000  Uiso   1.00
H359   H     0.97485   0.45231   0.18992   0.00000  Uiso   1.00
H360   H     0.69102   0.54756   0.31072   0.00000  Uiso   1.00
H361   H     0.94043   0.54740   0.31086   0.00000  Uiso   1.00
H362   H     0.96204   0.44404   0.48702   0.00000  Uiso   1.00
H363   H     0.81145   0.51857   0.08561   0.00000  Uiso   1.00
H364   H     0.71754   0.51275   0.42260   0.00000  Uiso   1.00
N365   N     0.71426   0.50001   0.25002   0.00000  Uiso   1.00
N366   N     0.95239   0.49998   0.25001   0.00000  Uiso   1.00
O367   O     0.79512   0.56108   0.25001   0.00000  Uiso   1.00
O368   O     0.95934   0.38218   0.42142   0.00000  Uiso   1.00
O369   O     0.94760   0.40335   0.33124   0.00000  Uiso   1.00
O370   O     0.86542   0.59289   0.35529   0.00000  Uiso   1.00
O371   O     0.82165   0.65411   0.40495   0.00000  Uiso   1.00
O372   O     0.77283   0.59385   0.37977   0.00000  Uiso   1.00
O373   O     0.87157   0.56107   0.25001   0.00000  Uiso   1.00
O374   O     0.77613   0.50000   0.32681   0.00000  Uiso   1.00
O375   O     0.85258   0.49999   0.32681   0.00000  Uiso   1.00
O376   O     0.79510   0.43893   0.25000   0.00000  Uiso   1.00
O377   O     0.87154   0.43892   0.25000   0.00000  Uiso   1.00
O378   O     0.81409   0.50001   0.17319   0.00000  Uiso   1.00
O379   O     0.89053   0.50000   0.17319   0.00000  Uiso   1.00
O380   O     0.99385   0.44876   0.38021   0.00000  Uiso   1.00
S381   S     0.95152   0.41961   0.39110   0.00000  Uiso   1.00
S382   S     0.82411   0.62183   0.36150   0.00000  Uiso   1.00
Zn383  Zn    0.78229   0.50001   0.25000   0.00000  Uiso   1.00
Zn384  Zn    0.88438   0.49999   0.25000   0.00000  Uiso   1.00
Br385  Br    0.17023   0.94792   0.13845   0.00000  Uiso   1.00
Br386  Br    0.07608   0.76717   0.16855   0.00000  Uiso   1.00
C387   C     0.16644   0.91326   0.25130   0.00000  Uiso   1.00
C388   C     0.12285   0.82377   0.41055   0.00000  Uiso   1.00
C389   C     0.16473   0.97992   0.29898   0.00000  Uiso   1.00
C390   C     0.14010   0.83017   0.35191   0.00000  Uiso   1.00
C391   C     0.16543   0.68987   0.29733   0.00000  Uiso   1.00
C392   C     0.16627   0.70956   0.25007   0.00000  Uiso   1.00
C393   C     0.16692   0.68761   0.20362   0.00000  Uiso   1.00
C394   C     0.16751   0.97777   0.20387   0.00000  Uiso   1.00
C395   C     0.16656   0.95752   0.25149   0.00000  Uiso   1.00
C396   C     0.31882   0.80681   0.21657   0.00000  Uiso   1.00
C397   C     0.03323   0.80656   0.21653   0.00000  Uiso   1.00
C398   C     0.14383   0.81849   0.49179   0.00000  Uiso   1.00
C399   C     0.01416   0.85976   0.28371   0.00000  Uiso   1.00
C400   C     0.29961   0.85968   0.28375   0.00000  Uiso   1.00
C401   C     0.16668   0.75349   0.24940   0.00000  Uiso   1.00
C402   C     0.19329   0.83290   0.14777   0.00000  Uiso   1.00
C403   C     0.26126   0.79217   0.00783   0.00000  Uiso   1.00
C404   C     0.20930   0.82624   0.08932   0.00000  Uiso   1.00
C405   C     0.07625   0.83642   0.44171   0.00000  Uiso   1.00
C406   C     0.06265   0.83839   0.49792   0.00000  Uiso   1.00
C407   C     0.09636   0.83073   0.02293   0.00000  Uiso   1.00
C408   C     0.15448   0.80938   0.43643   0.00000  Uiso   1.00
C409   C     0.18113   0.81534   0.01367   0.00000  Uiso   1.00
C410   C     0.22542   0.79560   0.48370   0.00000  Uiso   1.00
C411   C     0.23208   0.77977   0.43100   0.00000  Uiso   1.00
C412   C     0.19655   0.78673   0.40825   0.00000  Uiso   1.00
C413   C     0.17581   0.83314   0.06415   0.00000  Uiso   1.00
C414   C     0.25273   0.80656   0.06087   0.00000  Uiso   1.00
H415   H     0.27917   0.80095   0.08016   0.00000  Uiso   1.00
H416   H     0.08406   0.83347   0.06668   0.00000  Uiso   1.00
H417   H     0.02656   0.84778   0.02203   0.00000  Uiso   1.00
H418   H     0.20162   0.77371   0.36836   0.00000  Uiso   1.00
H419   H     0.25894   0.71215   0.34005   0.00000  Uiso   1.00
H420   H     0.09691   0.92410   0.41961   0.00000  Uiso   1.00
H421   H     0.16417   0.70845   0.33284   0.00000  Uiso   1.00
H422   H     0.16773   0.70404   0.16732   0.00000  Uiso   1.00
H423   H     0.30819   0.78564   0.18992   0.00000  Uiso   1.00
H424   H     0.02435   0.88090   0.31072   0.00000  Uiso   1.00
H425   H     0.27376   0.88073   0.31086   0.00000  Uiso   1.00
H426   H     0.29538   0.77738   0.48702   0.00000  Uiso   1.00
H427   H     0.14478   0.85190   0.08561   0.00000  Uiso   1.00
H428   H     0.05088   0.84609   0.42260   0.00000  Uiso   1.00
N429   N     0.04760   0.83334   0.25002   0.00000  Uiso   1.00
N430   N     0.28573   0.83331   0.25001   0.00000  Uiso   1.00
O431   O     0.12846   0.89442   0.25001   0.00000  Uiso   1.00
O432   O     0.29268   0.71551   0.42142   0.00000  Uiso   1.00
O433   O     0.28094   0.73669   0.33124   0.00000  Uiso   1.00
O434   O     0.19875   0.92622   0.35529   0.00000  Uiso   1.00
O435   O     0.15498   0.98744   0.40495   0.00000  Uiso   1.00
O436   O     0.10616   0.92719   0.37977   0.00000  Uiso   1.00
O437   O     0.20490   0.89441   0.25001   0.00000  Uiso   1.00
O438   O     0.10947   0.83333   0.32681   0.00000  Uiso   1.00
O439   O     0.18591   0.83332   0.32681   0.00000  Uiso   1.00
O440   O     0.12843   0.77226   0.25000   0.00000  Uiso   1.00
O441   O     0.20488   0.77225   0.25000   0.00000  Uiso   1.00
O442   O     0.14742   0.83335   0.17319   0.00000  Uiso   1.00
O443   O     0.22387   0.83334   0.17319   0.00000  Uiso   1.00
O444   O     0.32719   0.78209   0.38021   0.00000  Uiso   1.00
S445   S     0.28485   0.75294   0.39110   0.00000  Uiso   1.00
S446   S     0.15744   0.95517   0.36150   0.00000  Uiso   1.00
Zn447  Zn    0.11562   0.83334   0.25000   0.00000  Uiso   1.00
Zn448  Zn    0.21771   0.83333   0.25000   0.00000  Uiso   1.00
Br449  Br    0.50357   0.94792   0.13845   0.00000  Uiso   1.00
Br450  Br    0.40941   0.76717   0.16855   0.00000  Uiso   1.00
C451   C     0.49977   0.91326   0.25130   0.00000  Uiso   1.00
C452   C     0.45618   0.82377   0.41055   0.00000  Uiso   1.00
C453   C     0.49806   0.97992   0.29898   0.00000  Uiso   1.00
C454   C     0.47343   0.83017   0.35191   0.00000  Uiso   1.00
C455   C     0.49877   0.68987   0.29733   0.00000  Uiso   1.00
C456   C     0.49960   0.70956   0.25007   0.00000  Uiso   1.00
C457   C     0.50026   0.68761   0.20362   0.00000  Uiso   1.00
C458   C     0.50084   0.97777   0.20387   0.00000  Uiso   1.00
C459   C     0.49989   0.95752   0.25149   0.00000  Uiso   1.00
C460   C     0.65215   0.80681   0.21657   0.00000  Uiso   1.00
C461   C     0.36656   0.80656   0.21653   0.00000  Uiso   1.00
C462   C     0.47716   0.81849   0.49179   0.00000  Uiso   1.00
C463   C     0.34749   0.85976   0.28371   0.00000  Uiso   1.00
C464   C     0.63294   0.85968   0.28375   0.00000  Uiso   1.00
C465   C     0.50002   0.75349   0.24940   0.00000  Uiso   1.00
C466   C     0.52663   0.83290   0.14777   0.00000  Uiso   1.00
C467   C     0.59460   0.79217   0.00783   0.00000  Uiso   1.00
C468   C     0.54264   0.82624   0.08932   0.00000  Uiso   1.00
C469   C     0.40958   0.83642   0.44171   0.00000  Uiso   1.00
C470   C     0.39598   0.83839   0.49792   0.00000  Uiso   1.00
C471   C     0.42969   0.83073   0.02293   0.00000  Uiso   1.00
C472   C     0.48781   0.80938   0.43643   0.00000  Uiso   1.00
C473   C     0.51446   0.81534   0.01367   0.00000  Uiso   1.00
C474   C     0.55875   0.79560   0.48370   0.00000  Uiso   1.00
C475   C     0.56542   0.77977   0.43100   0.00000  Uiso   1.00
C476   C     0.52988   0.78673   0.40825   0.00000  Uiso   1.00
C477   C     0.50914   0.83314   0.06415   0.00000  Uiso   1.00
C478   C     0.58607   0.80656   0.06087   0.00000  Uiso   1.00
H479   H     0.61250   0.80095   0.08016   0.00000  Uiso   1.00
H480   H     0.41740   0.83347   0.06668   0.00000  Uiso   1.00
H481   H     0.35989   0.84778   0.02203   0.00000  Uiso   1.00
H482   H     0.53495   0.77371   0.36836   0.00000  Uiso   1.00
H483   H     0.59227   0.71215   0.34005   0.00000  Uiso   1.00
H484   H     0.43025   0.92410   0.41961   0.00000  Uiso   1.00
H485   H     0.49750   0.70845   0.33284   0.00000  Uiso   1.00
H486   H     0.50106   0.70404   0.16732   0.00000  Uiso   1.00
H487   H     0.64152   0.78564   0.18992   0.00000  Uiso   1.00
H488   H     0.35768   0.88090   0.31072   0.00000  Uiso   1.00
H489   H     0.60710   0.88073   0.31086   0.00000  Uiso   1.00
H490   H     0.62871   0.77738   0.48702   0.00000  Uiso   1.00
H491   H     0.47812   0.85190   0.08561   0.00000  Uiso   1.00
H492   H     0.38421   0.84609   0.42260   0.00000  Uiso   1.00
N493   N     0.38093   0.83334   0.25002   0.00000  Uiso   1.00
N494   N     0.61906   0.83331   0.25001   0.00000  Uiso   1.00
O495   O     0.46179   0.89442   0.25001   0.00000  Uiso   1.00
O496   O     0.62601   0.71551   0.42142   0.00000  Uiso   1.00
O497   O     0.61427   0.73669   0.33124   0.00000  Uiso   1.00
O498   O     0.53208   0.92622   0.35529   0.00000  Uiso   1.00
O499   O     0.48832   0.98744   0.40495   0.00000  Uiso   1.00
O500   O     0.43949   0.92719   0.37977   0.00000  Uiso   1.00
O501   O     0.53823   0.89441   0.25001   0.00000  Uiso   1.00
O502   O     0.44280   0.83333   0.32681   0.00000  Uiso   1.00
O503   O     0.51924   0.83332   0.32681   0.00000  Uiso   1.00
O504   O     0.46177   0.77226   0.25000   0.00000  Uiso   1.00
O505   O     0.53821   0.77225   0.25000   0.00000  Uiso   1.00
O506   O     0.48076   0.83335   0.17319   0.00000  Uiso   1.00
O507   O     0.55720   0.83334   0.17319   0.00000  Uiso   1.00
O508   O     0.66052   0.78209   0.38021   0.00000  Uiso   1.00
S509   S     0.61819   0.75294   0.39110   0.00000  Uiso   1.00
S510   S     0.49078   0.95517   0.36150   0.00000  Uiso   1.00
Zn511  Zn    0.44896   0.83334   0.25000   0.00000  Uiso   1.00
Zn512  Zn    0.55104   0.83333   0.25000   0.00000  Uiso   1.00
Br513  Br    0.83690   0.94792   0.13845   0.00000  Uiso   1.00
Br514  Br    0.74275   0.76717   0.16855   0.00000  Uiso   1.00
C515   C     0.83310   0.91326   0.25130   0.00000  Uiso   1.00
C516   C     0.78951   0.82377   0.41055   0.00000  Uiso   1.00
C517   C     0.83140   0.97992   0.29898   0.00000  Uiso   1.00
C518   C     0.80677   0.83017   0.35191   0.00000  Uiso   1.00
C519   C     0.83210   0.68987   0.29733   0.00000  Uiso   1.00
C520   C     0.83294   0.70956   0.25007   0.00000  Uiso   1.00
C521   C     0.83359   0.68761   0.20362   0.00000  Uiso   1.00
C522   C     0.83418   0.97777   0.20387   0.00000  Uiso   1.00
C523   C     0.83322   0.95752   0.25149   0.00000  Uiso   1.00
C524   C     0.98549   0.80681   0.21657   0.00000  Uiso   1.00
C525   C     0.69990   0.80656   0.21653   0.00000  Uiso   1.00
C526   C     0.81050   0.81849   0.49179   0.00000  Uiso   1.00
C527   C     0.68082   0.85976   0.28371   0.00000  Uiso   1.00
C528   C     0.96628   0.85968   0.28375   0.00000  Uiso   1.00
C529   C     0.83335   0.75349   0.24940   0.00000  Uiso   1.00
C530   C     0.85996   0.83290   0.14777   0.00000  Uiso   1.00
C531   C     0.92793   0.79217   0.00783   0.00000  Uiso   1.00
C532   C     0.87597   0.82624   0.08932   0.00000  Uiso   1.00
C533   C     0.74291   0.83642   0.44171   0.00000  Uiso   1.00
C534   C     0.72932   0.83839   0.49792   0.00000  Uiso   1.00
C535   C     0.76302   0.83073   0.02293   0.00000  Uiso   1.00
C536   C     0.82114   0.80938   0.43643   0.00000  Uiso   1.00
C537   C     0.84779   0.81534   0.01367   0.00000  Uiso   1.00
C538   C     0.89209   0.79560   0.48370   0.00000  Uiso   1.00
C539   C     0.89875   0.77977   0.43100   0.00000  Uiso   1.00
C540   C     0.86321   0.78673   0.40825   0.00000  Uiso   1.00
C541   C     0.84248   0.83314   0.06415   0.00000  Uiso   1.00
C542   C     0.91940   0.80656   0.06087   0.00000  Uiso   1.00
H543   H     0.94584   0.80095   0.08016   0.00000  Uiso   1.00
H544   H     0.75073   0.83347   0.06668   0.00000  Uiso   1.00
H545   H     0.69323   0.84778   0.02203   0.00000  Uiso   1.00
H546   H     0.86829   0.77371   0.36836   0.00000  Uiso   1.00
H547   H     0.92561   0.71215   0.34005   0.00000  Uiso   1.00
H548   H     0.76358   0.92410   0.41961   0.00000  Uiso   1.00
H549   H     0.83084   0.70845   0.33284   0.00000  Uiso   1.00
H550   H     0.83439   0.70404   0.16732   0.00000  Uiso   1.00
H551   H     0.97485   0.78564   0.18992   0.00000  Uiso   1.00
H552   H     0.69102   0.88090   0.31072   0.00000  Uiso   1.00
H553   H     0.94043   0.88073   0.31086   0.00000  Uiso   1.00
H554   H     0.96204   0.77738   0.48702   0.00000  Uiso   1.00
H555   H     0.81145   0.85190   0.08561   0.00000  Uiso   1.00
H556   H     0.71754   0.84609   0.42260   0.00000  Uiso   1.00
N557   N     0.71426   0.83334   0.25002   0.00000  Uiso   1.00
N558   N     0.95239   0.83331   0.25001   0.00000  Uiso   1.00
O559   O     0.79512   0.89442   0.25001   0.00000  Uiso   1.00
O560   O     0.95934   0.71551   0.42142   0.00000  Uiso   1.00
O561   O     0.94760   0.73669   0.33124   0.00000  Uiso   1.00
O562   O     0.86542   0.92622   0.35529   0.00000  Uiso   1.00
O563   O     0.82165   0.98744   0.40495   0.00000  Uiso   1.00
O564   O     0.77283   0.92719   0.37977   0.00000  Uiso   1.00
O565   O     0.87157   0.89441   0.25001   0.00000  Uiso   1.00
O566   O     0.77613   0.83333   0.32681   0.00000  Uiso   1.00
O567   O     0.85258   0.83332   0.32681   0.00000  Uiso   1.00
O568   O     0.79510   0.77226   0.25000   0.00000  Uiso   1.00
O569   O     0.87154   0.77225   0.25000   0.00000  Uiso   1.00
O570   O     0.81409   0.83335   0.17319   0.00000  Uiso   1.00
O571   O     0.89053   0.83334   0.17319   0.00000  Uiso   1.00
O572   O     0.99385   0.78209   0.38021   0.00000  Uiso   1.00
S573   S     0.95152   0.75294   0.39110   0.00000  Uiso   1.00
S574   S     0.82411   0.95517   0.36150   0.00000  Uiso   1.00
Zn575  Zn    0.78229   0.83334   0.25000   0.00000  Uiso   1.00
Zn576  Zn    0.88438   0.83333   0.25000   0.00000  Uiso   1.00
Br577  Br    0.17023   0.28126   0.63845   0.00000  Uiso   1.00
Br578  Br    0.07608   0.10050   0.66855   0.00000  Uiso   1.00
C579   C     0.16644   0.24659   0.75130   0.00000  Uiso   1.00
C580   C     0.12285   0.15710   0.91055   0.00000  Uiso   1.00
C581   C     0.16473   0.31326   0.79898   0.00000  Uiso   1.00
C582   C     0.14010   0.16350   0.85191   0.00000  Uiso   1.00
C583   C     0.16543   0.02321   0.79733   0.00000  Uiso   1.00
C584   C     0.16627   0.04289   0.75007   0.00000  Uiso   1.00
C585   C     0.16692   0.02094   0.70362   0.00000  Uiso   1.00
C586   C     0.16751   0.31111   0.70387   0.00000  Uiso   1.00
C587   C     0.16656   0.29085   0.75149   0.00000  Uiso   1.00
C588   C     0.31882   0.14014   0.71657   0.00000  Uiso   1.00
C589   C     0.03323   0.13989   0.71653   0.00000  Uiso   1.00
C590   C     0.14383   0.15182   0.99179   0.00000  Uiso   1.00
C591   C     0.01416   0.19310   0.78371   0.00000  Uiso   1.00
C592   C     0.29961   0.19301   0.78375   0.00000  Uiso   1.00
C593   C     0.16668   0.08683   0.74940   0.00000  Uiso   1.00
C594   C     0.19329   0.16624   0.64777   0.00000  Uiso   1.00
C595   C     0.26126   0.12551   0.50783   0.00000  Uiso   1.00
C596   C     0.20930   0.15957   0.58932   0.00000  Uiso   1.00
C597   C     0.07625   0.16976   0.94171   0.00000  Uiso   1.00
C598   C     0.06265   0.17172   0.99792   0.00000  Uiso   1.00
C599   C     0.09636   0.16407   0.52293   0.00000  Uiso   1.00
C600   C     0.15448   0.14271   0.93643   0.00000  Uiso   1.00
C601   C     0.18113   0.14867   0.51367   0.00000  Uiso   1.00
C602   C     0.22542   0.12893   0.98370   0.00000  Uiso   1.00
C603   C     0.23208   0.11311   0.93100   0.00000  Uiso   1.00
C604   C     0.19655   0.12006   0.90825   0.00000  Uiso   1.00
C605   C     0.17581   0.16647   0.56415   0.00000  Uiso   1.00
C606   C     0.25273   0.13989   0.56087   0.00000  Uiso   1.00
H607   H     0.27917   0.13428   0.58016   0.00000  Uiso   1.00
H608   H     0.08406   0.16680   0.56668   0.00000  Uiso   1.00
H609   H     0.02656   0.18111   0.52203   0.00000  Uiso   1.00
H610   H     0.20162   0.10704   0.86836   0.00000  Uiso   1.00
H611   H     0.25894   0.04548   0.84005   0.00000  Uiso   1.00
H612   H     0.09691   0.25743   0.91961   0.00000  Uiso   1.00
H613   H     0.16417   0.04178   0.83284   0.00000  Uiso   1.00
H614   H     0.16773   0.03737   0.66732   0.00000  Uiso   1.00
H615   H     0.30819   0.11897   0.68992   0.00000  Uiso   1.00
H616   H     0.02435   0.21423   0.81072   0.00000  Uiso   1.00
H617   H     0.27376   0.21406   0.81086   0.00000  Uiso   1.00
H618   H     0.29538   0.11071   0.98702   0.00000  Uiso   1.00
H619   H     0.14478   0.18523   0.58561   0.00000  Uiso   1.00
H620   H     0.05088   0.17942   0.92260   0.00000  Uiso   1.00
N621   N     0.04760   0.16668   0.75002   0.00000  Uiso   1.00
N622   N     0.28573   0.16665   0.75001   0.00000  Uiso   1.00
O623   O     0.12846   0.22775   0.75001   0.00000  Uiso   1.00
O624   O     0.29268   0.04885   0.92142   0.00000  Uiso   1.00
O625   O     0.28094   0.07002   0.83124   0.00000  Uiso   1.00
O626   O     0.19875   0.25956   0.85529   0.00000  Uiso   1.00
O627   O     0.15498   0.32077   0.90495   0.00000  Uiso   1.00
O628   O     0.10616   0.26052   0.87977   0.00000  Uiso   1.00
O629   O     0.20490   0.22774   0.75001   0.00000  Uiso   1.00
O630   O     0.10947   0.16666   0.82681   0.00000  Uiso   1.00
O631   O     0.18591   0.16665   0.82681   0.00000  Uiso   1.00
O632   O     0.12843   0.10559   0.75000   0.00000  Uiso   1.00
O633   O     0.20488   0.10558   0.75000   0.00000  Uiso   1.00
O634   O     0.14742   0.16668   0.67319   0.00000  Uiso   1.00
O635   O     0.22387   0.16667   0.67319   0.00000  Uiso   1.00
O636   O     0.32719   0.11542   0.88021   0.00000  Uiso   1.00
S637   S     0.28485   0.08627   0.89110   0.00000  Uiso   1.00
S638   S     0.15744   0.28850   0.86150   0.00000  Uiso   1.00
Zn639  Zn    0.11562   0.16667   0.75000   0.00000  Uiso   1.00
Zn640  Zn    0.21771   0.16666   0.75000   0.00000  Uiso   1.00
Br641  Br    0.50357   0.28126   0.63845   0.00000  Uiso   1.00
Br642  Br    0.40941   0.10050   0.66855   0.00000  Uiso   1.00
C643   C     0.49977   0.24659   0.75130   0.00000  Uiso   1.00
C644   C     0.45618   0.15710   0.91055   0.00000  Uiso   1.00
C645   C     0.49806   0.31326   0.79898   0.00000  Uiso   1.00
C646   C     0.47343   0.16350   0.85191   0.00000  Uiso   1.00
C647   C     0.49877   0.02321   0.79733   0.00000  Uiso   1.00
C648   C     0.49960   0.04289   0.75007   0.00000  Uiso   1.00
C649   C     0.50026   0.02094   0.70362   0.00000  Uiso   1.00
C650   C     0.50084   0.31111   0.70387   0.00000  Uiso   1.00
C651   C     0.49989   0.29085   0.75149   0.00000  Uiso   1.00
C652   C     0.65215   0.14014   0.71657   0.00000  Uiso   1.00
C653   C     0.36656   0.13989   0.71653   0.00000  Uiso   1.00
C654   C     0.47716   0.15182   0.99179   0.00000  Uiso   1.00
C655   C     0.34749   0.19310   0.78371   0.00000  Uiso   1.00
C656   C     0.63294   0.19301   0.78375   0.00000  Uiso   1.00
C657   C     0.50002   0.08683   0.74940   0.00000  Uiso   1.00
C658   C     0.52663   0.16624   0.64777   0.00000  Uiso   1.00
C659   C     0.59460   0.12551   0.50783   0.00000  Uiso   1.00
C660   C     0.54264   0.15957   0.58932   0.00000  Uiso   1.00
C661   C     0.40958   0.16976   0.94171   0.00000  Uiso   1.00
C662   C     0.39598   0.17172   0.99792   0.00000  Uiso   1.00
C663   C     0.42969   0.16407   0.52293   0.00000  Uiso   1.00
C664   C     0.48781   0.14271   0.93643   0.00000  Uiso   1.00
C665   C     0.51446   0.14867   0.51367   0.00000  Uiso   1.00
C666   C     0.55875   0.12893   0.98370   0.00000  Uiso   1.00
C667   C     0.56542   0.11311   0.93100   0.00000  Uiso   1.00
C668   C     0.52988   0.12006   0.90825   0.00000  Uiso   1.00
C669   C     0.50914   0.16647   0.56415   0.00000  Uiso   1.00
C670   C     0.58607   0.13989   0.56087   0.00000  Uiso   1.00
H671   H     0.61250   0.13428   0.58016   0.00000  Uiso   1.00
H672   H     0.41740   0.16680   0.56668   0.00000  Uiso   1.00
H673   H     0.35989   0.18111   0.52203   0.00000  Uiso   1.00
H674   H     0.53495   0.10704   0.86836   0.00000  Uiso   1.00
H675   H     0.59227   0.04548   0.84005   0.00000  Uiso   1.00
H676   H     0.43025   0.25743   0.91961   0.00000  Uiso   1.00
H677   H     0.49750   0.04178   0.83284   0.00000  Uiso   1.00
H678   H     0.50106   0.03737   0.66732   0.00000  Uiso   1.00
H679   H     0.64152   0.11897   0.68992   0.00000  Uiso   1.00
H680   H     0.35768   0.21423   0.81072   0.00000  Uiso   1.00
H681   H     0.60710   0.21406   0.81086   0.00000  Uiso   1.00
H682   H     0.62871   0.11071   0.98702   0.00000  Uiso   1.00
H683   H     0.47812   0.18523   0.58561   0.00000  Uiso   1.00
H684   H     0.38421   0.17942   0.92260   0.00000  Uiso   1.00
N685   N     0.38093   0.16668   0.75002   0.00000  Uiso   1.00
N686   N     0.61906   0.16665   0.75001   0.00000  Uiso   1.00
O687   O     0.46179   0.22775   0.75001   0.00000  Uiso   1.00
O688   O     0.62601   0.04885   0.92142   0.00000  Uiso   1.00
O689   O     0.61427   0.07002   0.83124   0.00000  Uiso   1.00
O690   O     0.53208   0.25956   0.85529   0.00000  Uiso   1.00
O691   O     0.48832   0.32077   0.90495   0.00000  Uiso   1.00
O692   O     0.43949   0.26052   0.87977   0.00000  Uiso   1.00
O693   O     0.53823   0.22774   0.75001   0.00000  Uiso   1.00
O694   O     0.44280   0.16666   0.82681   0.00000  Uiso   1.00
O695   O     0.51924   0.16665   0.82681   0.00000  Uiso   1.00
O696   O     0.46177   0.10559   0.75000   0.00000  Uiso   1.00
O697   O     0.53821   0.10558   0.75000   0.00000  Uiso   1.00
O698   O     0.48076   0.16668   0.67319   0.00000  Uiso   1.00
O699   O     0.55720   0.16667   0.67319   0.00000  Uiso   1.00
O700   O     0.66052   0.11542   0.88021   0.00000  Uiso   1.00
S701   S     0.61819   0.08627   0.89110   0.00000  Uiso   1.00
S702   S     0.49078   0.28850   0.86150   0.00000  Uiso   1.00
Zn703  Zn    0.44896   0.16667   0.75000   0.00000  Uiso   1.00
Zn704  Zn    0.55104   0.16666   0.75000   0.00000  Uiso   1.00
Br705  Br    0.83690   0.28126   0.63845   0.00000  Uiso   1.00
Br706  Br    0.74275   0.10050   0.66855   0.00000  Uiso   1.00
C707   C     0.83310   0.24659   0.75130   0.00000  Uiso   1.00
C708   C     0.78951   0.15710   0.91055   0.00000  Uiso   1.00
C709   C     0.83140   0.31326   0.79898   0.00000  Uiso   1.00
C710   C     0.80677   0.16350   0.85191   0.00000  Uiso   1.00
C711   C     0.83210   0.02321   0.79733   0.00000  Uiso   1.00
C712   C     0.83294   0.04289   0.75007   0.00000  Uiso   1.00
C713   C     0.83359   0.02094   0.70362   0.00000  Uiso   1.00
C714   C     0.83418   0.31111   0.70387   0.00000  Uiso   1.00
C715   C     0.83322   0.29085   0.75149   0.00000  Uiso   1.00
C716   C     0.98549   0.14014   0.71657   0.00000  Uiso   1.00
C717   C     0.69990   0.13989   0.71653   0.00000  Uiso   1.00
C718   C     0.81050   0.15182   0.99179   0.00000  Uiso   1.00
C719   C     0.68082   0.19310   0.78371   0.00000  Uiso   1.00
C720   C     0.96628   0.19301   0.78375   0.00000  Uiso   1.00
C721   C     0.83335   0.08683   0.74940   0.00000  Uiso   1.00
C722   C     0.85996   0.16624   0.64777   0.00000  Uiso   1.00
C723   C     0.92793   0.12551   0.50783   0.00000  Uiso   1.00
C724   C     0.87597   0.15957   0.58932   0.00000  Uiso   1.00
C725   C     0.74291   0.16976   0.94171   0.00000  Uiso   1.00
C726   C     0.72932   0.17172   0.99792   0.00000  Uiso   1.00
C727   C     0.76302   0.16407   0.52293   0.00000  Uiso   1.00
C728   C     0.82114   0.14271   0.93643   0.00000  Uiso   1.00
C729   C     0.84779   0.14867   0.51367   0.00000  Uiso   1.00
C730   C     0.89209   0.12893   0.98370   0.00000  Uiso   1.00
C731   C     0.89875   0.11311   0.93100   0.00000  Uiso   1.00
C732   C     0.86321   0.12006   0.90825   0.00000  Uiso   1.00
C733   C     0.84248   0.16647   0.56415   0.00000  Uiso   1.00
C734   C     0.91940   0.13989   0.56087   0.00000  Uiso   1.00
H735   H     0.94584   0.13428   0.58016   0.00000  Uiso   1.00
H736   H     0.75073   0.16680   0.56668   0.00000  Uiso   1.00
H737   H     0.69323   0.18111   0.52203   0.00000  Uiso   1.00
H738   H     0.86829   0.10704   0.86836   0.00000  Uiso   1.00
H739   H     0.92561   0.04548   0.84005   0.00000  Uiso   1.00
H740   H     0.76358   0.25743   0.91961   0.00000  Uiso   1.00
H741   H     0.83084   0.04178   0.83284   0.00000  Uiso   1.00
H742   H     0.83439   0.03737   0.66732   0.00000  Uiso   1.00
H743   H     0.97485   0.11897   0.68992   0.00000  Uiso   1.00
H744   H     0.69102   0.21423   0.81072   0.00000  Uiso   1.00
H745   H     0.94043   0.21406   0.81086   0.00000  Uiso   1.00
H746   H     0.96204   0.11071   0.98702   0.00000  Uiso   1.00
H747   H     0.81145   0.18523   0.58561   0.00000  Uiso   1.00
H748   H     0.71754   0.17942   0.92260   0.00000  Uiso   1.00
N749   N     0.71426   0.16668   0.75002   0.00000  Uiso   1.00
N750   N     0.95239   0.16665   0.75001   0.00000  Uiso   1.00
O751   O     0.79512   0.22775   0.75001   0.00000  Uiso   1.00
O752   O     0.95934   0.04885   0.92142   0.00000  Uiso   1.00
O753   O     0.94760   0.07002   0.83124   0.00000  Uiso   1.00
O754   O     0.86542   0.25956   0.85529   0.00000  Uiso   1.00
O755   O     0.82165   0.32077   0.90495   0.00000  Uiso   1.00
O756   O     0.77283   0.26052   0.87977   0.00000  Uiso   1.00
O757   O     0.87157   0.22774   0.75001   0.00000  Uiso   1.00
O758   O     0.77613   0.16666   0.82681   0.00000  Uiso   1.00
O759   O     0.85258   0.16665   0.82681   0.00000  Uiso   1.00
O760   O     0.79510   0.10559   0.75000   0.00000  Uiso   1.00
O761   O     0.87154   0.10558   0.75000   0.00000  Uiso   1.00
O762   O     0.81409   0.16668   0.67319   0.00000  Uiso   1.00
O763   O     0.89053   0.16667   0.67319   0.00000  Uiso   1.00
O764   O     0.99385   0.11542   0.88021   0.00000  Uiso   1.00
S765   S     0.95152   0.08627   0.89110   0.00000  Uiso   1.00
S766   S     0.82411   0.28850   0.86150   0.00000  Uiso   1.00
Zn767  Zn    0.78229   0.16667   0.75000   0.00000  Uiso   1.00
Zn768  Zn    0.88438   0.16666   0.75000   0.00000  Uiso   1.00
Br769  Br    0.17023   0.61459   0.63845   0.00000  Uiso   1.00
Br770  Br    0.07608   0.43384   0.66855   0.00000  Uiso   1.00
C771   C     0.16644   0.57993   0.75130   0.00000  Uiso   1.00
C772   C     0.12285   0.49043   0.91055   0.00000  Uiso   1.00
C773   C     0.16473   0.64659   0.79898   0.00000  Uiso   1.00
C774   C     0.14010   0.49684   0.85191   0.00000  Uiso   1.00
C775   C     0.16543   0.35654   0.79733   0.00000  Uiso   1.00
C776   C     0.16627   0.37623   0.75007   0.00000  Uiso   1.00
C777   C     0.16692   0.35428   0.70362   0.00000  Uiso   1.00
C778   C     0.16751   0.64444   0.70387   0.00000  Uiso   1.00
C779   C     0.16656   0.62418   0.75149   0.00000  Uiso   1.00
C780   C     0.31882   0.47347   0.71657   0.00000  Uiso   1.00
C781   C     0.03323   0.47322   0.71653   0.00000  Uiso   1.00
C782   C     0.14383   0.48516   0.99179   0.00000  Uiso   1.00
C783   C     0.01416   0.52643   0.78371   0.00000  Uiso   1.00
C784   C     0.29961   0.52635   0.78375   0.00000  Uiso   1.00
C785   C     0.16668   0.42016   0.74940   0.00000  Uiso   1.00
C786   C     0.19329   0.49957   0.64777   0.00000  Uiso   1.00
C787   C     0.26126   0.45884   0.50783   0.00000  Uiso   1.00
C788   C     0.20930   0.49291   0.58932   0.00000  Uiso   1.00
C789   C     0.07625   0.50309   0.94171   0.00000  Uiso   1.00
C790   C     0.06265   0.50505   0.99792   0.00000  Uiso   1.00
C791   C     0.09636   0.49740   0.52293   0.00000  Uiso   1.00
C792   C     0.15448   0.47604   0.93643   0.00000  Uiso   1.00
C793   C     0.18113   0.48200   0.51367   0.00000  Uiso   1.00
C794   C     0.22542   0.46227   0.98370   0.00000  Uiso   1.00
C795   C     0.23208   0.44644   0.93100   0.00000  Uiso   1.00
C796   C     0.19655   0.45339   0.90825   0.00000  Uiso   1.00
C797   C     0.17581   0.49981   0.56415   0.00000  Uiso   1.00
C798   C     0.25273   0.47322   0.56087   0.00000  Uiso   1.00
H799   H     0.27917   0.46761   0.58016   0.00000  Uiso   1.00
H800   H     0.08406   0.50013   0.56668   0.00000  Uiso   1.00
H801   H     0.02656   0.51444   0.52203   0.00000  Uiso   1.00
H802   H     0.20162   0.44038   0.86836   0.00000  Uiso   1.00
H803   H     0.25894   0.37882   0.84005   0.00000  Uiso   1.00
H804   H     0.09691   0.59077   0.91961   0.00000  Uiso   1.00
H805   H     0.16417   0.37512   0.83284   0.00000  Uiso   1.00
H806   H     0.16773   0.37070   0.66732   0.00000  Uiso   1.00
H807   H     0.30819   0.45231   0.68992   0.00000  Uiso   1.00
H808   H     0.02435   0.54756   0.81072   0.00000  Uiso   1.00
H809   H     0.27376   0.54740   0.81086   0.00000  Uiso   1.00
H810   H     0.29538   0.44404   0.98702   0.00000  Uiso   1.00
H811   H     0.14478   0.51857   0.58561   0.00000  Uiso   1.00
H812   H     0.05088   0.51275   0.92260   0.00000  Uiso   1.00
N813   N     0.04760   0.50001   0.75002   0.00000  Uiso   1.00
N814   N     0.28573   0.49998   0.75001   0.00000  Uiso   1.00
O815   O     0.12846   0.56108   0.75001   0.00000  Uiso   1.00
O816   O     0.29268   0.38218   0.92142   0.00000  Uiso   1.00
O817   O     0.28094   0.40335   0.83124   0.00000  Uiso   1.00
O818   O     0.19875   0.59289   0.85529   0.00000  Uiso   1.00
O819   O     0.15498   0.65411   0.90495   0.00000  Uiso   1.00
O820   O     0.10616   0.59385   0.87977   0.00000  Uiso   1.00
O821   O     0.20490   0.56107   0.75001   0.00000  Uiso   1.00
O822   O     0.10947   0.50000   0.82681   0.00000  Uiso   1.00
O823   O     0.18591   0.49999   0.82681   0.00000  Uiso   1.00
O824   O     0.12843   0.43893   0.75000   0.00000  Uiso   1.00
O825   O     0.20488   0.43892   0.75000   0.00000  Uiso   1.00
O826   O     0.14742   0.50001   0.67319   0.00000  Uiso   1.00
O827   O     0.22387   0.50000   0.67319   0.00000  Uiso   1.00
O828   O     0.32719   0.44876   0.88021   0.00000  Uiso   1.00
S829   S     0.28485   0.41961   0.89110   0.00000  Uiso   1.00
S830   S     0.15744   0.62183   0.86150   0.00000  Uiso   1.00
Zn831  Zn    0.11562   0.50001   0.75000   0.00000  Uiso   1.00
Zn832  Zn    0.21771   0.49999   0.75000   0.00000  Uiso   1.00
Br833  Br    0.50357   0.61459   0.63845   0.00000  Uiso   1.00
Br834  Br    0.40941   0.43384   0.66855   0.00000  Uiso   1.00
C835   C     0.49977   0.57993   0.75130   0.00000  Uiso   1.00
C836   C     0.45618   0.49043   0.91055   0.00000  Uiso   1.00
C837   C     0.49806   0.64659   0.79898   0.00000  Uiso   1.00
C838   C     0.47343   0.49684   0.85191   0.00000  Uiso   1.00
C839   C     0.49877   0.35654   0.79733   0.00000  Uiso   1.00
C840   C     0.49960   0.37623   0.75007   0.00000  Uiso   1.00
C841   C     0.50026   0.35428   0.70362   0.00000  Uiso   1.00
C842   C     0.50084   0.64444   0.70387   0.00000  Uiso   1.00
C843   C     0.49989   0.62418   0.75149   0.00000  Uiso   1.00
C844   C     0.65215   0.47347   0.71657   0.00000  Uiso   1.00
C845   C     0.36656   0.47322   0.71653   0.00000  Uiso   1.00
C846   C     0.47716   0.48516   0.99179   0.00000  Uiso   1.00
C847   C     0.34749   0.52643   0.78371   0.00000  Uiso   1.00
C848   C     0.63294   0.52635   0.78375   0.00000  Uiso   1.00
C849   C     0.50002   0.42016   0.74940   0.00000  Uiso   1.00
C850   C     0.52663   0.49957   0.64777   0.00000  Uiso   1.00
C851   C     0.59460   0.45884   0.50783   0.00000  Uiso   1.00
C852   C     0.54264   0.49291   0.58932   0.00000  Uiso   1.00
C853   C     0.40958   0.50309   0.94171   0.00000  Uiso   1.00
C854   C     0.39598   0.50505   0.99792   0.00000  Uiso   1.00
C855   C     0.42969   0.49740   0.52293   0.00000  Uiso   1.00
C856   C     0.48781   0.47604   0.93643   0.00000  Uiso   1.00
C857   C     0.51446   0.48200   0.51367   0.00000  Uiso   1.00
C858   C     0.55875   0.46227   0.98370   0.00000  Uiso   1.00
C859   C     0.56542   0.44644   0.93100   0.00000  Uiso   1.00
C860   C     0.52988   0.45339   0.90825   0.00000  Uiso   1.00
C861   C     0.50914   0.49981   0.56415   0.00000  Uiso   1.00
C862   C     0.58607   0.47322   0.56087   0.00000  Uiso   1.00
H863   H     0.61250   0.46761   0.58016   0.00000  Uiso   1.00
H864   H     0.41740   0.50013   0.56668   0.00000  Uiso   1.00
H865   H     0.35989   0.51444   0.52203   0.00000  Uiso   1.00
H866   H     0.53495   0.44038   0.86836   0.00000  Uiso   1.00
H867   H     0.59227   0.37882   0.84005   0.00000  Uiso   1.00
H868   H     0.43025   0.59077   0.91961   0.00000  Uiso   1.00
H869   H     0.49750   0.37512   0.83284   0.00000  Uiso   1.00
H870   H     0.50106   0.37070   0.66732   0.00000  Uiso   1.00
H871   H     0.64152   0.45231   0.68992   0.00000  Uiso   1.00
H872   H     0.35768   0.54756   0.81072   0.00000  Uiso   1.00
H873   H     0.60710   0.54740   0.81086   0.00000  Uiso   1.00
H874   H     0.62871   0.44404   0.98702   0.00000  Uiso   1.00
H875   H     0.47812   0.51857   0.58561   0.00000  Uiso   1.00
H876   H     0.38421   0.51275   0.92260   0.00000  Uiso   1.00
N877   N     0.38093   0.50001   0.75002   0.00000  Uiso   1.00
N878   N     0.61906   0.49998   0.75001   0.00000  Uiso   1.00
O879   O     0.46179   0.56108   0.75001   0.00000  Uiso   1.00
O880   O     0.62601   0.38218   0.92142   0.00000  Uiso   1.00
O881   O     0.61427   0.40335   0.83124   0.00000  Uiso   1.00
O882   O     0.53208   0.59289   0.85529   0.00000  Uiso   1.00
O883   O     0.48832   0.65411   0.90495   0.00000  Uiso   1.00
O884   O     0.43949   0.59385   0.87977   0.00000  Uiso   1.00
O885   O     0.53823   0.56107   0.75001   0.00000  Uiso   1.00
O886   O     0.44280   0.50000   0.82681   0.00000  Uiso   1.00
O887   O     0.51924   0.49999   0.82681   0.00000  Uiso   1.00
O888   O     0.46177   0.43893   0.75000   0.00000  Uiso   1.00
O889   O     0.53821   0.43892   0.75000   0.00000  Uiso   1.00
O890   O     0.48076   0.50001   0.67319   0.00000  Uiso   1.00
O891   O     0.55720   0.50000   0.67319   0.00000  Uiso   1.00
O892   O     0.66052   0.44876   0.88021   0.00000  Uiso   1.00
S893   S     0.61819   0.41961   0.89110   0.00000  Uiso   1.00
S894   S     0.49078   0.62183   0.86150   0.00000  Uiso   1.00
Zn895  Zn    0.44896   0.50001   0.75000   0.00000  Uiso   1.00
Zn896  Zn    0.55104   0.49999   0.75000   0.00000  Uiso   1.00
Br897  Br    0.83690   0.61459   0.63845   0.00000  Uiso   1.00
Br898  Br    0.74275   0.43384   0.66855   0.00000  Uiso   1.00
C899   C     0.83310   0.57993   0.75130   0.00000  Uiso   1.00
C900   C     0.78951   0.49043   0.91055   0.00000  Uiso   1.00
C901   C     0.83140   0.64659   0.79898   0.00000  Uiso   1.00
C902   C     0.80677   0.49684   0.85191   0.00000  Uiso   1.00
C903   C     0.83210   0.35654   0.79733   0.00000  Uiso   1.00
C904   C     0.83294   0.37623   0.75007   0.00000  Uiso   1.00
C905   C     0.83359   0.35428   0.70362   0.00000  Uiso   1.00
C906   C     0.83418   0.64444   0.70387   0.00000  Uiso   1.00
C907   C     0.83322   0.62418   0.75149   0.00000  Uiso   1.00
C908   C     0.98549   0.47347   0.71657   0.00000  Uiso   1.00
C909   C     0.69990   0.47322   0.71653   0.00000  Uiso   1.00
C910   C     0.81050   0.48516   0.99179   0.00000  Uiso   1.00
C911   C     0.68082   0.52643   0.78371   0.00000  Uiso   1.00
C912   C     0.96628   0.52635   0.78375   0.00000  Uiso   1.00
C913   C     0.83335   0.42016   0.74940   0.00000  Uiso   1.00
C914   C     0.85996   0.49957   0.64777   0.00000  Uiso   1.00
C915   C     0.92793   0.45884   0.50783   0.00000  Uiso   1.00
C916   C     0.87597   0.49291   0.58932   0.00000  Uiso   1.00
C917   C     0.74291   0.50309   0.94171   0.00000  Uiso   1.00
C918   C     0.72932   0.50505   0.99792   0.00000  Uiso   1.00
C919   C     0.76302   0.49740   0.52293   0.00000  Uiso   1.00
C920   C     0.82114   0.47604   0.93643   0.00000  Uiso   1.00
C921   C     0.84779   0.48200   0.51367   0.00000  Uiso   1.00
C922   C     0.89209   0.46227   0.98370   0.00000  Uiso   1.00
C923   C     0.89875   0.44644   0.93100   0.00000  Uiso   1.00
C924   C     0.86321   0.45339   0.90825   0.00000  Uiso   1.00
C925   C     0.84248   0.49981   0.56415   0.00000  Uiso   1.00
C926   C     0.91940   0.47322   0.56087   0.00000  Uiso   1.00
H927   H     0.94584   0.46761   0.58016   0.00000  Uiso   1.00
H928   H     0.75073   0.50013   0.56668   0.00000  Uiso   1.00
H929   H     0.69323   0.51444   0.52203   0.00000  Uiso   1.00
H930   H     0.86829   0.44038   0.86836   0.00000  Uiso   1.00
H931   H     0.92561   0.37882   0.84005   0.00000  Uiso   1.00
H932   H     0.76358   0.59077   0.91961   0.00000  Uiso   1.00
H933   H     0.83084   0.37512   0.83284   0.00000  Uiso   1.00
H934   H     0.83439   0.37070   0.66732   0.00000  Uiso   1.00
H935   H     0.97485   0.45231   0.68992   0.00000  Uiso   1.00
H936   H     0.69102   0.54756   0.81072   0.00000  Uiso   1.00
H937   H     0.94043   0.54740   0.81086   0.00000  Uiso   1.00
H938   H     0.96204   0.44404   0.98702   0.00000  Uiso   1.00
H939   H     0.81145   0.51857   0.58561   0.00000  Uiso   1.00
H940   H     0.71754   0.51275   0.92260   0.00000  Uiso   1.00
N941   N     0.71426   0.50001   0.75002   0.00000  Uiso   1.00
N942   N     0.95239   0.49998   0.75001   0.00000  Uiso   1.00
O943   O     0.79512   0.56108   0.75001   0.00000  Uiso   1.00
O944   O     0.95934   0.38218   0.92142   0.00000  Uiso   1.00
O945   O     0.94760   0.40335   0.83124   0.00000  Uiso   1.00
O946   O     0.86542   0.59289   0.85529   0.00000  Uiso   1.00
O947   O     0.82165   0.65411   0.90495   0.00000  Uiso   1.00
O948   O     0.77283   0.59385   0.87977   0.00000  Uiso   1.00
O949   O     0.87157   0.56107   0.75001   0.00000  Uiso   1.00
O950   O     0.77613   0.50000   0.82681   0.00000  Uiso   1.00
O951   O     0.85258   0.49999   0.82681   0.00000  Uiso   1.00
O952   O     0.79510   0.43893   0.75000   0.00000  Uiso   1.00
O953   O     0.87154   0.43892   0.75000   0.00000  Uiso   1.00
O954   O     0.81409   0.50001   0.67319   0.00000  Uiso   1.00
O955   O     0.89053   0.50000   0.67319   0.00000  Uiso   1.00
O956   O     0.99385   0.44876   0.88021   0.00000  Uiso   1.00
S957   S     0.95152   0.41961   0.89110   0.00000  Uiso   1.00
S958   S     0.82411   0.62183   0.86150   0.00000  Uiso   1.00
Zn959  Zn    0.78229   0.50001   0.75000   0.00000  Uiso   1.00
Zn960  Zn    0.88438   0.49999   0.75000   0.00000  Uiso   1.00
Br961  Br    0.17023   0.94792   0.63845   0.00000  Uiso   1.00
Br962  Br    0.07608   0.76717   0.66855   0.00000  Uiso   1.00
C963   C     0.16644   0.91326   0.75130   0.00000  Uiso   1.00
C964   C     0.12285   0.82377   0.91055   0.00000  Uiso   1.00
C965   C     0.16473   0.97992   0.79898   0.00000  Uiso   1.00
C966   C     0.14010   0.83017   0.85191   0.00000  Uiso   1.00
C967   C     0.16543   0.68987   0.79733   0.00000  Uiso   1.00
C968   C     0.16627   0.70956   0.75007   0.00000  Uiso   1.00
C969   C     0.16692   0.68761   0.70362   0.00000  Uiso   1.00
C970   C     0.16751   0.97777   0.70387   0.00000  Uiso   1.00
C971   C     0.16656   0.95752   0.75149   0.00000  Uiso   1.00
C972   C     0.31882   0.80681   0.71657   0.00000  Uiso   1.00
C973   C     0.03323   0.80656   0.71653   0.00000  Uiso   1.00
C974   C     0.14383   0.81849   0.99179   0.00000  Uiso   1.00
C975   C     0.01416   0.85976   0.78371   0.00000  Uiso   1.00
C976   C     0.29961   0.85968   0.78375   0.00000  Uiso   1.00
C977   C     0.16668   0.75349   0.74940   0.00000  Uiso   1.00
C978   C     0.19329   0.83290   0.64777   0.00000  Uiso   1.00
C979   C     0.26126   0.79217   0.50783   0.00000  Uiso   1.00
C980   C     0.20930   0.82624   0.58932   0.00000  Uiso   1.00
C981   C     0.07625   0.83642   0.94171   0.00000  Uiso   1.00
C982   C     0.06265   0.83839   0.99792   0.00000  Uiso   1.00
C983   C     0.09636   0.83073   0.52293   0.00000  Uiso   1.00
C984   C     0.15448   0.80938   0.93643   0.00000  Uiso   1.00
C985   C     0.18113   0.81534   0.51367   0.00000  Uiso   1.00
C986   C     0.22542   0.79560   0.98370   0.00000  Uiso   1.00
C987   C     0.23208   0.77977   0.93100   0.00000  Uiso   1.00
C988   C     0.19655   0.78673   0.90825   0.00000  Uiso   1.00
C989   C     0.17581   0.83314   0.56415   0.00000  Uiso   1.00
C990   C     0.25273   0.80656   0.56087   0.00000  Uiso   1.00
H991   H     0.27917   0.80095   0.58016   0.00000  Uiso   1.00
H992   H     0.08406   0.83347   0.56668   0.00000  Uiso   1.00
H993   H     0.02656   0.84778   0.52203   0.00000  Uiso   1.00
H994   H     0.20162   0.77371   0.86836   0.00000  Uiso   1.00
H995   H     0.25894   0.71215   0.84005   0.00000  Uiso   1.00
H996   H     0.09691   0.92410   0.91961   0.00000  Uiso   1.00
H997   H     0.16417   0.70845   0.83284   0.00000  Uiso   1.00
H998   H     0.16773   0.70404   0.66732   0.00000  Uiso   1.00
H999   H     0.30819   0.78564   0.68992   0.00000  Uiso   1.00
H1000  H     0.02435   0.88090   0.81072   0.00000  Uiso   1.00
H1001  H     0.27376   0.88073   0.81086   0.00000  Uiso   1.00
H1002  H     0.29538   0.77738   0.98702   0.00000  Uiso   1.00
H1003  H     0.14478   0.85190   0.58561   0.00000  Uiso   1.00
H1004  H     0.05088   0.84609   0.92260   0.00000  Uiso   1.00
N1005  N     0.04760   0.83334   0.75002   0.00000  Uiso   1.00
N1006  N     0.28573   0.83331   0.75001   0.00000  Uiso   1.00
O1007  O     0.12846   0.89442   0.75001   0.00000  Uiso   1.00
O1008  O     0.29268   0.71551   0.92142   0.00000  Uiso   1.00
O1009  O     0.28094   0.73669   0.83124   0.00000  Uiso   1.00
O1010  O     0.19875   0.92622   0.85529   0.00000  Uiso   1.00
O1011  O     0.15498   0.98744   0.90495   0.00000  Uiso   1.00
O1012  O     0.10616   0.92719   0.87977   0.00000  Uiso   1.00
O1013  O     0.20490   0.89441   0.75001   0.00000  Uiso   1.00
O1014  O     0.10947   0.83333   0.82681   0.00000  Uiso   1.00
O1015  O     0.18591   0.83332   0.82681   0.00000  Uiso   1.00
O1016  O     0.12843   0.77226   0.75000   0.00000  Uiso   1.00
O1017  O     0.20488   0.77225   0.75000   0.00000  Uiso   1.00
O1018  O     0.14742   0.83335   0.67319   0.00000  Uiso   1.00
O1019  O     0.22387   0.83334   0.67319   0.00000  Uiso   1.00
O1020  O     0.32719   0.78209   0.88021   0.00000  Uiso   1.00
S1021  S     0.28485   0.75294   0.89110   0.00000  Uiso   1.00
S1022  S     0.15744   0.95517   0.86150   0.00000  Uiso   1.00
Zn1023 Zn    0.11562   0.83334   0.75000   0.00000  Uiso   1.00
Zn1024 Zn    0.21771   0.83333   0.75000   0.00000  Uiso   1.00
Br1025 Br    0.50357   0.94792   0.63845   0.00000  Uiso   1.00
Br1026 Br    0.40941   0.76717   0.66855   0.00000  Uiso   1.00
C1027  C     0.49977   0.91326   0.75130   0.00000  Uiso   1.00
C1028  C     0.45618   0.82377   0.91055   0.00000  Uiso   1.00
C1029  C     0.49806   0.97992   0.79898   0.00000  Uiso   1.00
C1030  C     0.47343   0.83017   0.85191   0.00000  Uiso   1.00
C1031  C     0.49877   0.68987   0.79733   0.00000  Uiso   1.00
C1032  C     0.49960   0.70956   0.75007   0.00000  Uiso   1.00
C1033  C     0.50026   0.68761   0.70362   0.00000  Uiso   1.00
C1034  C     0.50084   0.97777   0.70387   0.00000  Uiso   1.00
C1035  C     0.49989   0.95752   0.75149   0.00000  Uiso   1.00
C1036  C     0.65215   0.80681   0.71657   0.00000  Uiso   1.00
C1037  C     0.36656   0.80656   0.71653   0.00000  Uiso   1.00
C1038  C     0.47716   0.81849   0.99179   0.00000  Uiso   1.00
C1039  C     0.34749   0.85976   0.78371   0.00000  Uiso   1.00
C1040  C     0.63294   0.85968   0.78375   0.00000  Uiso   1.00
C1041  C     0.50002   0.75349   0.74940   0.00000  Uiso   1.00
C1042  C     0.52663   0.83290   0.64777   0.00000  Uiso   1.00
C1043  C     0.59460   0.79217   0.50783   0.00000  Uiso   1.00
C1044  C     0.54264   0.82624   0.58932   0.00000  Uiso   1.00
C1045  C     0.40958   0.83642   0.94171   0.00000  Uiso   1.00
C1046  C     0.39598   0.83839   0.99792   0.00000  Uiso   1.00
C1047  C     0.42969   0.83073   0.52293   0.00000  Uiso   1.00
C1048  C     0.48781   0.80938   0.93643   0.00000  Uiso   1.00
C1049  C     0.51446   0.81534   0.51367   0.00000  Uiso   1.00
C1050  C     0.55875   0.79560   0.98370   0.00000  Uiso   1.00
C1051  C     0.56542   0.77977   0.93100   0.00000  Uiso   1.00
C1052  C     0.52988   0.78673   0.90825   0.00000  Uiso   1.00
C1053  C     0.50914   0.83314   0.56415   0.00000  Uiso   1.00
C1054  C     0.58607   0.80656   0.56087   0.00000  Uiso   1.00
H1055  H     0.61250   0.80095   0.58016   0.00000  Uiso   1.00
H1056  H     0.41740   0.83347   0.56668   0.00000  Uiso   1.00
H1057  H     0.35989   0.84778   0.52203   0.00000  Uiso   1.00
H1058  H     0.53495   0.77371   0.86836   0.00000  Uiso   1.00
H1059  H     0.59227   0.71215   0.84005   0.00000  Uiso   1.00
H1060  H     0.43025   0.92410   0.91961   0.00000  Uiso   1.00
H1061  H     0.49750   0.70845   0.83284   0.00000  Uiso   1.00
H1062  H     0.50106   0.70404   0.66732   0.00000  Uiso   1.00
H1063  H     0.64152   0.78564   0.68992   0.00000  Uiso   1.00
H1064  H     0.35768   0.88090   0.81072   0.00000  Uiso   1.00
H1065  H     0.60710   0.88073   0.81086   0.00000  Uiso   1.00
H1066  H     0.62871   0.77738   0.98702   0.00000  Uiso   1.00
H1067  H     0.47812   0.85190   0.58561   0.00000  Uiso   1.00
H1068  H     0.38421   0.84609   0.92260   0.00000  Uiso   1.00
N1069  N     0.38093   0.83334   0.75002   0.00000  Uiso   1.00
N1070  N     0.61906   0.83331   0.75001   0.00000  Uiso   1.00
O1071  O     0.46179   0.89442   0.75001   0.00000  Uiso   1.00
O1072  O     0.62601   0.71551   0.92142   0.00000  Uiso   1.00
O1073  O     0.61427   0.73669   0.83124   0.00000  Uiso   1.00
O1074  O     0.53208   0.92622   0.85529   0.00000  Uiso   1.00
O1075  O     0.48832   0.98744   0.90495   0.00000  Uiso   1.00
O1076  O     0.43949   0.92719   0.87977   0.00000  Uiso   1.00
O1077  O     0.53823   0.89441   0.75001   0.00000  Uiso   1.00
O1078  O     0.44280   0.83333   0.82681   0.00000  Uiso   1.00
O1079  O     0.51924   0.83332   0.82681   0.00000  Uiso   1.00
O1080  O     0.46177   0.77226   0.75000   0.00000  Uiso   1.00
O1081  O     0.53821   0.77225   0.75000   0.00000  Uiso   1.00
O1082  O     0.48076   0.83335   0.67319   0.00000  Uiso   1.00
O1083  O     0.55720   0.83334   0.67319   0.00000  Uiso   1.00
O1084  O     0.66052   0.78209   0.88021   0.00000  Uiso   1.00
S1085  S     0.61819   0.75294   0.89110   0.00000  Uiso   1.00
S1086  S     0.49078   0.95517   0.86150   0.00000  Uiso   1.00
Zn1087 Zn    0.44896   0.83334   0.75000   0.00000  Uiso   1.00
Zn1088 Zn    0.55104   0.83333   0.75000   0.00000  Uiso   1.00
Br1089 Br    0.83690   0.94792   0.63845   0.00000  Uiso   1.00
Br1090 Br    0.74275   0.76717   0.66855   0.00000  Uiso   1.00
C1091  C     0.83310   0.91326   0.75130   0.00000  Uiso   1.00
C1092  C     0.78951   0.82377   0.91055   0.00000  Uiso   1.00
C1093  C     0.83140   0.97992   0.79898   0.00000  Uiso   1.00
C1094  C     0.80677   0.83017   0.85191   0.00000  Uiso   1.00
C1095  C     0.83210   0.68987   0.79733   0.00000  Uiso   1.00
C1096  C     0.83294   0.70956   0.75007   0.00000  Uiso   1.00
C1097  C     0.83359   0.68761   0.70362   0.00000  Uiso   1.00
C1098  C     0.83418   0.97777   0.70387   0.00000  Uiso   1.00
C1099  C     0.83322   0.95752   0.75149   0.00000  Uiso   1.00
C1100  C     0.98549   0.80681   0.71657   0.00000  Uiso   1.00
C1101  C     0.69990   0.80656   0.71653   0.00000  Uiso   1.00
C1102  C     0.81050   0.81849   0.99179   0.00000  Uiso   1.00
C1103  C     0.68082   0.85976   0.78371   0.00000  Uiso   1.00
C1104  C     0.96628   0.85968   0.78375   0.00000  Uiso   1.00
C1105  C     0.83335   0.75349   0.74940   0.00000  Uiso   1.00
C1106  C     0.85996   0.83290   0.64777   0.00000  Uiso   1.00
C1107  C     0.92793   0.79217   0.50783   0.00000  Uiso   1.00
C1108  C     0.87597   0.82624   0.58932   0.00000  Uiso   1.00
C1109  C     0.74291   0.83642   0.94171   0.00000  Uiso   1.00
C1110  C     0.72932   0.83839   0.99792   0.00000  Uiso   1.00
C1111  C     0.76302   0.83073   0.52293   0.00000  Uiso   1.00
C1112  C     0.82114   0.80938   0.93643   0.00000  Uiso   1.00
C1113  C     0.84779   0.81534   0.51367   0.00000  Uiso   1.00
C1114  C     0.89209   0.79560   0.98370   0.00000  Uiso   1.00
C1115  C     0.89875   0.77977   0.93100   0.00000  Uiso   1.00
C1116  C     0.86321   0.78673   0.90825   0.00000  Uiso   1.00
C1117  C     0.84248   0.83314   0.56415   0.00000  Uiso   1.00
C1118  C     0.91940   0.80656   0.56087   0.00000  Uiso   1.00
H1119  H     0.94584   0.80095   0.58016   0.00000  Uiso   1.00
H1120  H     0.75073   0.83347   0.56668   0.00000  Uiso   1.00
H1121  H     0.69323   0.84778   0.52203   0.00000  Uiso   1.00
H1122  H     0.86829   0.77371   0.86836   0.00000  Uiso   1.00
H1123  H     0.92561   0.71215   0.84005   0.00000  Uiso   1.00
H1124  H     0.76358   0.92410   0.91961   0.00000  Uiso   1.00
H1125  H     0.83084   0.70845   0.83284   0.00000  Uiso   1.00
H1126  H     0.83439   0.70404   0.66732   0.00000  Uiso   1.00
H1127  H     0.97485   0.78564   0.68992   0.00000  Uiso   1.00
H1128  H     0.69102   0.88090   0.81072   0.00000  Uiso   1.00
H1129  H     0.94043   0.88073   0.81086   0.00000  Uiso   1.00
H1130  H     0.96204   0.77738   0.98702   0.00000  Uiso   1.00
H1131  H     0.81145   0.85190   0.58561   0.00000  Uiso   1.00
H1132  H     0.71754   0.84609   0.92260   0.00000  Uiso   1.00
N1133  N     0.71426   0.83334   0.75002   0.00000  Uiso   1.00
N1134  N     0.95239   0.83331   0.75001   0.00000  Uiso   1.00
O1135  O     0.79512   0.89442   0.75001   0.00000  Uiso   1.00
O1136  O     0.95934   0.71551   0.92142   0.00000  Uiso   1.00
O1137  O     0.94760   0.73669   0.83124   0.00000  Uiso   1.00
O1138  O     0.86542   0.92622   0.85529   0.00000  Uiso   1.00
O1139  O     0.82165   0.98744   0.90495   0.00000  Uiso   1.00
O1140  O     0.77283   0.92719   0.87977   0.00000  Uiso   1.00
O1141  O     0.87157   0.89441   0.75001   0.00000  Uiso   1.00
O1142  O     0.77613   0.83333   0.82681   0.00000  Uiso   1.00
O1143  O     0.85258   0.83332   0.82681   0.00000  Uiso   1.00
O1144  O     0.79510   0.77226   0.75000   0.00000  Uiso   1.00
O1145  O     0.87154   0.77225   0.75000   0.00000  Uiso   1.00
O1146  O     0.81409   0.83335   0.67319   0.00000  Uiso   1.00
O1147  O     0.89053   0.83334   0.67319   0.00000  Uiso   1.00
O1148  O     0.99385   0.78209   0.88021   0.00000  Uiso   1.00
S1149  S     0.95152   0.75294   0.89110   0.00000  Uiso   1.00
S1150  S     0.82411   0.95517   0.86150   0.00000  Uiso   1.00
Zn1151 Zn    0.78229   0.83334   0.75000   0.00000  Uiso   1.00
Zn1152 Zn    0.88438   0.83333   0.75000   0.00000  Uiso   1.00
loop_
_geom_bond_atom_site_label_1
_geom_bond_atom_site_label_2
_geom_bond_distance
_geom_bond_site_symmetry_2
_ccdc_geom_bond_type
Br1    C10     1.923   .     S
Br2    C13     1.912   .     S
C3     O53     1.282   .     A
C3     O47     1.281   .     A
C3     C11     1.408   .     S
C4     C21     1.403   .     A
C4     C24     1.412   .     A
C4     C6      1.461   .     S
C5     S62     1.772   .     S
C5     C11     1.409   .     A
C5     C199    1.378   .     S
C6     O55     1.295   .     A
C6     O54     1.294   .     A
C7     C8      1.388   .     A
C7     H37     1.084   .     S
C7     C389    1.378   1_545 S
C8     C17     1.398   .     S
C8     C9      1.387   .     A
C9     H38     1.084   .     S
C9     C394    1.374   1_545 S
C10    C11     1.403   .     A
C10    C201    1.374   .     S
C12    H39     1.082   .     S
C12    N46     1.359   .     A
C12    C77     1.414   .     S
C13    N45     1.378   .     A
C13    C140    1.414   1_455 S
C14    C24     1.401   .     A
C14    C599    1.420   .     S
C14    C601    1.411   .     S
C15    H40     1.082   .     S
C15    N45     1.366   .     A
C15    C144    1.418   1_455 S
C16    N46     1.368   .     A
C16    H41     1.079   .     S
C16    C79     1.418   .     S
C17    O57     1.279   .     A
C17    O56     1.281   .     A
C18    C20     1.453   .     S
C18    O59     1.293   .     A
C18    O58     1.294   .     A
C19    C30     1.395   .     A
C19    C602    1.413   1_554 S
C19    H618    1.080   1_554 S
C20    C29     1.385   .     A
C20    C30     1.397   .     A
C21    H44     1.083   .     S
C21    C22     1.388   .     A
C22    C599    1.392   .     S
C22    H609    1.083   .     S
C23    H32     1.080   .     S
C23    C598    1.392   1_554 S
C23    C590    1.420   1_554 S
C24    C28     1.411   .     A
C25    C29     1.389   .     A
C25    C590    1.411   1_554 S
C25    C602    1.425   1_554 S
C26    C27     1.411   .     A
C26    C595    1.413   .     S
C26    C601    1.425   .     S
C27    C28     1.395   .     A
C27    S61     1.775   .     S
C28    H34     1.080   .     S
C29    H43     1.080   .     S
C30    H31     1.083   .     S
H33    C598    1.083   1_554 S
H35    O49     0.991   .     S
H36    O52     0.990   .     S
H42    C595    1.080   .     S
N45    Zn63    2.015   .     S
N46    Zn64    2.015   .     S
O47    Zn63    1.977   .     S
O48    S61     1.503   .     D
O49    S61     1.683   .     S
O50    S62     1.501   .     D
O51    S62     1.504   .     D
O52    S62     1.681   .     S
O53    Zn64    1.984   .     S
O54    Zn63    1.956   .     S
O55    Zn64    1.909   .     S
O56    Zn63    1.984   .     S
O57    Zn64    1.977   .     S
O58    Zn63    1.909   .     S
O59    Zn64    1.956   .     S
O60    S61     1.503   .     D
Br65   C74     1.923   .     S
Br66   C77     1.912   .     S
C67    O117    1.282   .     A
C67    O111    1.281   .     A
C67    C75     1.408   .     S
C68    C85     1.403   .     A
C68    C88     1.412   .     A
C68    C70     1.461   .     S
C69    S126    1.772   .     S
C69    C75     1.409   .     A
C69    C263    1.378   .     S
C70    O119    1.295   .     A
C70    O118    1.294   .     A
C71    C72     1.388   .     A
C71    H101    1.084   .     S
C71    C453    1.378   1_545 S
C72    C81     1.398   .     S
C72    C73     1.387   .     A
C73    H102    1.084   .     S
C73    C458    1.374   1_545 S
C74    C75     1.403   .     A
C74    C265    1.374   .     S
C76    H103    1.082   .     S
C76    N110    1.359   .     A
C76    C141    1.414   .     S
C77    N109    1.378   .     A
C78    C88     1.401   .     A
C78    C663    1.420   .     S
C78    C665    1.411   .     S
C79    H104    1.082   .     S
C79    N109    1.366   .     A
C80    N110    1.368   .     A
C80    H105    1.079   .     S
C80    C143    1.418   .     S
C81    O121    1.279   .     A
C81    O120    1.281   .     A
C82    C84     1.453   .     S
C82    O123    1.293   .     A
C82    O122    1.294   .     A
C83    C94     1.395   .     A
C83    C666    1.413   1_554 S
C83    H682    1.080   1_554 S
C84    C93     1.385   .     A
C84    C94     1.397   .     A
C85    H108    1.083   .     S
C85    C86     1.388   .     A
C86    C663    1.392   .     S
C86    H673    1.083   .     S
C87    H96     1.080   .     S
C87    C662    1.392   1_554 S
C87    C654    1.420   1_554 S
C88    C92     1.411   .     A
C89    C93     1.389   .     A
C89    C654    1.411   1_554 S
C89    C666    1.425   1_554 S
C90    C91     1.411   .     A
C90    C659    1.413   .     S
C90    C665    1.425   .     S
C91    C92     1.395   .     A
C91    S125    1.775   .     S
C92    H98     1.080   .     S
C93    H107    1.080   .     S
C94    H95     1.083   .     S
H97    C662    1.083   1_554 S
H99    O113    0.991   .     S
H100   O116    0.990   .     S
H106   C659    1.080   .     S
N109   Zn127   2.015   .     S
N110   Zn128   2.015   .     S
O111   Zn127   1.977   .     S
O112   S125    1.503   .     D
O113   S125    1.683   .     S
O114   S126    1.501   .     D
O115   S126    1.504   .     D
O116   S126    1.681   .     S
O117   Zn128   1.984   .     S
O118   Zn127   1.956   .     S
O119   Zn128   1.909   .     S
O120   Zn127   1.984   .     S
O121   Zn128   1.977   .     S
O122   Zn127   1.909   .     S
O123   Zn128   1.956   .     S
O124   S125    1.503   .     D
Br129  C138    1.923   .     S
Br130  C141    1.912   .     S
C131   O181    1.282   .     A
C131   O175    1.281   .     A
C131   C139    1.408   .     S
C132   C149    1.403   .     A
C132   C152    1.412   .     A
C132   C134    1.461   .     S
C133   S190    1.772   .     S
C133   C139    1.409   .     A
C133   C327    1.378   .     S
C134   O183    1.295   .     A
C134   O182    1.294   .     A
C135   C136    1.388   .     A
C135   H165    1.084   .     S
C135   C517    1.378   1_545 S
C136   C145    1.398   .     S
C136   C137    1.387   .     A
C137   H166    1.084   .     S
C137   C522    1.374   1_545 S
C138   C139    1.403   .     A
C138   C329    1.374   .     S
C140   H167    1.082   .     S
C140   N174    1.359   .     A
C140   C13     1.414   1_655 S
C141   N173    1.378   .     A
C142   C152    1.401   .     A
C142   C727    1.420   .     S
C142   C729    1.411   .     S
C143   H168    1.082   .     S
C143   N173    1.366   .     A
C144   N174    1.368   .     A
C144   H169    1.079   .     S
C144   C15     1.418   1_655 S
C145   O185    1.279   .     A
C145   O184    1.281   .     A
C146   C148    1.453   .     S
C146   O187    1.293   .     A
C146   O186    1.294   .     A
C147   C158    1.395   .     A
C147   C730    1.413   1_554 S
C147   H746    1.080   1_554 S
C148   C157    1.385   .     A
C148   C158    1.397   .     A
C149   H172    1.083   .     S
C149   C150    1.388   .     A
C150   C727    1.392   .     S
C150   H737    1.083   .     S
C151   H160    1.080   .     S
C151   C726    1.392   1_554 S
C151   C718    1.420   1_554 S
C152   C156    1.411   .     A
C153   C157    1.389   .     A
C153   C718    1.411   1_554 S
C153   C730    1.425   1_554 S
C154   C155    1.411   .     A
C154   C723    1.413   .     S
C154   C729    1.425   .     S
C155   C156    1.395   .     A
C155   S189    1.775   .     S
C156   H162    1.080   .     S
C157   H171    1.080   .     S
C158   H159    1.083   .     S
H161   C726    1.083   1_554 S
H163   O177    0.991   .     S
H164   O180    0.990   .     S
H170   C723    1.080   .     S
N173   Zn191   2.015   .     S
N174   Zn192   2.015   .     S
O175   Zn191   1.977   .     S
O176   S189    1.503   .     D
O177   S189    1.683   .     S
O178   S190    1.501   .     D
O179   S190    1.504   .     D
O180   S190    1.681   .     S
O181   Zn192   1.984   .     S
O182   Zn191   1.956   .     S
O183   Zn192   1.909   .     S
O184   Zn191   1.984   .     S
O185   Zn192   1.977   .     S
O186   Zn191   1.909   .     S
O187   Zn192   1.956   .     S
O188   S189    1.503   .     D
Br193  C202    1.923   .     S
Br194  C205    1.912   .     S
C195   O245    1.282   .     A
C195   O239    1.281   .     A
C195   C203    1.408   .     S
C196   C213    1.403   .     A
C196   C216    1.412   .     A
C196   C198    1.461   .     S
C197   S254    1.772   .     S
C197   C203    1.409   .     A
C197   C391    1.378   .     S
C198   O247    1.295   .     A
C198   O246    1.294   .     A
C199   C200    1.388   .     A
C199   H229    1.084   .     S
C200   C209    1.398   .     S
C200   C201    1.387   .     A
C201   H230    1.084   .     S
C202   C203    1.403   .     A
C202   C393    1.374   .     S
C204   H231    1.082   .     S
C204   N238    1.359   .     A
C204   C269    1.414   .     S
C205   N237    1.378   .     A
C205   C332    1.414   1_455 S
C206   C216    1.401   .     A
C206   C791    1.420   .     S
C206   C793    1.411   .     S
C207   H232    1.082   .     S
C207   N237    1.366   .     A
C207   C336    1.418   1_455 S
C208   N238    1.368   .     A
C208   H233    1.079   .     S
C208   C271    1.418   .     S
C209   O249    1.279   .     A
C209   O248    1.281   .     A
C210   C212    1.453   .     S
C210   O251    1.293   .     A
C210   O250    1.294   .     A
C211   C222    1.395   .     A
C211   C794    1.413   1_554 S
C211   H810    1.080   1_554 S
C212   C221    1.385   .     A
C212   C222    1.397   .     A
C213   H236    1.083   .     S
C213   C214    1.388   .     A
C214   C791    1.392   .     S
C214   H801    1.083   .     S
C215   H224    1.080   .     S
C215   C790    1.392   1_554 S
C215   C782    1.420   1_554 S
C216   C220    1.411   .     A
C217   C221    1.389   .     A
C217   C782    1.411   1_554 S
C217   C794    1.425   1_554 S
C218   C219    1.411   .     A
C218   C787    1.413   .     S
C218   C793    1.425   .     S
C219   C220    1.395   .     A
C219   S253    1.775   .     S
C220   H226    1.080   .     S
C221   H235    1.080   .     S
C222   H223    1.083   .     S
H225   C790    1.083   1_554 S
H227   O241    0.991   .     S
H228   O244    0.990   .     S
H234   C787    1.080   .     S
N237   Zn255   2.015   .     S
N238   Zn256   2.015   .     S
O239   Zn255   1.977   .     S
O240   S253    1.503   .     D
O241   S253    1.683   .     S
O242   S254    1.501   .     D
O243   S254    1.504   .     D
O244   S254    1.681   .     S
O245   Zn256   1.984   .     S
O246   Zn255   1.956   .     S
O247   Zn256   1.909   .     S
O248   Zn255   1.984   .     S
O249   Zn256   1.977   .     S
O250   Zn255   1.909   .     S
O251   Zn256   1.956   .     S
O252   S253    1.503   .     D
Br257  C266    1.923   .     S
Br258  C269    1.912   .     S
C259   O309    1.282   .     A
C259   O303    1.281   .     A
C259   C267    1.408   .     S
C260   C277    1.403   .     A
C260   C280    1.412   .     A
C260   C262    1.461   .     S
C261   S318    1.772   .     S
C261   C267    1.409   .     A
C261   C455    1.378   .     S
C262   O311    1.295   .     A
C262   O310    1.294   .     A
C263   C264    1.388   .     A
C263   H293    1.084   .     S
C264   C273    1.398   .     S
C264   C265    1.387   .     A
C265   H294    1.084   .     S
C266   C267    1.403   .     A
C266   C457    1.374   .     S
C268   H295    1.082   .     S
C268   N302    1.359   .     A
C268   C333    1.414   .     S
C269   N301    1.378   .     A
C270   C280    1.401   .     A
C270   C855    1.420   .     S
C270   C857    1.411   .     S
C271   H296    1.082   .     S
C271   N301    1.366   .     A
C272   N302    1.368   .     A
C272   H297    1.079   .     S
C272   C335    1.418   .     S
C273   O313    1.279   .     A
C273   O312    1.281   .     A
C274   C276    1.453   .     S
C274   O315    1.293   .     A
C274   O314    1.294   .     A
C275   C286    1.395   .     A
C275   C858    1.413   1_554 S
C275   H874    1.080   1_554 S
C276   C285    1.385   .     A
C276   C286    1.397   .     A
C277   H300    1.083   .     S
C277   C278    1.388   .     A
C278   C855    1.392   .     S
C278   H865    1.083   .     S
C279   H288    1.080   .     S
C279   C854    1.392   1_554 S
C279   C846    1.420   1_554 S
C280   C284    1.411   .     A
C281   C285    1.389   .     A
C281   C846    1.411   1_554 S
C281   C858    1.425   1_554 S
C282   C283    1.411   .     A
C282   C851    1.413   .     S
C282   C857    1.425   .     S
C283   C284    1.395   .     A
C283   S317    1.775   .     S
C284   H290    1.080   .     S
C285   H299    1.080   .     S
C286   H287    1.083   .     S
H289   C854    1.083   1_554 S
H291   O305    0.991   .     S
H292   O308    0.990   .     S
H298   C851    1.080   .     S
N301   Zn319   2.015   .     S
N302   Zn320   2.015   .     S
O303   Zn319   1.977   .     S
O304   S317    1.503   .     D
O305   S317    1.683   .     S
O306   S318    1.501   .     D
O307   S318    1.504   .     D
O308   S318    1.681   .     S
O309   Zn320   1.984   .     S
O310   Zn319   1.956   .     S
O311   Zn320   1.909   .     S
O312   Zn319   1.984   .     S
O313   Zn320   1.977   .     S
O314   Zn319   1.909   .     S
O315   Zn320   1.956   .     S
O316   S317    1.503   .     D
Br321  C330    1.923   .     S
Br322  C333    1.912   .     S
C323   O373    1.282   .     A
C323   O367    1.281   .     A
C323   C331    1.408   .     S
C324   C341    1.403   .     A
C324   C344    1.412   .     A
C324   C326    1.461   .     S
C325   S382    1.772   .     S
C325   C331    1.409   .     A
C325   C519    1.378   .     S
C326   O375    1.295   .     A
C326   O374    1.294   .     A
C327   C328    1.388   .     A
C327   H357    1.084   .     S
C328   C337    1.398   .     S
C328   C329    1.387   .     A
C329   H358    1.084   .     S
C330   C331    1.403   .     A
C330   C521    1.374   .     S
C332   H359    1.082   .     S
C332   N366    1.359   .     A
C332   C205    1.414   1_655 S
C333   N365    1.378   .     A
C334   C344    1.401   .     A
C334   C919    1.420   .     S
C334   C921    1.411   .     S
C335   H360    1.082   .     S
C335   N365    1.366   .     A
C336   N366    1.368   .     A
C336   H361    1.079   .     S
C336   C207    1.418   1_655 S
C337   O377    1.279   .     A
C337   O376    1.281   .     A
C338   C340    1.453   .     S
C338   O379    1.293   .     A
C338   O378    1.294   .     A
C339   C350    1.395   .     A
C339   C922    1.413   1_554 S
C339   H938    1.080   1_554 S
C340   C349    1.385   .     A
C340   C350    1.397   .     A
C341   H364    1.083   .     S
C341   C342    1.388   .     A
C342   C919    1.392   .     S
C342   H929    1.083   .     S
C343   H352    1.080   .     S
C343   C918    1.392   1_554 S
C343   C910    1.420   1_554 S
C344   C348    1.411   .     A
C345   C349    1.389   .     A
C345   C910    1.411   1_554 S
C345   C922    1.425   1_554 S
C346   C347    1.411   .     A
C346   C915    1.413   .     S
C346   C921    1.425   .     S
C347   C348    1.395   .     A
C347   S381    1.775   .     S
C348   H354    1.080   .     S
C349   H363    1.080   .     S
C350   H351    1.083   .     S
H353   C918    1.083   1_554 S
H355   O369    0.991   .     S
H356   O372    0.990   .     S
H362   C915    1.080   .     S
N365   Zn383   2.015   .     S
N366   Zn384   2.015   .     S
O367   Zn383   1.977   .     S
O368   S381    1.503   .     D
O369   S381    1.683   .     S
O370   S382    1.501   .     D
O371   S382    1.504   .     D
O372   S382    1.681   .     S
O373   Zn384   1.984   .     S
O374   Zn383   1.956   .     S
O375   Zn384   1.909   .     S
O376   Zn383   1.984   .     S
O377   Zn384   1.977   .     S
O378   Zn383   1.909   .     S
O379   Zn384   1.956   .     S
O380   S381    1.503   .     D
Br385  C394    1.923   .     S
Br386  C397    1.912   .     S
C387   O437    1.282   .     A
C387   O431    1.281   .     A
C387   C395    1.408   .     S
C388   C405    1.403   .     A
C388   C408    1.412   .     A
C388   C390    1.461   .     S
C389   S446    1.772   .     S
C389   C395    1.409   .     A
C389   C7      1.378   1_565 S
C390   O439    1.295   .     A
C390   O438    1.294   .     A
C391   C392    1.388   .     A
C391   H421    1.084   .     S
C392   C401    1.398   .     S
C392   C393    1.387   .     A
C393   H422    1.084   .     S
C394   C395    1.403   .     A
C394   C9      1.374   1_565 S
C396   H423    1.082   .     S
C396   N430    1.359   .     A
C396   C461    1.414   .     S
C397   N429    1.378   .     A
C397   C524    1.414   1_455 S
C398   C408    1.401   .     A
C398   C983    1.420   .     S
C398   C985    1.411   .     S
C399   H424    1.082   .     S
C399   N429    1.366   .     A
C399   C528    1.418   1_455 S
C400   N430    1.368   .     A
C400   H425    1.079   .     S
C400   C463    1.418   .     S
C401   O441    1.279   .     A
C401   O440    1.281   .     A
C402   C404    1.453   .     S
C402   O443    1.293   .     A
C402   O442    1.294   .     A
C403   C414    1.395   .     A
C403   C986    1.413   1_554 S
C403   H1002   1.080   1_554 S
C404   C413    1.385   .     A
C404   C414    1.397   .     A
C405   H428    1.083   .     S
C405   C406    1.388   .     A
C406   C983    1.392   .     S
C406   H993    1.083   .     S
C407   H416    1.080   .     S
C407   C982    1.392   1_554 S
C407   C974    1.420   1_554 S
C408   C412    1.411   .     A
C409   C413    1.389   .     A
C409   C974    1.411   1_554 S
C409   C986    1.425   1_554 S
C410   C411    1.411   .     A
C410   C979    1.413   .     S
C410   C985    1.425   .     S
C411   C412    1.395   .     A
C411   S445    1.775   .     S
C412   H418    1.080   .     S
C413   H427    1.080   .     S
C414   H415    1.083   .     S
H417   C982    1.083   1_554 S
H419   O433    0.991   .     S
H420   O436    0.990   .     S
H426   C979    1.080   .     S
N429   Zn447   2.015   .     S
N430   Zn448   2.015   .     S
O431   Zn447   1.977   .     S
O432   S445    1.503   .     D
O433   S445    1.683   .     S
O434   S446    1.501   .     D
O435   S446    1.504   .     D
O436   S446    1.681   .     S
O437   Zn448   1.984   .     S
O438   Zn447   1.956   .     S
O439   Zn448   1.909   .     S
O440   Zn447   1.984   .     S
O441   Zn448   1.977   .     S
O442   Zn447   1.909   .     S
O443   Zn448   1.956   .     S
O444   S445    1.503   .     D
Br449  C458    1.923   .     S
Br450  C461    1.912   .     S
C451   O501    1.282   .     A
C451   O495    1.281   .     A
C451   C459    1.408   .     S
C452   C469    1.403   .     A
C452   C472    1.412   .     A
C452   C454    1.461   .     S
C453   S510    1.772   .     S
C453   C459    1.409   .     A
C453   C71     1.378   1_565 S
C454   O503    1.295   .     A
C454   O502    1.294   .     A
C455   C456    1.388   .     A
C455   H485    1.084   .     S
C456   C465    1.398   .     S
C456   C457    1.387   .     A
C457   H486    1.084   .     S
C458   C459    1.403   .     A
C458   C73     1.374   1_565 S
C460   H487    1.082   .     S
C460   N494    1.359   .     A
C460   C525    1.414   .     S
C461   N493    1.378   .     A
C462   C472    1.401   .     A
C462   C1047   1.420   .     S
C462   C1049   1.411   .     S
C463   H488    1.082   .     S
C463   N493    1.366   .     A
C464   N494    1.368   .     A
C464   H489    1.079   .     S
C464   C527    1.418   .     S
C465   O505    1.279   .     A
C465   O504    1.281   .     A
C466   C468    1.453   .     S
C466   O507    1.293   .     A
C466   O506    1.294   .     A
C467   C478    1.395   .     A
C467   C1050   1.413   1_554 S
C467   H1066   1.080   1_554 S
C468   C477    1.385   .     A
C468   C478    1.397   .     A
C469   H492    1.083   .     S
C469   C470    1.388   .     A
C470   C1047   1.392   .     S
C470   H1057   1.083   .     S
C471   H480    1.080   .     S
C471   C1046   1.392   1_554 S
C471   C1038   1.420   1_554 S
C472   C476    1.411   .     A
C473   C477    1.389   .     A
C473   C1038   1.411   1_554 S
C473   C1050   1.425   1_554 S
C474   C475    1.411   .     A
C474   C1043   1.413   .     S
C474   C1049   1.425   .     S
C475   C476    1.395   .     A
C475   S509    1.775   .     S
C476   H482    1.080   .     S
C477   H491    1.080   .     S
C478   H479    1.083   .     S
H481   C1046   1.083   1_554 S
H483   O497    0.991   .     S
H484   O500    0.990   .     S
H490   C1043   1.080   .     S
N493   Zn511   2.015   .     S
N494   Zn512   2.015   .     S
O495   Zn511   1.977   .     S
O496   S509    1.503   .     D
O497   S509    1.683   .     S
O498   S510    1.501   .     D
O499   S510    1.504   .     D
O500   S510    1.681   .     S
O501   Zn512   1.984   .     S
O502   Zn511   1.956   .     S
O503   Zn512   1.909   .     S
O504   Zn511   1.984   .     S
O505   Zn512   1.977   .     S
O506   Zn511   1.909   .     S
O507   Zn512   1.956   .     S
O508   S509    1.503   .     D
Br513  C522    1.923   .     S
Br514  C525    1.912   .     S
C515   O565    1.282   .     A
C515   O559    1.281   .     A
C515   C523    1.408   .     S
C516   C533    1.403   .     A
C516   C536    1.412   .     A
C516   C518    1.461   .     S
C517   S574    1.772   .     S
C517   C523    1.409   .     A
C517   C135    1.378   1_565 S
C518   O567    1.295   .     A
C518   O566    1.294   .     A
C519   C520    1.388   .     A
C519   H549    1.084   .     S
C520   C529    1.398   .     S
C520   C521    1.387   .     A
C521   H550    1.084   .     S
C522   C523    1.403   .     A
C522   C137    1.374   1_565 S
C524   H551    1.082   .     S
C524   N558    1.359   .     A
C524   C397    1.414   1_655 S
C525   N557    1.378   .     A
C526   C536    1.401   .     A
C526   C1111   1.420   .     S
C526   C1113   1.411   .     S
C527   H552    1.082   .     S
C527   N557    1.366   .     A
C528   N558    1.368   .     A
C528   H553    1.079   .     S
C528   C399    1.418   1_655 S
C529   O569    1.279   .     A
C529   O568    1.281   .     A
C530   C532    1.453   .     S
C530   O571    1.293   .     A
C530   O570    1.294   .     A
C531   C542    1.395   .     A
C531   C1114   1.413   1_554 S
C531   H1130   1.080   1_554 S
C532   C541    1.385   .     A
C532   C542    1.397   .     A
C533   H556    1.083   .     S
C533   C534    1.388   .     A
C534   C1111   1.392   .     S
C534   H1121   1.083   .     S
C535   H544    1.080   .     S
C535   C1110   1.392   1_554 S
C535   C1102   1.420   1_554 S
C536   C540    1.411   .     A
C537   C541    1.389   .     A
C537   C1102   1.411   1_554 S
C537   C1114   1.425   1_554 S
C538   C539    1.411   .     A
C538   C1107   1.413   .     S
C538   C1113   1.425   .     S
C539   C540    1.395   .     A
C539   S573    1.775   .     S
C540   H546    1.080   .     S
C541   H555    1.080   .     S
C542   H543    1.083   .     S
H545   C1110   1.083   1_554 S
H547   O561    0.991   .     S
H548   O564    0.990   .     S
H554   C1107   1.080   .     S
N557   Zn575   2.015   .     S
N558   Zn576   2.015   .     S
O559   Zn575   1.977   .     S
O560   S573    1.503   .     D
O561   S573    1.683   .     S
O562   S574    1.501   .     D
O563   S574    1.504   .     D
O564   S574    1.681   .     S
O565   Zn576   1.984   .     S
O566   Zn575   1.956   .     S
O567   Zn576   1.909   .     S
O568   Zn575   1.984   .     S
O569   Zn576   1.977   .     S
O570   Zn575   1.909   .     S
O571   Zn576   1.956   .     S
O572   S573    1.503   .     D
Br577  C586    1.923   .     S
Br578  C589    1.912   .     S
C579   O629    1.282   .     A
C579   O623    1.281   .     A
C579   C587    1.408   .     S
C580   C597    1.403   .     A
C580   C600    1.412   .     A
C580   C582    1.461   .     S
C581   S638    1.772   .     S
C581   C587    1.409   .     A
C581   C775    1.378   .     S
C582   O631    1.295   .     A
C582   O630    1.294   .     A
C583   C584    1.388   .     A
C583   H613    1.084   .     S
C583   C965    1.378   1_545 S
C584   C593    1.398   .     S
C584   C585    1.387   .     A
C585   H614    1.084   .     S
C585   C970    1.374   1_545 S
C586   C587    1.403   .     A
C586   C777    1.374   .     S
C588   H615    1.082   .     S
C588   N622    1.359   .     A
C588   C653    1.414   .     S
C589   N621    1.378   .     A
C589   C716    1.414   1_455 S
C590   C600    1.401   .     A
C590   C23     1.420   1_556 S
C590   C25     1.411   1_556 S
C591   H616    1.082   .     S
C591   N621    1.366   .     A
C591   C720    1.418   1_455 S
C592   N622    1.368   .     A
C592   H617    1.079   .     S
C592   C655    1.418   .     S
C593   O633    1.279   .     A
C593   O632    1.281   .     A
C594   C596    1.453   .     S
C594   O635    1.293   .     A
C594   O634    1.294   .     A
C595   C606    1.395   .     A
C596   C605    1.385   .     A
C596   C606    1.397   .     A
C597   H620    1.083   .     S
C597   C598    1.388   .     A
C598   C23     1.392   1_556 S
C598   H33     1.083   1_556 S
C599   H608    1.080   .     S
C600   C604    1.411   .     A
C601   C605    1.389   .     A
C602   C603    1.411   .     A
C602   C19     1.413   1_556 S
C602   C25     1.425   1_556 S
C603   C604    1.395   .     A
C603   S637    1.775   .     S
C604   H610    1.080   .     S
C605   H619    1.080   .     S
C606   H607    1.083   .     S
H611   O625    0.991   .     S
H612   O628    0.990   .     S
H618   C19     1.080   1_556 S
N621   Zn639   2.015   .     S
N622   Zn640   2.015   .     S
O623   Zn639   1.977   .     S
O624   S637    1.503   .     D
O625   S637    1.683   .     S
O626   S638    1.501   .     D
O627   S638    1.504   .     D
O628   S638    1.681   .     S
O629   Zn640   1.984   .     S
O630   Zn639   1.956   .     S
O631   Zn640   1.909   .     S
O632   Zn639   1.984   .     S
O633   Zn640   1.977   .     S
O634   Zn639   1.909   .     S
O635   Zn640   1.956   .     S
O636   S637    1.503   .     D
Br641  C650    1.923   .     S
Br642  C653    1.912   .     S
C643   O693    1.282   .     A
C643   O687    1.281   .     A
C643   C651    1.408   .     S
C644   C661    1.403   .     A
C644   C664    1.412   .     A
C644   C646    1.461   .     S
C645   S702    1.772   .     S
C645   C651    1.409   .     A
C645   C839    1.378   .     S
C646   O695    1.295   .     A
C646   O694    1.294   .     A
C647   C648    1.388   .     A
C647   H677    1.084   .     S
C647   C1029   1.378   1_545 S
C648   C657    1.398   .     S
C648   C649    1.387   .     A
C649   H678    1.084   .     S
C649   C1034   1.374   1_545 S
C650   C651    1.403   .     A
C650   C841    1.374   .     S
C652   H679    1.082   .     S
C652   N686    1.359   .     A
C652   C717    1.414   .     S
C653   N685    1.378   .     A
C654   C664    1.401   .     A
C654   C87     1.420   1_556 S
C654   C89     1.411   1_556 S
C655   H680    1.082   .     S
C655   N685    1.366   .     A
C656   N686    1.368   .     A
C656   H681    1.079   .     S
C656   C719    1.418   .     S
C657   O697    1.279   .     A
C657   O696    1.281   .     A
C658   C660    1.453   .     S
C658   O699    1.293   .     A
C658   O698    1.294   .     A
C659   C670    1.395   .     A
C660   C669    1.385   .     A
C660   C670    1.397   .     A
C661   H684    1.083   .     S
C661   C662    1.388   .     A
C662   C87     1.392   1_556 S
C662   H97     1.083   1_556 S
C663   H672    1.080   .     S
C664   C668    1.411   .     A
C665   C669    1.389   .     A
C666   C667    1.411   .     A
C666   C83     1.413   1_556 S
C666   C89     1.425   1_556 S
C667   C668    1.395   .     A
C667   S701    1.775   .     S
C668   H674    1.080   .     S
C669   H683    1.080   .     S
C670   H671    1.083   .     S
H675   O689    0.991   .     S
H676   O692    0.990   .     S
H682   C83     1.080   1_556 S
N685   Zn703   2.015   .     S
N686   Zn704   2.015   .     S
O687   Zn703   1.977   .     S
O688   S701    1.503   .     D
O689   S701    1.683   .     S
O690   S702    1.501   .     D
O691   S702    1.504   .     D
O692   S702    1.681   .     S
O693   Zn704   1.984   .     S
O694   Zn703   1.956   .     S
O695   Zn704   1.909   .     S
O696   Zn703   1.984   .     S
O697   Zn704   1.977   .     S
O698   Zn703   1.909   .     S
O699   Zn704   1.956   .     S
O700   S701    1.503   .     D
Br705  C714    1.923   .     S
Br706  C717    1.912   .     S
C707   O757    1.282   .     A
C707   O751    1.281   .     A
C707   C715    1.408   .     S
C708   C725    1.403   .     A
C708   C728    1.412   .     A
C708   C710    1.461   .     S
C709   S766    1.772   .     S
C709   C715    1.409   .     A
C709   C903    1.378   .     S
C710   O759    1.295   .     A
C710   O758    1.294   .     A
C711   C712    1.388   .     A
C711   H741    1.084   .     S
C711   C1093   1.378   1_545 S
C712   C721    1.398   .     S
C712   C713    1.387   .     A
C713   H742    1.084   .     S
C713   C1098   1.374   1_545 S
C714   C715    1.403   .     A
C714   C905    1.374   .     S
C716   H743    1.082   .     S
C716   N750    1.359   .     A
C716   C589    1.414   1_655 S
C717   N749    1.378   .     A
C718   C728    1.401   .     A
C718   C151    1.420   1_556 S
C718   C153    1.411   1_556 S
C719   H744    1.082   .     S
C719   N749    1.366   .     A
C720   N750    1.368   .     A
C720   H745    1.079   .     S
C720   C591    1.418   1_655 S
C721   O761    1.279   .     A
C721   O760    1.281   .     A
C722   C724    1.453   .     S
C722   O763    1.293   .     A
C722   O762    1.294   .     A
C723   C734    1.395   .     A
C724   C733    1.385   .     A
C724   C734    1.397   .     A
C725   H748    1.083   .     S
C725   C726    1.388   .     A
C726   C151    1.392   1_556 S
C726   H161    1.083   1_556 S
C727   H736    1.080   .     S
C728   C732    1.411   .     A
C729   C733    1.389   .     A
C730   C731    1.411   .     A
C730   C147    1.413   1_556 S
C730   C153    1.425   1_556 S
C731   C732    1.395   .     A
C731   S765    1.775   .     S
C732   H738    1.080   .     S
C733   H747    1.080   .     S
C734   H735    1.083   .     S
H739   O753    0.991   .     S
H740   O756    0.990   .     S
H746   C147    1.080   1_556 S
N749   Zn767   2.015   .     S
N750   Zn768   2.015   .     S
O751   Zn767   1.977   .     S
O752   S765    1.503   .     D
O753   S765    1.683   .     S
O754   S766    1.501   .     D
O755   S766    1.504   .     D
O756   S766    1.681   .     S
O757   Zn768   1.984   .     S
O758   Zn767   1.956   .     S
O759   Zn768   1.909   .     S
O760   Zn767   1.984   .     S
O761   Zn768   1.977   .     S
O762   Zn767   1.909   .     S
O763   Zn768   1.956   .     S
O764   S765    1.503   .     D
Br769  C778    1.923   .     S
Br770  C781    1.912   .     S
C771   O821    1.282   .     A
C771   O815    1.281   .     A
C771   C779    1.408   .     S
C772   C789    1.403   .     A
C772   C792    1.412   .     A
C772   C774    1.461   .     S
C773   S830    1.772   .     S
C773   C779    1.409   .     A
C773   C967    1.378   .     S
C774   O823    1.295   .     A
C774   O822    1.294   .     A
C775   C776    1.388   .     A
C775   H805    1.084   .     S
C776   C785    1.398   .     S
C776   C777    1.387   .     A
C777   H806    1.084   .     S
C778   C779    1.403   .     A
C778   C969    1.374   .     S
C780   H807    1.082   .     S
C780   N814    1.359   .     A
C780   C845    1.414   .     S
C781   N813    1.378   .     A
C781   C908    1.414   1_455 S
C782   C792    1.401   .     A
C782   C215    1.420   1_556 S
C782   C217    1.411   1_556 S
C783   H808    1.082   .     S
C783   N813    1.366   .     A
C783   C912    1.418   1_455 S
C784   N814    1.368   .     A
C784   H809    1.079   .     S
C784   C847    1.418   .     S
C785   O825    1.279   .     A
C785   O824    1.281   .     A
C786   C788    1.453   .     S
C786   O827    1.293   .     A
C786   O826    1.294   .     A
C787   C798    1.395   .     A
C788   C797    1.385   .     A
C788   C798    1.397   .     A
C789   H812    1.083   .     S
C789   C790    1.388   .     A
C790   C215    1.392   1_556 S
C790   H225    1.083   1_556 S
C791   H800    1.080   .     S
C792   C796    1.411   .     A
C793   C797    1.389   .     A
C794   C795    1.411   .     A
C794   C211    1.413   1_556 S
C794   C217    1.425   1_556 S
C795   C796    1.395   .     A
C795   S829    1.775   .     S
C796   H802    1.080   .     S
C797   H811    1.080   .     S
C798   H799    1.083   .     S
H803   O817    0.991   .     S
H804   O820    0.990   .     S
H810   C211    1.080   1_556 S
N813   Zn831   2.015   .     S
N814   Zn832   2.015   .     S
O815   Zn831   1.977   .     S
O816   S829    1.503   .     D
O817   S829    1.683   .     S
O818   S830    1.501   .     D
O819   S830    1.504   .     D
O820   S830    1.681   .     S
O821   Zn832   1.984   .     S
O822   Zn831   1.956   .     S
O823   Zn832   1.909   .     S
O824   Zn831   1.984   .     S
O825   Zn832   1.977   .     S
O826   Zn831   1.909   .     S
O827   Zn832   1.956   .     S
O828   S829    1.503   .     D
Br833  C842    1.923   .     S
Br834  C845    1.912   .     S
C835   O885    1.282   .     A
C835   O879    1.281   .     A
C835   C843    1.408   .     S
C836   C853    1.403   .     A
C836   C856    1.412   .     A
C836   C838    1.461   .     S
C837   S894    1.772   .     S
C837   C843    1.409   .     A
C837   C1031   1.378   .     S
C838   O887    1.295   .     A
C838   O886    1.294   .     A
C839   C840    1.388   .     A
C839   H869    1.084   .     S
C840   C849    1.398   .     S
C840   C841    1.387   .     A
C841   H870    1.084   .     S
C842   C843    1.403   .     A
C842   C1033   1.374   .     S
C844   H871    1.082   .     S
C844   N878    1.359   .     A
C844   C909    1.414   .     S
C845   N877    1.378   .     A
C846   C856    1.401   .     A
C846   C279    1.420   1_556 S
C846   C281    1.411   1_556 S
C847   H872    1.082   .     S
C847   N877    1.366   .     A
C848   N878    1.368   .     A
C848   H873    1.079   .     S
C848   C911    1.418   .     S
C849   O889    1.279   .     A
C849   O888    1.281   .     A
C850   C852    1.453   .     S
C850   O891    1.293   .     A
C850   O890    1.294   .     A
C851   C862    1.395   .     A
C852   C861    1.385   .     A
C852   C862    1.397   .     A
C853   H876    1.083   .     S
C853   C854    1.388   .     A
C854   C279    1.392   1_556 S
C854   H289    1.083   1_556 S
C855   H864    1.080   .     S
C856   C860    1.411   .     A
C857   C861    1.389   .     A
C858   C859    1.411   .     A
C858   C275    1.413   1_556 S
C858   C281    1.425   1_556 S
C859   C860    1.395   .     A
C859   S893    1.775   .     S
C860   H866    1.080   .     S
C861   H875    1.080   .     S
C862   H863    1.083   .     S
H867   O881    0.991   .     S
H868   O884    0.990   .     S
H874   C275    1.080   1_556 S
N877   Zn895   2.015   .     S
N878   Zn896   2.015   .     S
O879   Zn895   1.977   .     S
O880   S893    1.503   .     D
O881   S893    1.683   .     S
O882   S894    1.501   .     D
O883   S894    1.504   .     D
O884   S894    1.681   .     S
O885   Zn896   1.984   .     S
O886   Zn895   1.956   .     S
O887   Zn896   1.909   .     S
O888   Zn895   1.984   .     S
O889   Zn896   1.977   .     S
O890   Zn895   1.909   .     S
O891   Zn896   1.956   .     S
O892   S893    1.503   .     D
Br897  C906    1.923   .     S
Br898  C909    1.912   .     S
C899   O949    1.282   .     A
C899   O943    1.281   .     A
C899   C907    1.408   .     S
C900   C917    1.403   .     A
C900   C920    1.412   .     A
C900   C902    1.461   .     S
C901   S958    1.772   .     S
C901   C907    1.409   .     A
C901   C1095   1.378   .     S
C902   O951    1.295   .     A
C902   O950    1.294   .     A
C903   C904    1.388   .     A
C903   H933    1.084   .     S
C904   C913    1.398   .     S
C904   C905    1.387   .     A
C905   H934    1.084   .     S
C906   C907    1.403   .     A
C906   C1097   1.374   .     S
C908   H935    1.082   .     S
C908   N942    1.359   .     A
C908   C781    1.414   1_655 S
C909   N941    1.378   .     A
C910   C920    1.401   .     A
C910   C343    1.420   1_556 S
C910   C345    1.411   1_556 S
C911   H936    1.082   .     S
C911   N941    1.366   .     A
C912   N942    1.368   .     A
C912   H937    1.079   .     S
C912   C783    1.418   1_655 S
C913   O953    1.279   .     A
C913   O952    1.281   .     A
C914   C916    1.453   .     S
C914   O955    1.293   .     A
C914   O954    1.294   .     A
C915   C926    1.395   .     A
C916   C925    1.385   .     A
C916   C926    1.397   .     A
C917   H940    1.083   .     S
C917   C918    1.388   .     A
C918   C343    1.392   1_556 S
C918   H353    1.083   1_556 S
C919   H928    1.080   .     S
C920   C924    1.411   .     A
C921   C925    1.389   .     A
C922   C923    1.411   .     A
C922   C339    1.413   1_556 S
C922   C345    1.425   1_556 S
C923   C924    1.395   .     A
C923   S957    1.775   .     S
C924   H930    1.080   .     S
C925   H939    1.080   .     S
C926   H927    1.083   .     S
H931   O945    0.991   .     S
H932   O948    0.990   .     S
H938   C339    1.080   1_556 S
N941   Zn959   2.015   .     S
N942   Zn960   2.015   .     S
O943   Zn959   1.977   .     S
O944   S957    1.503   .     D
O945   S957    1.683   .     S
O946   S958    1.501   .     D
O947   S958    1.504   .     D
O948   S958    1.681   .     S
O949   Zn960   1.984   .     S
O950   Zn959   1.956   .     S
O951   Zn960   1.909   .     S
O952   Zn959   1.984   .     S
O953   Zn960   1.977   .     S
O954   Zn959   1.909   .     S
O955   Zn960   1.956   .     S
O956   S957    1.503   .     D
Br961  C970    1.923   .     S
Br962  C973    1.912   .     S
C963   O1013   1.282   .     A
C963   O1007   1.281   .     A
C963   C971    1.408   .     S
C964   C981    1.403   .     A
C964   C984    1.412   .     A
C964   C966    1.461   .     S
C965   S1022   1.772   .     S
C965   C971    1.409   .     A
C965   C583    1.378   1_565 S
C966   O1015   1.295   .     A
C966   O1014   1.294   .     A
C967   C968    1.388   .     A
C967   H997    1.084   .     S
C968   C977    1.398   .     S
C968   C969    1.387   .     A
C969   H998    1.084   .     S
C970   C971    1.403   .     A
C970   C585    1.374   1_565 S
C972   H999    1.082   .     S
C972   N1006   1.359   .     A
C972   C1037   1.414   .     S
C973   N1005   1.378   .     A
C973   C1100   1.414   1_455 S
C974   C984    1.401   .     A
C974   C407    1.420   1_556 S
C974   C409    1.411   1_556 S
C975   H1000   1.082   .     S
C975   N1005   1.366   .     A
C975   C1104   1.418   1_455 S
C976   N1006   1.368   .     A
C976   H1001   1.079   .     S
C976   C1039   1.418   .     S
C977   O1017   1.279   .     A
C977   O1016   1.281   .     A
C978   C980    1.453   .     S
C978   O1019   1.293   .     A
C978   O1018   1.294   .     A
C979   C990    1.395   .     A
C980   C989    1.385   .     A
C980   C990    1.397   .     A
C981   H1004   1.083   .     S
C981   C982    1.388   .     A
C982   C407    1.392   1_556 S
C982   H417    1.083   1_556 S
C983   H992    1.080   .     S
C984   C988    1.411   .     A
C985   C989    1.389   .     A
C986   C987    1.411   .     A
C986   C403    1.413   1_556 S
C986   C409    1.425   1_556 S
C987   C988    1.395   .     A
C987   S1021   1.775   .     S
C988   H994    1.080   .     S
C989   H1003   1.080   .     S
C990   H991    1.083   .     S
H995   O1009   0.991   .     S
H996   O1012   0.990   .     S
H1002  C403    1.080   1_556 S
N1005  Zn1023  2.015   .     S
N1006  Zn1024  2.015   .     S
O1007  Zn1023  1.977   .     S
O1008  S1021   1.503   .     D
O1009  S1021   1.683   .     S
O1010  S1022   1.501   .     D
O1011  S1022   1.504   .     D
O1012  S1022   1.681   .     S
O1013  Zn1024  1.984   .     S
O1014  Zn1023  1.956   .     S
O1015  Zn1024  1.909   .     S
O1016  Zn1023  1.984   .     S
O1017  Zn1024  1.977   .     S
O1018  Zn1023  1.909   .     S
O1019  Zn1024  1.956   .     S
O1020  S1021   1.503   .     D
Br1025 C1034   1.923   .     S
Br1026 C1037   1.912   .     S
C1027  O1077   1.282   .     A
C1027  O1071   1.281   .     A
C1027  C1035   1.408   .     S
C1028  C1045   1.403   .     A
C1028  C1048   1.412   .     A
C1028  C1030   1.461   .     S
C1029  S1086   1.772   .     S
C1029  C1035   1.409   .     A
C1029  C647    1.378   1_565 S
C1030  O1079   1.295   .     A
C1030  O1078   1.294   .     A
C1031  C1032   1.388   .     A
C1031  H1061   1.084   .     S
C1032  C1041   1.398   .     S
C1032  C1033   1.387   .     A
C1033  H1062   1.084   .     S
C1034  C1035   1.403   .     A
C1034  C649    1.374   1_565 S
C1036  H1063   1.082   .     S
C1036  N1070   1.359   .     A
C1036  C1101   1.414   .     S
C1037  N1069   1.378   .     A
C1038  C1048   1.401   .     A
C1038  C471    1.420   1_556 S
C1038  C473    1.411   1_556 S
C1039  H1064   1.082   .     S
C1039  N1069   1.366   .     A
C1040  N1070   1.368   .     A
C1040  H1065   1.079   .     S
C1040  C1103   1.418   .     S
C1041  O1081   1.279   .     A
C1041  O1080   1.281   .     A
C1042  C1044   1.453   .     S
C1042  O1083   1.293   .     A
C1042  O1082   1.294   .     A
C1043  C1054   1.395   .     A
C1044  C1053   1.385   .     A
C1044  C1054   1.397   .     A
C1045  H1068   1.083   .     S
C1045  C1046   1.388   .     A
C1046  C471    1.392   1_556 S
C1046  H481    1.083   1_556 S
C1047  H1056   1.080   .     S
C1048  C1052   1.411   .     A
C1049  C1053   1.389   .     A
C1050  C1051   1.411   .     A
C1050  C467    1.413   1_556 S
C1050  C473    1.425   1_556 S
C1051  C1052   1.395   .     A
C1051  S1085   1.775   .     S
C1052  H1058   1.080   .     S
C1053  H1067   1.080   .     S
C1054  H1055   1.083   .     S
H1059  O1073   0.991   .     S
H1060  O1076   0.990   .     S
H1066  C467    1.080   1_556 S
N1069  Zn1087  2.015   .     S
N1070  Zn1088  2.015   .     S
O1071  Zn1087  1.977   .     S
O1072  S1085   1.503   .     D
O1073  S1085   1.683   .     S
O1074  S1086   1.501   .     D
O1075  S1086   1.504   .     D
O1076  S1086   1.681   .     S
O1077  Zn1088  1.984   .     S
O1078  Zn1087  1.956   .     S
O1079  Zn1088  1.909   .     S
O1080  Zn1087  1.984   .     S
O1081  Zn1088  1.977   .     S
O1082  Zn1087  1.909   .     S
O1083  Zn1088  1.956   .     S
O1084  S1085   1.503   .     D
Br1089 C1098   1.923   .     S
Br1090 C1101   1.912   .     S
C1091  O1141   1.282   .     A
C1091  O1135   1.281   .     A
C1091  C1099   1.408   .     S
C1092  C1109   1.403   .     A
C1092  C1112   1.412   .     A
C1092  C1094   1.461   .     S
C1093  S1150   1.772   .     S
C1093  C1099   1.409   .     A
C1093  C711    1.378   1_565 S
C1094  O1143   1.295   .     A
C1094  O1142   1.294   .     A
C1095  C1096   1.388   .     A
C1095  H1125   1.084   .     S
C1096  C1105   1.398   .     S
C1096  C1097   1.387   .     A
C1097  H1126   1.084   .     S
C1098  C1099   1.403   .     A
C1098  C713    1.374   1_565 S
C1100  H1127   1.082   .     S
C1100  N1134   1.359   .     A
C1100  C973    1.414   1_655 S
C1101  N1133   1.378   .     A
C1102  C1112   1.401   .     A
C1102  C535    1.420   1_556 S
C1102  C537    1.411   1_556 S
C1103  H1128   1.082   .     S
C1103  N1133   1.366   .     A
C1104  N1134   1.368   .     A
C1104  H1129   1.079   .     S
C1104  C975    1.418   1_655 S
C1105  O1145   1.279   .     A
C1105  O1144   1.281   .     A
C1106  C1108   1.453   .     S
C1106  O1147   1.293   .     A
C1106  O1146   1.294   .     A
C1107  C1118   1.395   .     A
C1108  C1117   1.385   .     A
C1108  C1118   1.397   .     A
C1109  H1132   1.083   .     S
C1109  C1110   1.388   .     A
C1110  C535    1.392   1_556 S
C1110  H545    1.083   1_556 S
C1111  H1120   1.080   .     S
C1112  C1116   1.411   .     A
C1113  C1117   1.389   .     A
C1114  C1115   1.411   .     A
C1114  C531    1.413   1_556 S
C1114  C537    1.425   1_556 S
C1115  C1116   1.395   .     A
C1115  S1149   1.775   .     S
C1116  H1122   1.080   .     S
C1117  H1131   1.080   .     S
C1118  H1119   1.083   .     S
H1123  O1137   0.991   .     S
H1124  O1140   0.990   .     S
H1130  C531    1.080   1_556 S
N1133  Zn1151  2.015   .     S
N1134  Zn1152  2.015   .     S
O1135  Zn1151  1.977   .     S
O1136  S1149   1.503   .     D
O1137  S1149   1.683   .     S
O1138  S1150   1.501   .     D
O1139  S1150   1.504   .     D
O1140  S1150   1.681   .     S
O1141  Zn1152  1.984   .     S
O1142  Zn1151  1.956   .     S
O1143  Zn1152  1.909   .     S
O1144  Zn1151  1.984   .     S
O1145  Zn1152  1.977   .     S
O1146  Zn1151  1.909   .     S
O1147  Zn1152  1.956   .     S
O1148  S1149   1.503   .     D
