data_str_m2_o1_o17_pcu_sym.187
_audit_creation_date              2020-01-03
_audit_creation_method            'Materials Studio'
_symmetry_space_group_name_H-M    'P1'
_symmetry_Int_Tables_number       1
_symmetry_cell_setting            triclinic
loop_
_symmetry_equiv_pos_as_xyz
  x,y,z
_cell_length_a                    32.9945
_cell_length_b                    28.5577
_cell_length_c                    30.0180
_cell_angle_alpha                 89.7348
_cell_angle_beta                  90.0243
_cell_angle_gamma                 90.1054
loop_
_atom_site_label
_atom_site_type_symbol
_atom_site_fract_x
_atom_site_fract_y
_atom_site_fract_z
_atom_site_U_iso_or_equiv
_atom_site_adp_type
_atom_site_occupancy
C1     C     0.08729   0.16665   0.24957   0.00000  Uiso   1.00
C2     C     0.24586   0.16684   0.24822   0.00000  Uiso   1.00
C3     C     0.09254   0.17320   0.02110   0.00000  Uiso   1.00
C4     C     0.24092   0.15981   0.47890   0.00000  Uiso   1.00
C5     C     0.02062   0.12452   0.24128   0.00000  Uiso   1.00
C6     C     0.31207   0.20977   0.25179   0.00000  Uiso   1.00
C7     C     0.31173   0.12537   0.23684   0.00000  Uiso   1.00
C8     C     0.02099   0.20960   0.25112   0.00000  Uiso   1.00
C9     C     0.29038   0.16743   0.24520   0.00000  Uiso   1.00
C10    C     0.04245   0.16679   0.24797   0.00000  Uiso   1.00
C11    C     0.14755   0.02490   0.21702   0.00000  Uiso   1.00
C12    C     0.18598   0.30843   0.28285   0.00000  Uiso   1.00
C13    C     0.18614   0.02468   0.28275   0.00000  Uiso   1.00
C14    C     0.14772   0.30865   0.21691   0.00000  Uiso   1.00
C15    C     0.16635   0.16677   0.16454   0.00000  Uiso   1.00
C16    C     0.16705   0.16655   0.33546   0.00000  Uiso   1.00
C17    C     0.20545   0.16382   0.40673   0.00000  Uiso   1.00
C18    C     0.12802   0.16945   0.09325   0.00000  Uiso   1.00
C19    C     0.16827   0.16616   0.38361   0.00000  Uiso   1.00
C20    C     0.16517   0.16711   0.11639   0.00000  Uiso   1.00
C21    C     0.13151   0.16925   0.40616   0.00000  Uiso   1.00
C22    C     0.20194   0.16383   0.09386   0.00000  Uiso   1.00
C23    C     0.13070   0.16963   0.45242   0.00000  Uiso   1.00
C24    C     0.20275   0.16339   0.04759   0.00000  Uiso   1.00
C25    C     0.16731   0.16663   0.47653   0.00000  Uiso   1.00
C26    C     0.16615   0.16642   0.02347   0.00000  Uiso   1.00
C27    C     0.20498   0.16373   0.45382   0.00000  Uiso   1.00
C28    C     0.12849   0.16937   0.04618   0.00000  Uiso   1.00
C29    C     0.09370   0.17305   0.47480   0.00000  Uiso   1.00
C30    C     0.23976   0.15991   0.02520   0.00000  Uiso   1.00
Cu31   Cu    0.16667   0.21355   0.25000   0.00000  Uiso   1.00
Cu32   Cu    0.16667   0.11978   0.25000   0.00000  Uiso   1.00
H33    H     0.10342   0.17146   0.38741   0.00000  Uiso   1.00
H34    H     0.23002   0.16156   0.11263   0.00000  Uiso   1.00
H35    H     0.06550   0.17580   0.45643   0.00000  Uiso   1.00
H36    H     0.26795   0.15710   0.04358   0.00000  Uiso   1.00
H37    H     0.06324   0.17673   0.03685   0.00000  Uiso   1.00
H38    H     0.27021   0.15622   0.46315   0.00000  Uiso   1.00
H39    H     0.13204   0.04358   0.19067   0.00000  Uiso   1.00
H40    H     0.20145   0.28970   0.30919   0.00000  Uiso   1.00
H41    H     0.20190   0.04321   0.30891   0.00000  Uiso   1.00
H42    H     0.13256   0.29010   0.19036   0.00000  Uiso   1.00
N43    N     0.16667   0.28402   0.25000   0.00000  Uiso   1.00
N44    N     0.16667   0.04931   0.25000   0.00000  Uiso   1.00
O45    O     0.10655   0.20625   0.24999   0.00000  Uiso   1.00
O46    O     0.22679   0.12709   0.25000   0.00000  Uiso   1.00
O47    O     0.22679   0.20625   0.25000   0.00000  Uiso   1.00
O48    O     0.10655   0.12709   0.24999   0.00000  Uiso   1.00
O49    O     0.16666   0.20627   0.18513   0.00000  Uiso   1.00
O50    O     0.16668   0.12707   0.31487   0.00000  Uiso   1.00
O51    O     0.16668   0.20627   0.31487   0.00000  Uiso   1.00
O52    O     0.16666   0.12707   0.18513   0.00000  Uiso   1.00
C53    C     0.24416   0.16244   0.38142   0.00000  Uiso   1.00
O54    O     0.25005   0.13146   0.35422   0.00000  Uiso   1.00
O55    O     0.27353   0.19699   0.38836   0.00000  Uiso   1.00
H56    H     0.29831   0.19255   0.36888   0.00000  Uiso   1.00
C57    C     0.08931   0.17115   0.11852   0.00000  Uiso   1.00
O58    O     0.08337   0.20261   0.14519   0.00000  Uiso   1.00
O59    O     0.05999   0.13642   0.11212   0.00000  Uiso   1.00
H60    H     0.03519   0.14116   0.13151   0.00000  Uiso   1.00
C61    C     0.04141   0.07886   0.23786   0.00000  Uiso   1.00
O62    O     0.04754   0.06164   0.20128   0.00000  Uiso   1.00
O63    O     0.05456   0.05646   0.27674   0.00000  Uiso   1.00
H64    H     0.07139   0.02767   0.27054   0.00000  Uiso   1.00
C65    C     0.29175   0.25548   0.25939   0.00000  Uiso   1.00
O66    O     0.27789   0.27747   0.22784   0.00000  Uiso   1.00
O67    O     0.29010   0.27376   0.30244   0.00000  Uiso   1.00
H68    H     0.27666   0.30562   0.30341   0.00000  Uiso   1.00
C69    C     0.29056   0.08218   0.22165   0.00000  Uiso   1.00
O70    O     0.29207   0.04641   0.24415   0.00000  Uiso   1.00
O71    O     0.26867   0.08293   0.18175   0.00000  Uiso   1.00
H72    H     0.25515   0.05179   0.17520   0.00000  Uiso   1.00
C73    C     0.04167   0.25560   0.25041   0.00000  Uiso   1.00
O74    O     0.05334   0.27334   0.28512   0.00000  Uiso   1.00
O75    O     0.04711   0.27832   0.20958   0.00000  Uiso   1.00
H76    H     0.06223   0.30889   0.21253   0.00000  Uiso   1.00
C77    C     0.42062   0.16665   0.24957   0.00000  Uiso   1.00
C78    C     0.57919   0.16684   0.24822   0.00000  Uiso   1.00
C79    C     0.42587   0.17320   0.02110   0.00000  Uiso   1.00
C80    C     0.57425   0.15981   0.47890   0.00000  Uiso   1.00
C81    C     0.35396   0.12452   0.24128   0.00000  Uiso   1.00
C82    C     0.64541   0.20977   0.25179   0.00000  Uiso   1.00
C83    C     0.64506   0.12537   0.23684   0.00000  Uiso   1.00
C84    C     0.35432   0.20960   0.25112   0.00000  Uiso   1.00
C85    C     0.62371   0.16743   0.24520   0.00000  Uiso   1.00
C86    C     0.37578   0.16679   0.24797   0.00000  Uiso   1.00
C87    C     0.48088   0.02490   0.21702   0.00000  Uiso   1.00
C88    C     0.51931   0.30843   0.28285   0.00000  Uiso   1.00
C89    C     0.51947   0.02468   0.28275   0.00000  Uiso   1.00
C90    C     0.48106   0.30865   0.21691   0.00000  Uiso   1.00
C91    C     0.49968   0.16677   0.16454   0.00000  Uiso   1.00
C92    C     0.50038   0.16655   0.33546   0.00000  Uiso   1.00
C93    C     0.53878   0.16382   0.40673   0.00000  Uiso   1.00
C94    C     0.46135   0.16945   0.09325   0.00000  Uiso   1.00
C95    C     0.50161   0.16616   0.38361   0.00000  Uiso   1.00
C96    C     0.49851   0.16711   0.11639   0.00000  Uiso   1.00
C97    C     0.46484   0.16925   0.40616   0.00000  Uiso   1.00
C98    C     0.53527   0.16383   0.09386   0.00000  Uiso   1.00
C99    C     0.46404   0.16963   0.45242   0.00000  Uiso   1.00
C100   C     0.53609   0.16339   0.04759   0.00000  Uiso   1.00
C101   C     0.50064   0.16663   0.47653   0.00000  Uiso   1.00
C102   C     0.49949   0.16642   0.02347   0.00000  Uiso   1.00
C103   C     0.53831   0.16373   0.45382   0.00000  Uiso   1.00
C104   C     0.46182   0.16937   0.04618   0.00000  Uiso   1.00
C105   C     0.42703   0.17305   0.47480   0.00000  Uiso   1.00
C106   C     0.57309   0.15991   0.02520   0.00000  Uiso   1.00
Cu107  Cu    0.50000   0.21355   0.25000   0.00000  Uiso   1.00
Cu108  Cu    0.50000   0.11978   0.25000   0.00000  Uiso   1.00
H109   H     0.43676   0.17146   0.38741   0.00000  Uiso   1.00
H110   H     0.56335   0.16156   0.11263   0.00000  Uiso   1.00
H111   H     0.39883   0.17580   0.45643   0.00000  Uiso   1.00
H112   H     0.60128   0.15710   0.04358   0.00000  Uiso   1.00
H113   H     0.39658   0.17673   0.03685   0.00000  Uiso   1.00
H114   H     0.60354   0.15622   0.46315   0.00000  Uiso   1.00
H115   H     0.46537   0.04358   0.19067   0.00000  Uiso   1.00
H116   H     0.53478   0.28970   0.30919   0.00000  Uiso   1.00
H117   H     0.53523   0.04321   0.30891   0.00000  Uiso   1.00
H118   H     0.46589   0.29010   0.19036   0.00000  Uiso   1.00
N119   N     0.50000   0.28402   0.25000   0.00000  Uiso   1.00
N120   N     0.50000   0.04931   0.25000   0.00000  Uiso   1.00
O121   O     0.43988   0.20625   0.24999   0.00000  Uiso   1.00
O122   O     0.56012   0.12709   0.25000   0.00000  Uiso   1.00
O123   O     0.56012   0.20625   0.25000   0.00000  Uiso   1.00
O124   O     0.43988   0.12709   0.24999   0.00000  Uiso   1.00
O125   O     0.49999   0.20627   0.18513   0.00000  Uiso   1.00
O126   O     0.50001   0.12707   0.31487   0.00000  Uiso   1.00
O127   O     0.50001   0.20627   0.31487   0.00000  Uiso   1.00
O128   O     0.49999   0.12707   0.18513   0.00000  Uiso   1.00
C129   C     0.57749   0.16244   0.38142   0.00000  Uiso   1.00
O130   O     0.58338   0.13146   0.35422   0.00000  Uiso   1.00
O131   O     0.60686   0.19699   0.38836   0.00000  Uiso   1.00
H132   H     0.63165   0.19255   0.36888   0.00000  Uiso   1.00
C133   C     0.42265   0.17115   0.11852   0.00000  Uiso   1.00
O134   O     0.41670   0.20261   0.14519   0.00000  Uiso   1.00
O135   O     0.39332   0.13642   0.11212   0.00000  Uiso   1.00
H136   H     0.36852   0.14116   0.13151   0.00000  Uiso   1.00
C137   C     0.37474   0.07886   0.23786   0.00000  Uiso   1.00
O138   O     0.38087   0.06164   0.20128   0.00000  Uiso   1.00
O139   O     0.38789   0.05646   0.27674   0.00000  Uiso   1.00
H140   H     0.40472   0.02767   0.27054   0.00000  Uiso   1.00
C141   C     0.62509   0.25548   0.25939   0.00000  Uiso   1.00
O142   O     0.61122   0.27747   0.22784   0.00000  Uiso   1.00
O143   O     0.62343   0.27376   0.30244   0.00000  Uiso   1.00
H144   H     0.60999   0.30562   0.30341   0.00000  Uiso   1.00
C145   C     0.62389   0.08218   0.22165   0.00000  Uiso   1.00
O146   O     0.62541   0.04641   0.24415   0.00000  Uiso   1.00
O147   O     0.60200   0.08293   0.18175   0.00000  Uiso   1.00
H148   H     0.58849   0.05179   0.17520   0.00000  Uiso   1.00
C149   C     0.37500   0.25560   0.25041   0.00000  Uiso   1.00
O150   O     0.38668   0.27334   0.28512   0.00000  Uiso   1.00
O151   O     0.38045   0.27832   0.20958   0.00000  Uiso   1.00
H152   H     0.39556   0.30889   0.21253   0.00000  Uiso   1.00
C153   C     0.75396   0.16665   0.24957   0.00000  Uiso   1.00
C154   C     0.91253   0.16684   0.24822   0.00000  Uiso   1.00
C155   C     0.75921   0.17320   0.02110   0.00000  Uiso   1.00
C156   C     0.90758   0.15981   0.47890   0.00000  Uiso   1.00
C157   C     0.68729   0.12452   0.24128   0.00000  Uiso   1.00
C158   C     0.97874   0.20977   0.25179   0.00000  Uiso   1.00
C159   C     0.97839   0.12537   0.23684   0.00000  Uiso   1.00
C160   C     0.68765   0.20960   0.25112   0.00000  Uiso   1.00
C161   C     0.95705   0.16743   0.24520   0.00000  Uiso   1.00
C162   C     0.70912   0.16679   0.24797   0.00000  Uiso   1.00
C163   C     0.81422   0.02490   0.21702   0.00000  Uiso   1.00
C164   C     0.85265   0.30843   0.28285   0.00000  Uiso   1.00
C165   C     0.85280   0.02468   0.28275   0.00000  Uiso   1.00
C166   C     0.81439   0.30865   0.21691   0.00000  Uiso   1.00
C167   C     0.83301   0.16677   0.16454   0.00000  Uiso   1.00
C168   C     0.83371   0.16655   0.33546   0.00000  Uiso   1.00
C169   C     0.87211   0.16382   0.40673   0.00000  Uiso   1.00
C170   C     0.79469   0.16945   0.09325   0.00000  Uiso   1.00
C171   C     0.83494   0.16616   0.38361   0.00000  Uiso   1.00
C172   C     0.83184   0.16711   0.11639   0.00000  Uiso   1.00
C173   C     0.79818   0.16925   0.40616   0.00000  Uiso   1.00
C174   C     0.86861   0.16383   0.09386   0.00000  Uiso   1.00
C175   C     0.79737   0.16963   0.45242   0.00000  Uiso   1.00
C176   C     0.86942   0.16339   0.04759   0.00000  Uiso   1.00
C177   C     0.83398   0.16663   0.47653   0.00000  Uiso   1.00
C178   C     0.83282   0.16642   0.02347   0.00000  Uiso   1.00
C179   C     0.87165   0.16373   0.45382   0.00000  Uiso   1.00
C180   C     0.79515   0.16937   0.04618   0.00000  Uiso   1.00
C181   C     0.76036   0.17305   0.47480   0.00000  Uiso   1.00
C182   C     0.90642   0.15991   0.02520   0.00000  Uiso   1.00
Cu183  Cu    0.83333   0.21355   0.25000   0.00000  Uiso   1.00
Cu184  Cu    0.83333   0.11978   0.25000   0.00000  Uiso   1.00
H185   H     0.77009   0.17146   0.38741   0.00000  Uiso   1.00
H186   H     0.89668   0.16156   0.11263   0.00000  Uiso   1.00
H187   H     0.73217   0.17580   0.45643   0.00000  Uiso   1.00
H188   H     0.93462   0.15710   0.04358   0.00000  Uiso   1.00
H189   H     0.72991   0.17673   0.03685   0.00000  Uiso   1.00
H190   H     0.93687   0.15622   0.46315   0.00000  Uiso   1.00
H191   H     0.79871   0.04358   0.19067   0.00000  Uiso   1.00
H192   H     0.86812   0.28970   0.30919   0.00000  Uiso   1.00
H193   H     0.86856   0.04321   0.30891   0.00000  Uiso   1.00
H194   H     0.79923   0.29010   0.19036   0.00000  Uiso   1.00
N195   N     0.83333   0.28402   0.25000   0.00000  Uiso   1.00
N196   N     0.83333   0.04931   0.25000   0.00000  Uiso   1.00
O197   O     0.77321   0.20625   0.24999   0.00000  Uiso   1.00
O198   O     0.89345   0.12709   0.25000   0.00000  Uiso   1.00
O199   O     0.89345   0.20625   0.25000   0.00000  Uiso   1.00
O200   O     0.77321   0.12709   0.24999   0.00000  Uiso   1.00
O201   O     0.83332   0.20627   0.18513   0.00000  Uiso   1.00
O202   O     0.83334   0.12707   0.31487   0.00000  Uiso   1.00
O203   O     0.83334   0.20627   0.31487   0.00000  Uiso   1.00
O204   O     0.83332   0.12707   0.18513   0.00000  Uiso   1.00
C205   C     0.91083   0.16244   0.38142   0.00000  Uiso   1.00
O206   O     0.91672   0.13146   0.35422   0.00000  Uiso   1.00
O207   O     0.94019   0.19699   0.38836   0.00000  Uiso   1.00
H208   H     0.96498   0.19255   0.36888   0.00000  Uiso   1.00
C209   C     0.75598   0.17115   0.11852   0.00000  Uiso   1.00
O210   O     0.75004   0.20261   0.14519   0.00000  Uiso   1.00
O211   O     0.72666   0.13642   0.11212   0.00000  Uiso   1.00
H212   H     0.70185   0.14116   0.13151   0.00000  Uiso   1.00
C213   C     0.70808   0.07886   0.23786   0.00000  Uiso   1.00
O214   O     0.71420   0.06164   0.20128   0.00000  Uiso   1.00
O215   O     0.72122   0.05646   0.27674   0.00000  Uiso   1.00
H216   H     0.73806   0.02767   0.27054   0.00000  Uiso   1.00
C217   C     0.95842   0.25548   0.25939   0.00000  Uiso   1.00
O218   O     0.94456   0.27747   0.22784   0.00000  Uiso   1.00
O219   O     0.95676   0.27376   0.30244   0.00000  Uiso   1.00
H220   H     0.94333   0.30562   0.30341   0.00000  Uiso   1.00
C221   C     0.95723   0.08218   0.22165   0.00000  Uiso   1.00
O222   O     0.95874   0.04641   0.24415   0.00000  Uiso   1.00
O223   O     0.93533   0.08293   0.18175   0.00000  Uiso   1.00
H224   H     0.92182   0.05179   0.17520   0.00000  Uiso   1.00
C225   C     0.70833   0.25560   0.25041   0.00000  Uiso   1.00
O226   O     0.72001   0.27334   0.28512   0.00000  Uiso   1.00
O227   O     0.71378   0.27832   0.20958   0.00000  Uiso   1.00
H228   H     0.72890   0.30889   0.21253   0.00000  Uiso   1.00
C229   C     0.08729   0.49998   0.24957   0.00000  Uiso   1.00
C230   C     0.24586   0.50017   0.24822   0.00000  Uiso   1.00
C231   C     0.09254   0.50653   0.02110   0.00000  Uiso   1.00
C232   C     0.24092   0.49314   0.47890   0.00000  Uiso   1.00
C233   C     0.02062   0.45785   0.24128   0.00000  Uiso   1.00
C234   C     0.31207   0.54311   0.25179   0.00000  Uiso   1.00
C235   C     0.31173   0.45870   0.23684   0.00000  Uiso   1.00
C236   C     0.02099   0.54294   0.25112   0.00000  Uiso   1.00
C237   C     0.29038   0.50076   0.24520   0.00000  Uiso   1.00
C238   C     0.04245   0.50012   0.24797   0.00000  Uiso   1.00
C239   C     0.14755   0.35823   0.21702   0.00000  Uiso   1.00
C240   C     0.18598   0.64176   0.28285   0.00000  Uiso   1.00
C241   C     0.18614   0.35801   0.28275   0.00000  Uiso   1.00
C242   C     0.14772   0.64199   0.21691   0.00000  Uiso   1.00
C243   C     0.16635   0.50011   0.16454   0.00000  Uiso   1.00
C244   C     0.16705   0.49989   0.33546   0.00000  Uiso   1.00
C245   C     0.20545   0.49715   0.40673   0.00000  Uiso   1.00
C246   C     0.12802   0.50278   0.09325   0.00000  Uiso   1.00
C247   C     0.16827   0.49949   0.38361   0.00000  Uiso   1.00
C248   C     0.16517   0.50044   0.11639   0.00000  Uiso   1.00
C249   C     0.13151   0.50258   0.40616   0.00000  Uiso   1.00
C250   C     0.20194   0.49716   0.09386   0.00000  Uiso   1.00
C251   C     0.13070   0.50297   0.45242   0.00000  Uiso   1.00
C252   C     0.20275   0.49672   0.04759   0.00000  Uiso   1.00
C253   C     0.16731   0.49996   0.47653   0.00000  Uiso   1.00
C254   C     0.16615   0.49976   0.02347   0.00000  Uiso   1.00
C255   C     0.20498   0.49707   0.45382   0.00000  Uiso   1.00
C256   C     0.12849   0.50270   0.04618   0.00000  Uiso   1.00
C257   C     0.09370   0.50638   0.47480   0.00000  Uiso   1.00
C258   C     0.23976   0.49324   0.02520   0.00000  Uiso   1.00
Cu259  Cu    0.16667   0.54689   0.25000   0.00000  Uiso   1.00
Cu260  Cu    0.16667   0.45311   0.25000   0.00000  Uiso   1.00
H261   H     0.10342   0.50479   0.38741   0.00000  Uiso   1.00
H262   H     0.23002   0.49490   0.11263   0.00000  Uiso   1.00
H263   H     0.06550   0.50913   0.45643   0.00000  Uiso   1.00
H264   H     0.26795   0.49043   0.04358   0.00000  Uiso   1.00
H265   H     0.06324   0.51007   0.03685   0.00000  Uiso   1.00
H266   H     0.27021   0.48956   0.46315   0.00000  Uiso   1.00
H267   H     0.13204   0.37692   0.19067   0.00000  Uiso   1.00
H268   H     0.20145   0.62303   0.30919   0.00000  Uiso   1.00
H269   H     0.20190   0.37655   0.30891   0.00000  Uiso   1.00
H270   H     0.13256   0.62344   0.19036   0.00000  Uiso   1.00
N271   N     0.16667   0.61736   0.25000   0.00000  Uiso   1.00
N272   N     0.16667   0.38264   0.25000   0.00000  Uiso   1.00
O273   O     0.10655   0.53958   0.24999   0.00000  Uiso   1.00
O274   O     0.22679   0.46042   0.25000   0.00000  Uiso   1.00
O275   O     0.22679   0.53958   0.25000   0.00000  Uiso   1.00
O276   O     0.10655   0.46042   0.24999   0.00000  Uiso   1.00
O277   O     0.16666   0.53960   0.18513   0.00000  Uiso   1.00
O278   O     0.16668   0.46040   0.31487   0.00000  Uiso   1.00
O279   O     0.16668   0.53960   0.31487   0.00000  Uiso   1.00
O280   O     0.16666   0.46040   0.18513   0.00000  Uiso   1.00
C281   C     0.24416   0.49577   0.38142   0.00000  Uiso   1.00
O282   O     0.25005   0.46479   0.35422   0.00000  Uiso   1.00
O283   O     0.27353   0.53032   0.38836   0.00000  Uiso   1.00
H284   H     0.29831   0.52588   0.36888   0.00000  Uiso   1.00
C285   C     0.08931   0.50448   0.11852   0.00000  Uiso   1.00
O286   O     0.08337   0.53595   0.14519   0.00000  Uiso   1.00
O287   O     0.05999   0.46975   0.11212   0.00000  Uiso   1.00
H288   H     0.03519   0.47449   0.13151   0.00000  Uiso   1.00
C289   C     0.04141   0.41219   0.23786   0.00000  Uiso   1.00
O290   O     0.04754   0.39498   0.20128   0.00000  Uiso   1.00
O291   O     0.05456   0.38979   0.27674   0.00000  Uiso   1.00
H292   H     0.07139   0.36100   0.27054   0.00000  Uiso   1.00
C293   C     0.29175   0.58881   0.25939   0.00000  Uiso   1.00
O294   O     0.27789   0.61080   0.22784   0.00000  Uiso   1.00
O295   O     0.29010   0.60710   0.30244   0.00000  Uiso   1.00
H296   H     0.27666   0.63895   0.30341   0.00000  Uiso   1.00
C297   C     0.29056   0.41551   0.22165   0.00000  Uiso   1.00
O298   O     0.29207   0.37974   0.24415   0.00000  Uiso   1.00
O299   O     0.26867   0.41627   0.18175   0.00000  Uiso   1.00
H300   H     0.25515   0.38513   0.17520   0.00000  Uiso   1.00
C301   C     0.04167   0.58894   0.25041   0.00000  Uiso   1.00
O302   O     0.05334   0.60668   0.28512   0.00000  Uiso   1.00
O303   O     0.04711   0.61165   0.20958   0.00000  Uiso   1.00
H304   H     0.06223   0.64223   0.21253   0.00000  Uiso   1.00
C305   C     0.42062   0.49998   0.24957   0.00000  Uiso   1.00
C306   C     0.57919   0.50017   0.24822   0.00000  Uiso   1.00
C307   C     0.42587   0.50653   0.02110   0.00000  Uiso   1.00
C308   C     0.57425   0.49314   0.47890   0.00000  Uiso   1.00
C309   C     0.35396   0.45785   0.24128   0.00000  Uiso   1.00
C310   C     0.64541   0.54311   0.25179   0.00000  Uiso   1.00
C311   C     0.64506   0.45870   0.23684   0.00000  Uiso   1.00
C312   C     0.35432   0.54294   0.25112   0.00000  Uiso   1.00
C313   C     0.62371   0.50076   0.24520   0.00000  Uiso   1.00
C314   C     0.37578   0.50012   0.24797   0.00000  Uiso   1.00
C315   C     0.48088   0.35823   0.21702   0.00000  Uiso   1.00
C316   C     0.51931   0.64176   0.28285   0.00000  Uiso   1.00
C317   C     0.51947   0.35801   0.28275   0.00000  Uiso   1.00
C318   C     0.48106   0.64199   0.21691   0.00000  Uiso   1.00
C319   C     0.49968   0.50011   0.16454   0.00000  Uiso   1.00
C320   C     0.50038   0.49989   0.33546   0.00000  Uiso   1.00
C321   C     0.53878   0.49715   0.40673   0.00000  Uiso   1.00
C322   C     0.46135   0.50278   0.09325   0.00000  Uiso   1.00
C323   C     0.50161   0.49949   0.38361   0.00000  Uiso   1.00
C324   C     0.49851   0.50044   0.11639   0.00000  Uiso   1.00
C325   C     0.46484   0.50258   0.40616   0.00000  Uiso   1.00
C326   C     0.53527   0.49716   0.09386   0.00000  Uiso   1.00
C327   C     0.46404   0.50297   0.45242   0.00000  Uiso   1.00
C328   C     0.53609   0.49672   0.04759   0.00000  Uiso   1.00
C329   C     0.50064   0.49996   0.47653   0.00000  Uiso   1.00
C330   C     0.49949   0.49976   0.02347   0.00000  Uiso   1.00
C331   C     0.53831   0.49707   0.45382   0.00000  Uiso   1.00
C332   C     0.46182   0.50270   0.04618   0.00000  Uiso   1.00
C333   C     0.42703   0.50638   0.47480   0.00000  Uiso   1.00
C334   C     0.57309   0.49324   0.02520   0.00000  Uiso   1.00
Cu335  Cu    0.50000   0.54689   0.25000   0.00000  Uiso   1.00
Cu336  Cu    0.50000   0.45311   0.25000   0.00000  Uiso   1.00
H337   H     0.43676   0.50479   0.38741   0.00000  Uiso   1.00
H338   H     0.56335   0.49490   0.11263   0.00000  Uiso   1.00
H339   H     0.39883   0.50913   0.45643   0.00000  Uiso   1.00
H340   H     0.60128   0.49043   0.04358   0.00000  Uiso   1.00
H341   H     0.39658   0.51007   0.03685   0.00000  Uiso   1.00
H342   H     0.60354   0.48956   0.46315   0.00000  Uiso   1.00
H343   H     0.46537   0.37692   0.19067   0.00000  Uiso   1.00
H344   H     0.53478   0.62303   0.30919   0.00000  Uiso   1.00
H345   H     0.53523   0.37655   0.30891   0.00000  Uiso   1.00
H346   H     0.46589   0.62344   0.19036   0.00000  Uiso   1.00
N347   N     0.50000   0.61736   0.25000   0.00000  Uiso   1.00
N348   N     0.50000   0.38264   0.25000   0.00000  Uiso   1.00
O349   O     0.43988   0.53958   0.24999   0.00000  Uiso   1.00
O350   O     0.56012   0.46042   0.25000   0.00000  Uiso   1.00
O351   O     0.56012   0.53958   0.25000   0.00000  Uiso   1.00
O352   O     0.43988   0.46042   0.24999   0.00000  Uiso   1.00
O353   O     0.49999   0.53960   0.18513   0.00000  Uiso   1.00
O354   O     0.50001   0.46040   0.31487   0.00000  Uiso   1.00
O355   O     0.50001   0.53960   0.31487   0.00000  Uiso   1.00
O356   O     0.49999   0.46040   0.18513   0.00000  Uiso   1.00
C357   C     0.57749   0.49577   0.38142   0.00000  Uiso   1.00
O358   O     0.58338   0.46479   0.35422   0.00000  Uiso   1.00
O359   O     0.60686   0.53032   0.38836   0.00000  Uiso   1.00
H360   H     0.63165   0.52588   0.36888   0.00000  Uiso   1.00
C361   C     0.42265   0.50448   0.11852   0.00000  Uiso   1.00
O362   O     0.41670   0.53595   0.14519   0.00000  Uiso   1.00
O363   O     0.39332   0.46975   0.11212   0.00000  Uiso   1.00
H364   H     0.36852   0.47449   0.13151   0.00000  Uiso   1.00
C365   C     0.37474   0.41219   0.23786   0.00000  Uiso   1.00
O366   O     0.38087   0.39498   0.20128   0.00000  Uiso   1.00
O367   O     0.38789   0.38979   0.27674   0.00000  Uiso   1.00
H368   H     0.40472   0.36100   0.27054   0.00000  Uiso   1.00
C369   C     0.62509   0.58881   0.25939   0.00000  Uiso   1.00
O370   O     0.61122   0.61080   0.22784   0.00000  Uiso   1.00
O371   O     0.62343   0.60710   0.30244   0.00000  Uiso   1.00
H372   H     0.60999   0.63895   0.30341   0.00000  Uiso   1.00
C373   C     0.62389   0.41551   0.22165   0.00000  Uiso   1.00
O374   O     0.62541   0.37974   0.24415   0.00000  Uiso   1.00
O375   O     0.60200   0.41627   0.18175   0.00000  Uiso   1.00
H376   H     0.58849   0.38513   0.17520   0.00000  Uiso   1.00
C377   C     0.37500   0.58894   0.25041   0.00000  Uiso   1.00
O378   O     0.38668   0.60668   0.28512   0.00000  Uiso   1.00
O379   O     0.38045   0.61165   0.20958   0.00000  Uiso   1.00
H380   H     0.39556   0.64223   0.21253   0.00000  Uiso   1.00
C381   C     0.75396   0.49998   0.24957   0.00000  Uiso   1.00
C382   C     0.91253   0.50017   0.24822   0.00000  Uiso   1.00
C383   C     0.75921   0.50653   0.02110   0.00000  Uiso   1.00
C384   C     0.90758   0.49314   0.47890   0.00000  Uiso   1.00
C385   C     0.68729   0.45785   0.24128   0.00000  Uiso   1.00
C386   C     0.97874   0.54311   0.25179   0.00000  Uiso   1.00
C387   C     0.97839   0.45870   0.23684   0.00000  Uiso   1.00
C388   C     0.68765   0.54294   0.25112   0.00000  Uiso   1.00
C389   C     0.95705   0.50076   0.24520   0.00000  Uiso   1.00
C390   C     0.70912   0.50012   0.24797   0.00000  Uiso   1.00
C391   C     0.81422   0.35823   0.21702   0.00000  Uiso   1.00
C392   C     0.85265   0.64176   0.28285   0.00000  Uiso   1.00
C393   C     0.85280   0.35801   0.28275   0.00000  Uiso   1.00
C394   C     0.81439   0.64199   0.21691   0.00000  Uiso   1.00
C395   C     0.83301   0.50011   0.16454   0.00000  Uiso   1.00
C396   C     0.83371   0.49989   0.33546   0.00000  Uiso   1.00
C397   C     0.87211   0.49715   0.40673   0.00000  Uiso   1.00
C398   C     0.79469   0.50278   0.09325   0.00000  Uiso   1.00
C399   C     0.83494   0.49949   0.38361   0.00000  Uiso   1.00
C400   C     0.83184   0.50044   0.11639   0.00000  Uiso   1.00
C401   C     0.79818   0.50258   0.40616   0.00000  Uiso   1.00
C402   C     0.86861   0.49716   0.09386   0.00000  Uiso   1.00
C403   C     0.79737   0.50297   0.45242   0.00000  Uiso   1.00
C404   C     0.86942   0.49672   0.04759   0.00000  Uiso   1.00
C405   C     0.83398   0.49996   0.47653   0.00000  Uiso   1.00
C406   C     0.83282   0.49976   0.02347   0.00000  Uiso   1.00
C407   C     0.87165   0.49707   0.45382   0.00000  Uiso   1.00
C408   C     0.79515   0.50270   0.04618   0.00000  Uiso   1.00
C409   C     0.76036   0.50638   0.47480   0.00000  Uiso   1.00
C410   C     0.90642   0.49324   0.02520   0.00000  Uiso   1.00
Cu411  Cu    0.83333   0.54689   0.25000   0.00000  Uiso   1.00
Cu412  Cu    0.83333   0.45311   0.25000   0.00000  Uiso   1.00
H413   H     0.77009   0.50479   0.38741   0.00000  Uiso   1.00
H414   H     0.89668   0.49490   0.11263   0.00000  Uiso   1.00
H415   H     0.73217   0.50913   0.45643   0.00000  Uiso   1.00
H416   H     0.93462   0.49043   0.04358   0.00000  Uiso   1.00
H417   H     0.72991   0.51007   0.03685   0.00000  Uiso   1.00
H418   H     0.93687   0.48956   0.46315   0.00000  Uiso   1.00
H419   H     0.79871   0.37692   0.19067   0.00000  Uiso   1.00
H420   H     0.86812   0.62303   0.30919   0.00000  Uiso   1.00
H421   H     0.86856   0.37655   0.30891   0.00000  Uiso   1.00
H422   H     0.79923   0.62344   0.19036   0.00000  Uiso   1.00
N423   N     0.83333   0.61736   0.25000   0.00000  Uiso   1.00
N424   N     0.83333   0.38264   0.25000   0.00000  Uiso   1.00
O425   O     0.77321   0.53958   0.24999   0.00000  Uiso   1.00
O426   O     0.89345   0.46042   0.25000   0.00000  Uiso   1.00
O427   O     0.89345   0.53958   0.25000   0.00000  Uiso   1.00
O428   O     0.77321   0.46042   0.24999   0.00000  Uiso   1.00
O429   O     0.83332   0.53960   0.18513   0.00000  Uiso   1.00
O430   O     0.83334   0.46040   0.31487   0.00000  Uiso   1.00
O431   O     0.83334   0.53960   0.31487   0.00000  Uiso   1.00
O432   O     0.83332   0.46040   0.18513   0.00000  Uiso   1.00
C433   C     0.91083   0.49577   0.38142   0.00000  Uiso   1.00
O434   O     0.91672   0.46479   0.35422   0.00000  Uiso   1.00
O435   O     0.94019   0.53032   0.38836   0.00000  Uiso   1.00
H436   H     0.96498   0.52588   0.36888   0.00000  Uiso   1.00
C437   C     0.75598   0.50448   0.11852   0.00000  Uiso   1.00
O438   O     0.75004   0.53595   0.14519   0.00000  Uiso   1.00
O439   O     0.72666   0.46975   0.11212   0.00000  Uiso   1.00
H440   H     0.70185   0.47449   0.13151   0.00000  Uiso   1.00
C441   C     0.70808   0.41219   0.23786   0.00000  Uiso   1.00
O442   O     0.71420   0.39498   0.20128   0.00000  Uiso   1.00
O443   O     0.72122   0.38979   0.27674   0.00000  Uiso   1.00
H444   H     0.73806   0.36100   0.27054   0.00000  Uiso   1.00
C445   C     0.95842   0.58881   0.25939   0.00000  Uiso   1.00
O446   O     0.94456   0.61080   0.22784   0.00000  Uiso   1.00
O447   O     0.95676   0.60710   0.30244   0.00000  Uiso   1.00
H448   H     0.94333   0.63895   0.30341   0.00000  Uiso   1.00
C449   C     0.95723   0.41551   0.22165   0.00000  Uiso   1.00
O450   O     0.95874   0.37974   0.24415   0.00000  Uiso   1.00
O451   O     0.93533   0.41627   0.18175   0.00000  Uiso   1.00
H452   H     0.92182   0.38513   0.17520   0.00000  Uiso   1.00
C453   C     0.70833   0.58894   0.25041   0.00000  Uiso   1.00
O454   O     0.72001   0.60668   0.28512   0.00000  Uiso   1.00
O455   O     0.71378   0.61165   0.20958   0.00000  Uiso   1.00
H456   H     0.72890   0.64223   0.21253   0.00000  Uiso   1.00
C457   C     0.08729   0.83332   0.24957   0.00000  Uiso   1.00
C458   C     0.24586   0.83350   0.24822   0.00000  Uiso   1.00
C459   C     0.09254   0.83986   0.02110   0.00000  Uiso   1.00
C460   C     0.24092   0.82648   0.47890   0.00000  Uiso   1.00
C461   C     0.02062   0.79118   0.24128   0.00000  Uiso   1.00
C462   C     0.31207   0.87644   0.25179   0.00000  Uiso   1.00
C463   C     0.31173   0.79204   0.23684   0.00000  Uiso   1.00
C464   C     0.02099   0.87627   0.25112   0.00000  Uiso   1.00
C465   C     0.29038   0.83410   0.24520   0.00000  Uiso   1.00
C466   C     0.04245   0.83345   0.24797   0.00000  Uiso   1.00
C467   C     0.14755   0.69156   0.21702   0.00000  Uiso   1.00
C468   C     0.18598   0.97509   0.28285   0.00000  Uiso   1.00
C469   C     0.18614   0.69135   0.28275   0.00000  Uiso   1.00
C470   C     0.14772   0.97532   0.21691   0.00000  Uiso   1.00
C471   C     0.16635   0.83344   0.16454   0.00000  Uiso   1.00
C472   C     0.16705   0.83322   0.33546   0.00000  Uiso   1.00
C473   C     0.20545   0.83049   0.40673   0.00000  Uiso   1.00
C474   C     0.12802   0.83611   0.09325   0.00000  Uiso   1.00
C475   C     0.16827   0.83283   0.38361   0.00000  Uiso   1.00
C476   C     0.16517   0.83378   0.11639   0.00000  Uiso   1.00
C477   C     0.13151   0.83592   0.40616   0.00000  Uiso   1.00
C478   C     0.20194   0.83049   0.09386   0.00000  Uiso   1.00
C479   C     0.13070   0.83630   0.45242   0.00000  Uiso   1.00
C480   C     0.20275   0.83006   0.04759   0.00000  Uiso   1.00
C481   C     0.16731   0.83329   0.47653   0.00000  Uiso   1.00
C482   C     0.16615   0.83309   0.02347   0.00000  Uiso   1.00
C483   C     0.20498   0.83040   0.45382   0.00000  Uiso   1.00
C484   C     0.12849   0.83604   0.04618   0.00000  Uiso   1.00
C485   C     0.09370   0.83972   0.47480   0.00000  Uiso   1.00
C486   C     0.23976   0.82657   0.02520   0.00000  Uiso   1.00
Cu487  Cu    0.16667   0.88022   0.25000   0.00000  Uiso   1.00
Cu488  Cu    0.16667   0.78645   0.25000   0.00000  Uiso   1.00
H489   H     0.10342   0.83812   0.38741   0.00000  Uiso   1.00
H490   H     0.23002   0.82823   0.11263   0.00000  Uiso   1.00
H491   H     0.06550   0.84246   0.45643   0.00000  Uiso   1.00
H492   H     0.26795   0.82377   0.04358   0.00000  Uiso   1.00
H493   H     0.06324   0.84340   0.03685   0.00000  Uiso   1.00
H494   H     0.27021   0.82289   0.46315   0.00000  Uiso   1.00
H495   H     0.13204   0.71025   0.19067   0.00000  Uiso   1.00
H496   H     0.20145   0.95636   0.30919   0.00000  Uiso   1.00
H497   H     0.20190   0.70988   0.30891   0.00000  Uiso   1.00
H498   H     0.13256   0.95677   0.19036   0.00000  Uiso   1.00
N499   N     0.16667   0.95069   0.25000   0.00000  Uiso   1.00
N500   N     0.16667   0.71598   0.25000   0.00000  Uiso   1.00
O501   O     0.10655   0.87291   0.24999   0.00000  Uiso   1.00
O502   O     0.22679   0.79375   0.25000   0.00000  Uiso   1.00
O503   O     0.22679   0.87291   0.25000   0.00000  Uiso   1.00
O504   O     0.10655   0.79375   0.24999   0.00000  Uiso   1.00
O505   O     0.16666   0.87293   0.18513   0.00000  Uiso   1.00
O506   O     0.16668   0.79373   0.31487   0.00000  Uiso   1.00
O507   O     0.16668   0.87293   0.31487   0.00000  Uiso   1.00
O508   O     0.16666   0.79373   0.18513   0.00000  Uiso   1.00
C509   C     0.24416   0.82911   0.38142   0.00000  Uiso   1.00
O510   O     0.25005   0.79812   0.35422   0.00000  Uiso   1.00
O511   O     0.27353   0.86366   0.38836   0.00000  Uiso   1.00
H512   H     0.29831   0.85922   0.36888   0.00000  Uiso   1.00
C513   C     0.08931   0.83781   0.11852   0.00000  Uiso   1.00
O514   O     0.08337   0.86928   0.14519   0.00000  Uiso   1.00
O515   O     0.05999   0.80309   0.11212   0.00000  Uiso   1.00
H516   H     0.03519   0.80782   0.13151   0.00000  Uiso   1.00
C517   C     0.04141   0.74553   0.23786   0.00000  Uiso   1.00
O518   O     0.04754   0.72831   0.20128   0.00000  Uiso   1.00
O519   O     0.05456   0.72313   0.27674   0.00000  Uiso   1.00
H520   H     0.07139   0.69433   0.27054   0.00000  Uiso   1.00
C521   C     0.29175   0.92214   0.25939   0.00000  Uiso   1.00
O522   O     0.27789   0.94413   0.22784   0.00000  Uiso   1.00
O523   O     0.29010   0.94043   0.30244   0.00000  Uiso   1.00
H524   H     0.27666   0.97229   0.30341   0.00000  Uiso   1.00
C525   C     0.29056   0.74885   0.22165   0.00000  Uiso   1.00
O526   O     0.29207   0.71308   0.24415   0.00000  Uiso   1.00
O527   O     0.26867   0.74960   0.18175   0.00000  Uiso   1.00
H528   H     0.25515   0.71846   0.17520   0.00000  Uiso   1.00
C529   C     0.04167   0.92227   0.25041   0.00000  Uiso   1.00
O530   O     0.05334   0.94001   0.28512   0.00000  Uiso   1.00
O531   O     0.04711   0.94498   0.20958   0.00000  Uiso   1.00
H532   H     0.06223   0.97556   0.21253   0.00000  Uiso   1.00
C533   C     0.42062   0.83332   0.24957   0.00000  Uiso   1.00
C534   C     0.57919   0.83350   0.24822   0.00000  Uiso   1.00
C535   C     0.42587   0.83986   0.02110   0.00000  Uiso   1.00
C536   C     0.57425   0.82648   0.47890   0.00000  Uiso   1.00
C537   C     0.35396   0.79118   0.24128   0.00000  Uiso   1.00
C538   C     0.64541   0.87644   0.25179   0.00000  Uiso   1.00
C539   C     0.64506   0.79204   0.23684   0.00000  Uiso   1.00
C540   C     0.35432   0.87627   0.25112   0.00000  Uiso   1.00
C541   C     0.62371   0.83410   0.24520   0.00000  Uiso   1.00
C542   C     0.37578   0.83345   0.24797   0.00000  Uiso   1.00
C543   C     0.48088   0.69156   0.21702   0.00000  Uiso   1.00
C544   C     0.51931   0.97509   0.28285   0.00000  Uiso   1.00
C545   C     0.51947   0.69135   0.28275   0.00000  Uiso   1.00
C546   C     0.48106   0.97532   0.21691   0.00000  Uiso   1.00
C547   C     0.49968   0.83344   0.16454   0.00000  Uiso   1.00
C548   C     0.50038   0.83322   0.33546   0.00000  Uiso   1.00
C549   C     0.53878   0.83049   0.40673   0.00000  Uiso   1.00
C550   C     0.46135   0.83611   0.09325   0.00000  Uiso   1.00
C551   C     0.50161   0.83283   0.38361   0.00000  Uiso   1.00
C552   C     0.49851   0.83378   0.11639   0.00000  Uiso   1.00
C553   C     0.46484   0.83592   0.40616   0.00000  Uiso   1.00
C554   C     0.53527   0.83049   0.09386   0.00000  Uiso   1.00
C555   C     0.46404   0.83630   0.45242   0.00000  Uiso   1.00
C556   C     0.53609   0.83006   0.04759   0.00000  Uiso   1.00
C557   C     0.50064   0.83329   0.47653   0.00000  Uiso   1.00
C558   C     0.49949   0.83309   0.02347   0.00000  Uiso   1.00
C559   C     0.53831   0.83040   0.45382   0.00000  Uiso   1.00
C560   C     0.46182   0.83604   0.04618   0.00000  Uiso   1.00
C561   C     0.42703   0.83972   0.47480   0.00000  Uiso   1.00
C562   C     0.57309   0.82657   0.02520   0.00000  Uiso   1.00
Cu563  Cu    0.50000   0.88022   0.25000   0.00000  Uiso   1.00
Cu564  Cu    0.50000   0.78645   0.25000   0.00000  Uiso   1.00
H565   H     0.43676   0.83812   0.38741   0.00000  Uiso   1.00
H566   H     0.56335   0.82823   0.11263   0.00000  Uiso   1.00
H567   H     0.39883   0.84246   0.45643   0.00000  Uiso   1.00
H568   H     0.60128   0.82377   0.04358   0.00000  Uiso   1.00
H569   H     0.39658   0.84340   0.03685   0.00000  Uiso   1.00
H570   H     0.60354   0.82289   0.46315   0.00000  Uiso   1.00
H571   H     0.46537   0.71025   0.19067   0.00000  Uiso   1.00
H572   H     0.53478   0.95636   0.30919   0.00000  Uiso   1.00
H573   H     0.53523   0.70988   0.30891   0.00000  Uiso   1.00
H574   H     0.46589   0.95677   0.19036   0.00000  Uiso   1.00
N575   N     0.50000   0.95069   0.25000   0.00000  Uiso   1.00
N576   N     0.50000   0.71598   0.25000   0.00000  Uiso   1.00
O577   O     0.43988   0.87291   0.24999   0.00000  Uiso   1.00
O578   O     0.56012   0.79375   0.25000   0.00000  Uiso   1.00
O579   O     0.56012   0.87291   0.25000   0.00000  Uiso   1.00
O580   O     0.43988   0.79375   0.24999   0.00000  Uiso   1.00
O581   O     0.49999   0.87293   0.18513   0.00000  Uiso   1.00
O582   O     0.50001   0.79373   0.31487   0.00000  Uiso   1.00
O583   O     0.50001   0.87293   0.31487   0.00000  Uiso   1.00
O584   O     0.49999   0.79373   0.18513   0.00000  Uiso   1.00
C585   C     0.57749   0.82911   0.38142   0.00000  Uiso   1.00
O586   O     0.58338   0.79812   0.35422   0.00000  Uiso   1.00
O587   O     0.60686   0.86366   0.38836   0.00000  Uiso   1.00
H588   H     0.63165   0.85922   0.36888   0.00000  Uiso   1.00
C589   C     0.42265   0.83781   0.11852   0.00000  Uiso   1.00
O590   O     0.41670   0.86928   0.14519   0.00000  Uiso   1.00
O591   O     0.39332   0.80309   0.11212   0.00000  Uiso   1.00
H592   H     0.36852   0.80782   0.13151   0.00000  Uiso   1.00
C593   C     0.37474   0.74553   0.23786   0.00000  Uiso   1.00
O594   O     0.38087   0.72831   0.20128   0.00000  Uiso   1.00
O595   O     0.38789   0.72313   0.27674   0.00000  Uiso   1.00
H596   H     0.40472   0.69433   0.27054   0.00000  Uiso   1.00
C597   C     0.62509   0.92214   0.25939   0.00000  Uiso   1.00
O598   O     0.61122   0.94413   0.22784   0.00000  Uiso   1.00
O599   O     0.62343   0.94043   0.30244   0.00000  Uiso   1.00
H600   H     0.60999   0.97229   0.30341   0.00000  Uiso   1.00
C601   C     0.62389   0.74885   0.22165   0.00000  Uiso   1.00
O602   O     0.62541   0.71308   0.24415   0.00000  Uiso   1.00
O603   O     0.60200   0.74960   0.18175   0.00000  Uiso   1.00
H604   H     0.58849   0.71846   0.17520   0.00000  Uiso   1.00
C605   C     0.37500   0.92227   0.25041   0.00000  Uiso   1.00
O606   O     0.38668   0.94001   0.28512   0.00000  Uiso   1.00
O607   O     0.38045   0.94498   0.20958   0.00000  Uiso   1.00
H608   H     0.39556   0.97556   0.21253   0.00000  Uiso   1.00
C609   C     0.75396   0.83332   0.24957   0.00000  Uiso   1.00
C610   C     0.91253   0.83350   0.24822   0.00000  Uiso   1.00
C611   C     0.75921   0.83986   0.02110   0.00000  Uiso   1.00
C612   C     0.90758   0.82648   0.47890   0.00000  Uiso   1.00
C613   C     0.68729   0.79118   0.24128   0.00000  Uiso   1.00
C614   C     0.97874   0.87644   0.25179   0.00000  Uiso   1.00
C615   C     0.97839   0.79204   0.23684   0.00000  Uiso   1.00
C616   C     0.68765   0.87627   0.25112   0.00000  Uiso   1.00
C617   C     0.95705   0.83410   0.24520   0.00000  Uiso   1.00
C618   C     0.70912   0.83345   0.24797   0.00000  Uiso   1.00
C619   C     0.81422   0.69156   0.21702   0.00000  Uiso   1.00
C620   C     0.85265   0.97509   0.28285   0.00000  Uiso   1.00
C621   C     0.85280   0.69135   0.28275   0.00000  Uiso   1.00
C622   C     0.81439   0.97532   0.21691   0.00000  Uiso   1.00
C623   C     0.83301   0.83344   0.16454   0.00000  Uiso   1.00
C624   C     0.83371   0.83322   0.33546   0.00000  Uiso   1.00
C625   C     0.87211   0.83049   0.40673   0.00000  Uiso   1.00
C626   C     0.79469   0.83611   0.09325   0.00000  Uiso   1.00
C627   C     0.83494   0.83283   0.38361   0.00000  Uiso   1.00
C628   C     0.83184   0.83378   0.11639   0.00000  Uiso   1.00
C629   C     0.79818   0.83592   0.40616   0.00000  Uiso   1.00
C630   C     0.86861   0.83049   0.09386   0.00000  Uiso   1.00
C631   C     0.79737   0.83630   0.45242   0.00000  Uiso   1.00
C632   C     0.86942   0.83006   0.04759   0.00000  Uiso   1.00
C633   C     0.83398   0.83329   0.47653   0.00000  Uiso   1.00
C634   C     0.83282   0.83309   0.02347   0.00000  Uiso   1.00
C635   C     0.87165   0.83040   0.45382   0.00000  Uiso   1.00
C636   C     0.79515   0.83604   0.04618   0.00000  Uiso   1.00
C637   C     0.76036   0.83972   0.47480   0.00000  Uiso   1.00
C638   C     0.90642   0.82657   0.02520   0.00000  Uiso   1.00
Cu639  Cu    0.83333   0.88022   0.25000   0.00000  Uiso   1.00
Cu640  Cu    0.83333   0.78645   0.25000   0.00000  Uiso   1.00
H641   H     0.77009   0.83812   0.38741   0.00000  Uiso   1.00
H642   H     0.89668   0.82823   0.11263   0.00000  Uiso   1.00
H643   H     0.73217   0.84246   0.45643   0.00000  Uiso   1.00
H644   H     0.93462   0.82377   0.04358   0.00000  Uiso   1.00
H645   H     0.72991   0.84340   0.03685   0.00000  Uiso   1.00
H646   H     0.93687   0.82289   0.46315   0.00000  Uiso   1.00
H647   H     0.79871   0.71025   0.19067   0.00000  Uiso   1.00
H648   H     0.86812   0.95636   0.30919   0.00000  Uiso   1.00
H649   H     0.86856   0.70988   0.30891   0.00000  Uiso   1.00
H650   H     0.79923   0.95677   0.19036   0.00000  Uiso   1.00
N651   N     0.83333   0.95069   0.25000   0.00000  Uiso   1.00
N652   N     0.83333   0.71598   0.25000   0.00000  Uiso   1.00
O653   O     0.77321   0.87291   0.24999   0.00000  Uiso   1.00
O654   O     0.89345   0.79375   0.25000   0.00000  Uiso   1.00
O655   O     0.89345   0.87291   0.25000   0.00000  Uiso   1.00
O656   O     0.77321   0.79375   0.24999   0.00000  Uiso   1.00
O657   O     0.83332   0.87293   0.18513   0.00000  Uiso   1.00
O658   O     0.83334   0.79373   0.31487   0.00000  Uiso   1.00
O659   O     0.83334   0.87293   0.31487   0.00000  Uiso   1.00
O660   O     0.83332   0.79373   0.18513   0.00000  Uiso   1.00
C661   C     0.91083   0.82911   0.38142   0.00000  Uiso   1.00
O662   O     0.91672   0.79812   0.35422   0.00000  Uiso   1.00
O663   O     0.94019   0.86366   0.38836   0.00000  Uiso   1.00
H664   H     0.96498   0.85922   0.36888   0.00000  Uiso   1.00
C665   C     0.75598   0.83781   0.11852   0.00000  Uiso   1.00
O666   O     0.75004   0.86928   0.14519   0.00000  Uiso   1.00
O667   O     0.72666   0.80309   0.11212   0.00000  Uiso   1.00
H668   H     0.70185   0.80782   0.13151   0.00000  Uiso   1.00
C669   C     0.70808   0.74553   0.23786   0.00000  Uiso   1.00
O670   O     0.71420   0.72831   0.20128   0.00000  Uiso   1.00
O671   O     0.72122   0.72313   0.27674   0.00000  Uiso   1.00
H672   H     0.73806   0.69433   0.27054   0.00000  Uiso   1.00
C673   C     0.95842   0.92214   0.25939   0.00000  Uiso   1.00
O674   O     0.94456   0.94413   0.22784   0.00000  Uiso   1.00
O675   O     0.95676   0.94043   0.30244   0.00000  Uiso   1.00
H676   H     0.94333   0.97229   0.30341   0.00000  Uiso   1.00
C677   C     0.95723   0.74885   0.22165   0.00000  Uiso   1.00
O678   O     0.95874   0.71308   0.24415   0.00000  Uiso   1.00
O679   O     0.93533   0.74960   0.18175   0.00000  Uiso   1.00
H680   H     0.92182   0.71846   0.17520   0.00000  Uiso   1.00
C681   C     0.70833   0.92227   0.25041   0.00000  Uiso   1.00
O682   O     0.72001   0.94001   0.28512   0.00000  Uiso   1.00
O683   O     0.71378   0.94498   0.20958   0.00000  Uiso   1.00
H684   H     0.72890   0.97556   0.21253   0.00000  Uiso   1.00
C685   C     0.08729   0.16665   0.74957   0.00000  Uiso   1.00
C686   C     0.24586   0.16684   0.74822   0.00000  Uiso   1.00
C687   C     0.09254   0.17320   0.52110   0.00000  Uiso   1.00
C688   C     0.24092   0.15981   0.97890   0.00000  Uiso   1.00
C689   C     0.02062   0.12452   0.74128   0.00000  Uiso   1.00
C690   C     0.31207   0.20977   0.75179   0.00000  Uiso   1.00
C691   C     0.31173   0.12537   0.73684   0.00000  Uiso   1.00
C692   C     0.02099   0.20960   0.75112   0.00000  Uiso   1.00
C693   C     0.29038   0.16743   0.74520   0.00000  Uiso   1.00
C694   C     0.04245   0.16679   0.74797   0.00000  Uiso   1.00
C695   C     0.14755   0.02490   0.71702   0.00000  Uiso   1.00
C696   C     0.18598   0.30843   0.78285   0.00000  Uiso   1.00
C697   C     0.18614   0.02468   0.78275   0.00000  Uiso   1.00
C698   C     0.14772   0.30865   0.71691   0.00000  Uiso   1.00
C699   C     0.16635   0.16677   0.66454   0.00000  Uiso   1.00
C700   C     0.16705   0.16655   0.83546   0.00000  Uiso   1.00
C701   C     0.20545   0.16382   0.90673   0.00000  Uiso   1.00
C702   C     0.12802   0.16945   0.59325   0.00000  Uiso   1.00
C703   C     0.16827   0.16616   0.88361   0.00000  Uiso   1.00
C704   C     0.16517   0.16711   0.61639   0.00000  Uiso   1.00
C705   C     0.13151   0.16925   0.90616   0.00000  Uiso   1.00
C706   C     0.20194   0.16383   0.59386   0.00000  Uiso   1.00
C707   C     0.13070   0.16963   0.95242   0.00000  Uiso   1.00
C708   C     0.20275   0.16339   0.54759   0.00000  Uiso   1.00
C709   C     0.16731   0.16663   0.97653   0.00000  Uiso   1.00
C710   C     0.16615   0.16642   0.52347   0.00000  Uiso   1.00
C711   C     0.20498   0.16373   0.95382   0.00000  Uiso   1.00
C712   C     0.12849   0.16937   0.54618   0.00000  Uiso   1.00
C713   C     0.09370   0.17305   0.97480   0.00000  Uiso   1.00
C714   C     0.23976   0.15991   0.52520   0.00000  Uiso   1.00
Cu715  Cu    0.16667   0.21355   0.75000   0.00000  Uiso   1.00
Cu716  Cu    0.16667   0.11978   0.75000   0.00000  Uiso   1.00
H717   H     0.10342   0.17146   0.88741   0.00000  Uiso   1.00
H718   H     0.23002   0.16156   0.61263   0.00000  Uiso   1.00
H719   H     0.06550   0.17580   0.95643   0.00000  Uiso   1.00
H720   H     0.26795   0.15710   0.54358   0.00000  Uiso   1.00
H721   H     0.06324   0.17673   0.53685   0.00000  Uiso   1.00
H722   H     0.27021   0.15622   0.96315   0.00000  Uiso   1.00
H723   H     0.13204   0.04358   0.69067   0.00000  Uiso   1.00
H724   H     0.20145   0.28970   0.80919   0.00000  Uiso   1.00
H725   H     0.20190   0.04321   0.80891   0.00000  Uiso   1.00
H726   H     0.13256   0.29010   0.69036   0.00000  Uiso   1.00
N727   N     0.16667   0.28402   0.75000   0.00000  Uiso   1.00
N728   N     0.16667   0.04931   0.75000   0.00000  Uiso   1.00
O729   O     0.10655   0.20625   0.74999   0.00000  Uiso   1.00
O730   O     0.22679   0.12709   0.75000   0.00000  Uiso   1.00
O731   O     0.22679   0.20625   0.75000   0.00000  Uiso   1.00
O732   O     0.10655   0.12709   0.74999   0.00000  Uiso   1.00
O733   O     0.16666   0.20627   0.68513   0.00000  Uiso   1.00
O734   O     0.16668   0.12707   0.81487   0.00000  Uiso   1.00
O735   O     0.16668   0.20627   0.81487   0.00000  Uiso   1.00
O736   O     0.16666   0.12707   0.68513   0.00000  Uiso   1.00
C737   C     0.24416   0.16244   0.88142   0.00000  Uiso   1.00
O738   O     0.25005   0.13146   0.85422   0.00000  Uiso   1.00
O739   O     0.27353   0.19699   0.88836   0.00000  Uiso   1.00
H740   H     0.29831   0.19255   0.86888   0.00000  Uiso   1.00
C741   C     0.08931   0.17115   0.61852   0.00000  Uiso   1.00
O742   O     0.08337   0.20261   0.64519   0.00000  Uiso   1.00
O743   O     0.05999   0.13642   0.61212   0.00000  Uiso   1.00
H744   H     0.03519   0.14116   0.63151   0.00000  Uiso   1.00
C745   C     0.04141   0.07886   0.73786   0.00000  Uiso   1.00
O746   O     0.04754   0.06164   0.70128   0.00000  Uiso   1.00
O747   O     0.05456   0.05646   0.77674   0.00000  Uiso   1.00
H748   H     0.07139   0.02767   0.77054   0.00000  Uiso   1.00
C749   C     0.29175   0.25548   0.75939   0.00000  Uiso   1.00
O750   O     0.27789   0.27747   0.72784   0.00000  Uiso   1.00
O751   O     0.29010   0.27376   0.80244   0.00000  Uiso   1.00
H752   H     0.27666   0.30562   0.80341   0.00000  Uiso   1.00
C753   C     0.29056   0.08218   0.72165   0.00000  Uiso   1.00
O754   O     0.29207   0.04641   0.74415   0.00000  Uiso   1.00
O755   O     0.26867   0.08293   0.68175   0.00000  Uiso   1.00
H756   H     0.25515   0.05179   0.67520   0.00000  Uiso   1.00
C757   C     0.04167   0.25560   0.75041   0.00000  Uiso   1.00
O758   O     0.05334   0.27334   0.78512   0.00000  Uiso   1.00
O759   O     0.04711   0.27832   0.70958   0.00000  Uiso   1.00
H760   H     0.06223   0.30889   0.71253   0.00000  Uiso   1.00
C761   C     0.42062   0.16665   0.74957   0.00000  Uiso   1.00
C762   C     0.57919   0.16684   0.74822   0.00000  Uiso   1.00
C763   C     0.42587   0.17320   0.52110   0.00000  Uiso   1.00
C764   C     0.57425   0.15981   0.97890   0.00000  Uiso   1.00
C765   C     0.35396   0.12452   0.74128   0.00000  Uiso   1.00
C766   C     0.64541   0.20977   0.75179   0.00000  Uiso   1.00
C767   C     0.64506   0.12537   0.73684   0.00000  Uiso   1.00
C768   C     0.35432   0.20960   0.75112   0.00000  Uiso   1.00
C769   C     0.62371   0.16743   0.74520   0.00000  Uiso   1.00
C770   C     0.37578   0.16679   0.74797   0.00000  Uiso   1.00
C771   C     0.48088   0.02490   0.71702   0.00000  Uiso   1.00
C772   C     0.51931   0.30843   0.78285   0.00000  Uiso   1.00
C773   C     0.51947   0.02468   0.78275   0.00000  Uiso   1.00
C774   C     0.48106   0.30865   0.71691   0.00000  Uiso   1.00
C775   C     0.49968   0.16677   0.66454   0.00000  Uiso   1.00
C776   C     0.50038   0.16655   0.83546   0.00000  Uiso   1.00
C777   C     0.53878   0.16382   0.90673   0.00000  Uiso   1.00
C778   C     0.46135   0.16945   0.59325   0.00000  Uiso   1.00
C779   C     0.50161   0.16616   0.88361   0.00000  Uiso   1.00
C780   C     0.49851   0.16711   0.61639   0.00000  Uiso   1.00
C781   C     0.46484   0.16925   0.90616   0.00000  Uiso   1.00
C782   C     0.53527   0.16383   0.59386   0.00000  Uiso   1.00
C783   C     0.46404   0.16963   0.95242   0.00000  Uiso   1.00
C784   C     0.53609   0.16339   0.54759   0.00000  Uiso   1.00
C785   C     0.50064   0.16663   0.97653   0.00000  Uiso   1.00
C786   C     0.49949   0.16642   0.52347   0.00000  Uiso   1.00
C787   C     0.53831   0.16373   0.95382   0.00000  Uiso   1.00
C788   C     0.46182   0.16937   0.54618   0.00000  Uiso   1.00
C789   C     0.42703   0.17305   0.97480   0.00000  Uiso   1.00
C790   C     0.57309   0.15991   0.52520   0.00000  Uiso   1.00
Cu791  Cu    0.50000   0.21355   0.75000   0.00000  Uiso   1.00
Cu792  Cu    0.50000   0.11978   0.75000   0.00000  Uiso   1.00
H793   H     0.43676   0.17146   0.88741   0.00000  Uiso   1.00
H794   H     0.56335   0.16156   0.61263   0.00000  Uiso   1.00
H795   H     0.39883   0.17580   0.95643   0.00000  Uiso   1.00
H796   H     0.60128   0.15710   0.54358   0.00000  Uiso   1.00
H797   H     0.39658   0.17673   0.53685   0.00000  Uiso   1.00
H798   H     0.60354   0.15622   0.96315   0.00000  Uiso   1.00
H799   H     0.46537   0.04358   0.69067   0.00000  Uiso   1.00
H800   H     0.53478   0.28970   0.80919   0.00000  Uiso   1.00
H801   H     0.53523   0.04321   0.80891   0.00000  Uiso   1.00
H802   H     0.46589   0.29010   0.69036   0.00000  Uiso   1.00
N803   N     0.50000   0.28402   0.75000   0.00000  Uiso   1.00
N804   N     0.50000   0.04931   0.75000   0.00000  Uiso   1.00
O805   O     0.43988   0.20625   0.74999   0.00000  Uiso   1.00
O806   O     0.56012   0.12709   0.75000   0.00000  Uiso   1.00
O807   O     0.56012   0.20625   0.75000   0.00000  Uiso   1.00
O808   O     0.43988   0.12709   0.74999   0.00000  Uiso   1.00
O809   O     0.49999   0.20627   0.68513   0.00000  Uiso   1.00
O810   O     0.50001   0.12707   0.81487   0.00000  Uiso   1.00
O811   O     0.50001   0.20627   0.81487   0.00000  Uiso   1.00
O812   O     0.49999   0.12707   0.68513   0.00000  Uiso   1.00
C813   C     0.57749   0.16244   0.88142   0.00000  Uiso   1.00
O814   O     0.58338   0.13146   0.85422   0.00000  Uiso   1.00
O815   O     0.60686   0.19699   0.88836   0.00000  Uiso   1.00
H816   H     0.63165   0.19255   0.86888   0.00000  Uiso   1.00
C817   C     0.42265   0.17115   0.61852   0.00000  Uiso   1.00
O818   O     0.41670   0.20261   0.64519   0.00000  Uiso   1.00
O819   O     0.39332   0.13642   0.61212   0.00000  Uiso   1.00
H820   H     0.36852   0.14116   0.63151   0.00000  Uiso   1.00
C821   C     0.37474   0.07886   0.73786   0.00000  Uiso   1.00
O822   O     0.38087   0.06164   0.70128   0.00000  Uiso   1.00
O823   O     0.38789   0.05646   0.77674   0.00000  Uiso   1.00
H824   H     0.40472   0.02767   0.77054   0.00000  Uiso   1.00
C825   C     0.62509   0.25548   0.75939   0.00000  Uiso   1.00
O826   O     0.61122   0.27747   0.72784   0.00000  Uiso   1.00
O827   O     0.62343   0.27376   0.80244   0.00000  Uiso   1.00
H828   H     0.60999   0.30562   0.80341   0.00000  Uiso   1.00
C829   C     0.62389   0.08218   0.72165   0.00000  Uiso   1.00
O830   O     0.62541   0.04641   0.74415   0.00000  Uiso   1.00
O831   O     0.60200   0.08293   0.68175   0.00000  Uiso   1.00
H832   H     0.58849   0.05179   0.67520   0.00000  Uiso   1.00
C833   C     0.37500   0.25560   0.75041   0.00000  Uiso   1.00
O834   O     0.38668   0.27334   0.78512   0.00000  Uiso   1.00
O835   O     0.38045   0.27832   0.70958   0.00000  Uiso   1.00
H836   H     0.39556   0.30889   0.71253   0.00000  Uiso   1.00
C837   C     0.75396   0.16665   0.74957   0.00000  Uiso   1.00
C838   C     0.91253   0.16684   0.74822   0.00000  Uiso   1.00
C839   C     0.75921   0.17320   0.52110   0.00000  Uiso   1.00
C840   C     0.90758   0.15981   0.97890   0.00000  Uiso   1.00
C841   C     0.68729   0.12452   0.74128   0.00000  Uiso   1.00
C842   C     0.97874   0.20977   0.75179   0.00000  Uiso   1.00
C843   C     0.97839   0.12537   0.73684   0.00000  Uiso   1.00
C844   C     0.68765   0.20960   0.75112   0.00000  Uiso   1.00
C845   C     0.95705   0.16743   0.74520   0.00000  Uiso   1.00
C846   C     0.70912   0.16679   0.74797   0.00000  Uiso   1.00
C847   C     0.81422   0.02490   0.71702   0.00000  Uiso   1.00
C848   C     0.85265   0.30843   0.78285   0.00000  Uiso   1.00
C849   C     0.85280   0.02468   0.78275   0.00000  Uiso   1.00
C850   C     0.81439   0.30865   0.71691   0.00000  Uiso   1.00
C851   C     0.83301   0.16677   0.66454   0.00000  Uiso   1.00
C852   C     0.83371   0.16655   0.83546   0.00000  Uiso   1.00
C853   C     0.87211   0.16382   0.90673   0.00000  Uiso   1.00
C854   C     0.79469   0.16945   0.59325   0.00000  Uiso   1.00
C855   C     0.83494   0.16616   0.88361   0.00000  Uiso   1.00
C856   C     0.83184   0.16711   0.61639   0.00000  Uiso   1.00
C857   C     0.79818   0.16925   0.90616   0.00000  Uiso   1.00
C858   C     0.86861   0.16383   0.59386   0.00000  Uiso   1.00
C859   C     0.79737   0.16963   0.95242   0.00000  Uiso   1.00
C860   C     0.86942   0.16339   0.54759   0.00000  Uiso   1.00
C861   C     0.83398   0.16663   0.97653   0.00000  Uiso   1.00
C862   C     0.83282   0.16642   0.52347   0.00000  Uiso   1.00
C863   C     0.87165   0.16373   0.95382   0.00000  Uiso   1.00
C864   C     0.79515   0.16937   0.54618   0.00000  Uiso   1.00
C865   C     0.76036   0.17305   0.97480   0.00000  Uiso   1.00
C866   C     0.90642   0.15991   0.52520   0.00000  Uiso   1.00
Cu867  Cu    0.83333   0.21355   0.75000   0.00000  Uiso   1.00
Cu868  Cu    0.83333   0.11978   0.75000   0.00000  Uiso   1.00
H869   H     0.77009   0.17146   0.88741   0.00000  Uiso   1.00
H870   H     0.89668   0.16156   0.61263   0.00000  Uiso   1.00
H871   H     0.73217   0.17580   0.95643   0.00000  Uiso   1.00
H872   H     0.93462   0.15710   0.54358   0.00000  Uiso   1.00
H873   H     0.72991   0.17673   0.53685   0.00000  Uiso   1.00
H874   H     0.93687   0.15622   0.96315   0.00000  Uiso   1.00
H875   H     0.79871   0.04358   0.69067   0.00000  Uiso   1.00
H876   H     0.86812   0.28970   0.80919   0.00000  Uiso   1.00
H877   H     0.86856   0.04321   0.80891   0.00000  Uiso   1.00
H878   H     0.79923   0.29010   0.69036   0.00000  Uiso   1.00
N879   N     0.83333   0.28402   0.75000   0.00000  Uiso   1.00
N880   N     0.83333   0.04931   0.75000   0.00000  Uiso   1.00
O881   O     0.77321   0.20625   0.74999   0.00000  Uiso   1.00
O882   O     0.89345   0.12709   0.75000   0.00000  Uiso   1.00
O883   O     0.89345   0.20625   0.75000   0.00000  Uiso   1.00
O884   O     0.77321   0.12709   0.74999   0.00000  Uiso   1.00
O885   O     0.83332   0.20627   0.68513   0.00000  Uiso   1.00
O886   O     0.83334   0.12707   0.81487   0.00000  Uiso   1.00
O887   O     0.83334   0.20627   0.81487   0.00000  Uiso   1.00
O888   O     0.83332   0.12707   0.68513   0.00000  Uiso   1.00
C889   C     0.91083   0.16244   0.88142   0.00000  Uiso   1.00
O890   O     0.91672   0.13146   0.85422   0.00000  Uiso   1.00
O891   O     0.94019   0.19699   0.88836   0.00000  Uiso   1.00
H892   H     0.96498   0.19255   0.86888   0.00000  Uiso   1.00
C893   C     0.75598   0.17115   0.61852   0.00000  Uiso   1.00
O894   O     0.75004   0.20261   0.64519   0.00000  Uiso   1.00
O895   O     0.72666   0.13642   0.61212   0.00000  Uiso   1.00
H896   H     0.70185   0.14116   0.63151   0.00000  Uiso   1.00
C897   C     0.70808   0.07886   0.73786   0.00000  Uiso   1.00
O898   O     0.71420   0.06164   0.70128   0.00000  Uiso   1.00
O899   O     0.72122   0.05646   0.77674   0.00000  Uiso   1.00
H900   H     0.73806   0.02767   0.77054   0.00000  Uiso   1.00
C901   C     0.95842   0.25548   0.75939   0.00000  Uiso   1.00
O902   O     0.94456   0.27747   0.72784   0.00000  Uiso   1.00
O903   O     0.95676   0.27376   0.80244   0.00000  Uiso   1.00
H904   H     0.94333   0.30562   0.80341   0.00000  Uiso   1.00
C905   C     0.95723   0.08218   0.72165   0.00000  Uiso   1.00
O906   O     0.95874   0.04641   0.74415   0.00000  Uiso   1.00
O907   O     0.93533   0.08293   0.68175   0.00000  Uiso   1.00
H908   H     0.92182   0.05179   0.67520   0.00000  Uiso   1.00
C909   C     0.70833   0.25560   0.75041   0.00000  Uiso   1.00
O910   O     0.72001   0.27334   0.78512   0.00000  Uiso   1.00
O911   O     0.71378   0.27832   0.70958   0.00000  Uiso   1.00
H912   H     0.72890   0.30889   0.71253   0.00000  Uiso   1.00
C913   C     0.08729   0.49998   0.74957   0.00000  Uiso   1.00
C914   C     0.24586   0.50017   0.74822   0.00000  Uiso   1.00
C915   C     0.09254   0.50653   0.52110   0.00000  Uiso   1.00
C916   C     0.24092   0.49314   0.97890   0.00000  Uiso   1.00
C917   C     0.02062   0.45785   0.74128   0.00000  Uiso   1.00
C918   C     0.31207   0.54311   0.75179   0.00000  Uiso   1.00
C919   C     0.31173   0.45870   0.73684   0.00000  Uiso   1.00
C920   C     0.02099   0.54294   0.75112   0.00000  Uiso   1.00
C921   C     0.29038   0.50076   0.74520   0.00000  Uiso   1.00
C922   C     0.04245   0.50012   0.74797   0.00000  Uiso   1.00
C923   C     0.14755   0.35823   0.71702   0.00000  Uiso   1.00
C924   C     0.18598   0.64176   0.78285   0.00000  Uiso   1.00
C925   C     0.18614   0.35801   0.78275   0.00000  Uiso   1.00
C926   C     0.14772   0.64199   0.71691   0.00000  Uiso   1.00
C927   C     0.16635   0.50011   0.66454   0.00000  Uiso   1.00
C928   C     0.16705   0.49989   0.83546   0.00000  Uiso   1.00
C929   C     0.20545   0.49715   0.90673   0.00000  Uiso   1.00
C930   C     0.12802   0.50278   0.59325   0.00000  Uiso   1.00
C931   C     0.16827   0.49949   0.88361   0.00000  Uiso   1.00
C932   C     0.16517   0.50044   0.61639   0.00000  Uiso   1.00
C933   C     0.13151   0.50258   0.90616   0.00000  Uiso   1.00
C934   C     0.20194   0.49716   0.59386   0.00000  Uiso   1.00
C935   C     0.13070   0.50297   0.95242   0.00000  Uiso   1.00
C936   C     0.20275   0.49672   0.54759   0.00000  Uiso   1.00
C937   C     0.16731   0.49996   0.97653   0.00000  Uiso   1.00
C938   C     0.16615   0.49976   0.52347   0.00000  Uiso   1.00
C939   C     0.20498   0.49707   0.95382   0.00000  Uiso   1.00
C940   C     0.12849   0.50270   0.54618   0.00000  Uiso   1.00
C941   C     0.09370   0.50638   0.97480   0.00000  Uiso   1.00
C942   C     0.23976   0.49324   0.52520   0.00000  Uiso   1.00
Cu943  Cu    0.16667   0.54689   0.75000   0.00000  Uiso   1.00
Cu944  Cu    0.16667   0.45311   0.75000   0.00000  Uiso   1.00
H945   H     0.10342   0.50479   0.88741   0.00000  Uiso   1.00
H946   H     0.23002   0.49490   0.61263   0.00000  Uiso   1.00
H947   H     0.06550   0.50913   0.95643   0.00000  Uiso   1.00
H948   H     0.26795   0.49043   0.54358   0.00000  Uiso   1.00
H949   H     0.06324   0.51007   0.53685   0.00000  Uiso   1.00
H950   H     0.27021   0.48956   0.96315   0.00000  Uiso   1.00
H951   H     0.13204   0.37692   0.69067   0.00000  Uiso   1.00
H952   H     0.20145   0.62303   0.80919   0.00000  Uiso   1.00
H953   H     0.20190   0.37655   0.80891   0.00000  Uiso   1.00
H954   H     0.13256   0.62344   0.69036   0.00000  Uiso   1.00
N955   N     0.16667   0.61736   0.75000   0.00000  Uiso   1.00
N956   N     0.16667   0.38264   0.75000   0.00000  Uiso   1.00
O957   O     0.10655   0.53958   0.74999   0.00000  Uiso   1.00
O958   O     0.22679   0.46042   0.75000   0.00000  Uiso   1.00
O959   O     0.22679   0.53958   0.75000   0.00000  Uiso   1.00
O960   O     0.10655   0.46042   0.74999   0.00000  Uiso   1.00
O961   O     0.16666   0.53960   0.68513   0.00000  Uiso   1.00
O962   O     0.16668   0.46040   0.81487   0.00000  Uiso   1.00
O963   O     0.16668   0.53960   0.81487   0.00000  Uiso   1.00
O964   O     0.16666   0.46040   0.68513   0.00000  Uiso   1.00
C965   C     0.24416   0.49577   0.88142   0.00000  Uiso   1.00
O966   O     0.25005   0.46479   0.85422   0.00000  Uiso   1.00
O967   O     0.27353   0.53032   0.88836   0.00000  Uiso   1.00
H968   H     0.29831   0.52588   0.86888   0.00000  Uiso   1.00
C969   C     0.08931   0.50448   0.61852   0.00000  Uiso   1.00
O970   O     0.08337   0.53595   0.64519   0.00000  Uiso   1.00
O971   O     0.05999   0.46975   0.61212   0.00000  Uiso   1.00
H972   H     0.03519   0.47449   0.63151   0.00000  Uiso   1.00
C973   C     0.04141   0.41219   0.73786   0.00000  Uiso   1.00
O974   O     0.04754   0.39498   0.70128   0.00000  Uiso   1.00
O975   O     0.05456   0.38979   0.77674   0.00000  Uiso   1.00
H976   H     0.07139   0.36100   0.77054   0.00000  Uiso   1.00
C977   C     0.29175   0.58881   0.75939   0.00000  Uiso   1.00
O978   O     0.27789   0.61080   0.72784   0.00000  Uiso   1.00
O979   O     0.29010   0.60710   0.80244   0.00000  Uiso   1.00
H980   H     0.27666   0.63895   0.80341   0.00000  Uiso   1.00
C981   C     0.29056   0.41551   0.72165   0.00000  Uiso   1.00
O982   O     0.29207   0.37974   0.74415   0.00000  Uiso   1.00
O983   O     0.26867   0.41627   0.68175   0.00000  Uiso   1.00
H984   H     0.25515   0.38513   0.67520   0.00000  Uiso   1.00
C985   C     0.04167   0.58894   0.75041   0.00000  Uiso   1.00
O986   O     0.05334   0.60668   0.78512   0.00000  Uiso   1.00
O987   O     0.04711   0.61165   0.70958   0.00000  Uiso   1.00
H988   H     0.06223   0.64223   0.71253   0.00000  Uiso   1.00
C989   C     0.42062   0.49998   0.74957   0.00000  Uiso   1.00
C990   C     0.57919   0.50017   0.74822   0.00000  Uiso   1.00
C991   C     0.42587   0.50653   0.52110   0.00000  Uiso   1.00
C992   C     0.57425   0.49314   0.97890   0.00000  Uiso   1.00
C993   C     0.35396   0.45785   0.74128   0.00000  Uiso   1.00
C994   C     0.64541   0.54311   0.75179   0.00000  Uiso   1.00
C995   C     0.64506   0.45870   0.73684   0.00000  Uiso   1.00
C996   C     0.35432   0.54294   0.75112   0.00000  Uiso   1.00
C997   C     0.62371   0.50076   0.74520   0.00000  Uiso   1.00
C998   C     0.37578   0.50012   0.74797   0.00000  Uiso   1.00
C999   C     0.48088   0.35823   0.71702   0.00000  Uiso   1.00
C1000  C     0.51931   0.64176   0.78285   0.00000  Uiso   1.00
C1001  C     0.51947   0.35801   0.78275   0.00000  Uiso   1.00
C1002  C     0.48106   0.64199   0.71691   0.00000  Uiso   1.00
C1003  C     0.49968   0.50011   0.66454   0.00000  Uiso   1.00
C1004  C     0.50038   0.49989   0.83546   0.00000  Uiso   1.00
C1005  C     0.53878   0.49715   0.90673   0.00000  Uiso   1.00
C1006  C     0.46135   0.50278   0.59325   0.00000  Uiso   1.00
C1007  C     0.50161   0.49949   0.88361   0.00000  Uiso   1.00
C1008  C     0.49851   0.50044   0.61639   0.00000  Uiso   1.00
C1009  C     0.46484   0.50258   0.90616   0.00000  Uiso   1.00
C1010  C     0.53527   0.49716   0.59386   0.00000  Uiso   1.00
C1011  C     0.46404   0.50297   0.95242   0.00000  Uiso   1.00
C1012  C     0.53609   0.49672   0.54759   0.00000  Uiso   1.00
C1013  C     0.50064   0.49996   0.97653   0.00000  Uiso   1.00
C1014  C     0.49949   0.49976   0.52347   0.00000  Uiso   1.00
C1015  C     0.53831   0.49707   0.95382   0.00000  Uiso   1.00
C1016  C     0.46182   0.50270   0.54618   0.00000  Uiso   1.00
C1017  C     0.42703   0.50638   0.97480   0.00000  Uiso   1.00
C1018  C     0.57309   0.49324   0.52520   0.00000  Uiso   1.00
Cu1019 Cu    0.50000   0.54689   0.75000   0.00000  Uiso   1.00
Cu1020 Cu    0.50000   0.45311   0.75000   0.00000  Uiso   1.00
H1021  H     0.43676   0.50479   0.88741   0.00000  Uiso   1.00
H1022  H     0.56335   0.49490   0.61263   0.00000  Uiso   1.00
H1023  H     0.39883   0.50913   0.95643   0.00000  Uiso   1.00
H1024  H     0.60128   0.49043   0.54358   0.00000  Uiso   1.00
H1025  H     0.39658   0.51007   0.53685   0.00000  Uiso   1.00
H1026  H     0.60354   0.48956   0.96315   0.00000  Uiso   1.00
H1027  H     0.46537   0.37692   0.69067   0.00000  Uiso   1.00
H1028  H     0.53478   0.62303   0.80919   0.00000  Uiso   1.00
H1029  H     0.53523   0.37655   0.80891   0.00000  Uiso   1.00
H1030  H     0.46589   0.62344   0.69036   0.00000  Uiso   1.00
N1031  N     0.50000   0.61736   0.75000   0.00000  Uiso   1.00
N1032  N     0.50000   0.38264   0.75000   0.00000  Uiso   1.00
O1033  O     0.43988   0.53958   0.74999   0.00000  Uiso   1.00
O1034  O     0.56012   0.46042   0.75000   0.00000  Uiso   1.00
O1035  O     0.56012   0.53958   0.75000   0.00000  Uiso   1.00
O1036  O     0.43988   0.46042   0.74999   0.00000  Uiso   1.00
O1037  O     0.49999   0.53960   0.68513   0.00000  Uiso   1.00
O1038  O     0.50001   0.46040   0.81487   0.00000  Uiso   1.00
O1039  O     0.50001   0.53960   0.81487   0.00000  Uiso   1.00
O1040  O     0.49999   0.46040   0.68513   0.00000  Uiso   1.00
C1041  C     0.57749   0.49577   0.88142   0.00000  Uiso   1.00
O1042  O     0.58338   0.46479   0.85422   0.00000  Uiso   1.00
O1043  O     0.60686   0.53032   0.88836   0.00000  Uiso   1.00
H1044  H     0.63165   0.52588   0.86888   0.00000  Uiso   1.00
C1045  C     0.42265   0.50448   0.61852   0.00000  Uiso   1.00
O1046  O     0.41670   0.53595   0.64519   0.00000  Uiso   1.00
O1047  O     0.39332   0.46975   0.61212   0.00000  Uiso   1.00
H1048  H     0.36852   0.47449   0.63151   0.00000  Uiso   1.00
C1049  C     0.37474   0.41219   0.73786   0.00000  Uiso   1.00
O1050  O     0.38087   0.39498   0.70128   0.00000  Uiso   1.00
O1051  O     0.38789   0.38979   0.77674   0.00000  Uiso   1.00
H1052  H     0.40472   0.36100   0.77054   0.00000  Uiso   1.00
C1053  C     0.62509   0.58881   0.75939   0.00000  Uiso   1.00
O1054  O     0.61122   0.61080   0.72784   0.00000  Uiso   1.00
O1055  O     0.62343   0.60710   0.80244   0.00000  Uiso   1.00
H1056  H     0.60999   0.63895   0.80341   0.00000  Uiso   1.00
C1057  C     0.62389   0.41551   0.72165   0.00000  Uiso   1.00
O1058  O     0.62541   0.37974   0.74415   0.00000  Uiso   1.00
O1059  O     0.60200   0.41627   0.68175   0.00000  Uiso   1.00
H1060  H     0.58849   0.38513   0.67520   0.00000  Uiso   1.00
C1061  C     0.37500   0.58894   0.75041   0.00000  Uiso   1.00
O1062  O     0.38668   0.60668   0.78512   0.00000  Uiso   1.00
O1063  O     0.38045   0.61165   0.70958   0.00000  Uiso   1.00
H1064  H     0.39556   0.64223   0.71253   0.00000  Uiso   1.00
C1065  C     0.75396   0.49998   0.74957   0.00000  Uiso   1.00
C1066  C     0.91253   0.50017   0.74822   0.00000  Uiso   1.00
C1067  C     0.75921   0.50653   0.52110   0.00000  Uiso   1.00
C1068  C     0.90758   0.49314   0.97890   0.00000  Uiso   1.00
C1069  C     0.68729   0.45785   0.74128   0.00000  Uiso   1.00
C1070  C     0.97874   0.54311   0.75179   0.00000  Uiso   1.00
C1071  C     0.97839   0.45870   0.73684   0.00000  Uiso   1.00
C1072  C     0.68765   0.54294   0.75112   0.00000  Uiso   1.00
C1073  C     0.95705   0.50076   0.74520   0.00000  Uiso   1.00
C1074  C     0.70912   0.50012   0.74797   0.00000  Uiso   1.00
C1075  C     0.81422   0.35823   0.71702   0.00000  Uiso   1.00
C1076  C     0.85265   0.64176   0.78285   0.00000  Uiso   1.00
C1077  C     0.85280   0.35801   0.78275   0.00000  Uiso   1.00
C1078  C     0.81439   0.64199   0.71691   0.00000  Uiso   1.00
C1079  C     0.83301   0.50011   0.66454   0.00000  Uiso   1.00
C1080  C     0.83371   0.49989   0.83546   0.00000  Uiso   1.00
C1081  C     0.87211   0.49715   0.90673   0.00000  Uiso   1.00
C1082  C     0.79469   0.50278   0.59325   0.00000  Uiso   1.00
C1083  C     0.83494   0.49949   0.88361   0.00000  Uiso   1.00
C1084  C     0.83184   0.50044   0.61639   0.00000  Uiso   1.00
C1085  C     0.79818   0.50258   0.90616   0.00000  Uiso   1.00
C1086  C     0.86861   0.49716   0.59386   0.00000  Uiso   1.00
C1087  C     0.79737   0.50297   0.95242   0.00000  Uiso   1.00
C1088  C     0.86942   0.49672   0.54759   0.00000  Uiso   1.00
C1089  C     0.83398   0.49996   0.97653   0.00000  Uiso   1.00
C1090  C     0.83282   0.49976   0.52347   0.00000  Uiso   1.00
C1091  C     0.87165   0.49707   0.95382   0.00000  Uiso   1.00
C1092  C     0.79515   0.50270   0.54618   0.00000  Uiso   1.00
C1093  C     0.76036   0.50638   0.97480   0.00000  Uiso   1.00
C1094  C     0.90642   0.49324   0.52520   0.00000  Uiso   1.00
Cu1095 Cu    0.83333   0.54689   0.75000   0.00000  Uiso   1.00
Cu1096 Cu    0.83333   0.45311   0.75000   0.00000  Uiso   1.00
H1097  H     0.77009   0.50479   0.88741   0.00000  Uiso   1.00
H1098  H     0.89668   0.49490   0.61263   0.00000  Uiso   1.00
H1099  H     0.73217   0.50913   0.95643   0.00000  Uiso   1.00
H1100  H     0.93462   0.49043   0.54358   0.00000  Uiso   1.00
H1101  H     0.72991   0.51007   0.53685   0.00000  Uiso   1.00
H1102  H     0.93687   0.48956   0.96315   0.00000  Uiso   1.00
H1103  H     0.79871   0.37692   0.69067   0.00000  Uiso   1.00
H1104  H     0.86812   0.62303   0.80919   0.00000  Uiso   1.00
H1105  H     0.86856   0.37655   0.80891   0.00000  Uiso   1.00
H1106  H     0.79923   0.62344   0.69036   0.00000  Uiso   1.00
N1107  N     0.83333   0.61736   0.75000   0.00000  Uiso   1.00
N1108  N     0.83333   0.38264   0.75000   0.00000  Uiso   1.00
O1109  O     0.77321   0.53958   0.74999   0.00000  Uiso   1.00
O1110  O     0.89345   0.46042   0.75000   0.00000  Uiso   1.00
O1111  O     0.89345   0.53958   0.75000   0.00000  Uiso   1.00
O1112  O     0.77321   0.46042   0.74999   0.00000  Uiso   1.00
O1113  O     0.83332   0.53960   0.68513   0.00000  Uiso   1.00
O1114  O     0.83334   0.46040   0.81487   0.00000  Uiso   1.00
O1115  O     0.83334   0.53960   0.81487   0.00000  Uiso   1.00
O1116  O     0.83332   0.46040   0.68513   0.00000  Uiso   1.00
C1117  C     0.91083   0.49577   0.88142   0.00000  Uiso   1.00
O1118  O     0.91672   0.46479   0.85422   0.00000  Uiso   1.00
O1119  O     0.94019   0.53032   0.88836   0.00000  Uiso   1.00
H1120  H     0.96498   0.52588   0.86888   0.00000  Uiso   1.00
C1121  C     0.75598   0.50448   0.61852   0.00000  Uiso   1.00
O1122  O     0.75004   0.53595   0.64519   0.00000  Uiso   1.00
O1123  O     0.72666   0.46975   0.61212   0.00000  Uiso   1.00
H1124  H     0.70185   0.47449   0.63151   0.00000  Uiso   1.00
C1125  C     0.70808   0.41219   0.73786   0.00000  Uiso   1.00
O1126  O     0.71420   0.39498   0.70128   0.00000  Uiso   1.00
O1127  O     0.72122   0.38979   0.77674   0.00000  Uiso   1.00
H1128  H     0.73806   0.36100   0.77054   0.00000  Uiso   1.00
C1129  C     0.95842   0.58881   0.75939   0.00000  Uiso   1.00
O1130  O     0.94456   0.61080   0.72784   0.00000  Uiso   1.00
O1131  O     0.95676   0.60710   0.80244   0.00000  Uiso   1.00
H1132  H     0.94333   0.63895   0.80341   0.00000  Uiso   1.00
C1133  C     0.95723   0.41551   0.72165   0.00000  Uiso   1.00
O1134  O     0.95874   0.37974   0.74415   0.00000  Uiso   1.00
O1135  O     0.93533   0.41627   0.68175   0.00000  Uiso   1.00
H1136  H     0.92182   0.38513   0.67520   0.00000  Uiso   1.00
C1137  C     0.70833   0.58894   0.75041   0.00000  Uiso   1.00
O1138  O     0.72001   0.60668   0.78512   0.00000  Uiso   1.00
O1139  O     0.71378   0.61165   0.70958   0.00000  Uiso   1.00
H1140  H     0.72890   0.64223   0.71253   0.00000  Uiso   1.00
C1141  C     0.08729   0.83332   0.74957   0.00000  Uiso   1.00
C1142  C     0.24586   0.83350   0.74822   0.00000  Uiso   1.00
C1143  C     0.09254   0.83986   0.52110   0.00000  Uiso   1.00
C1144  C     0.24092   0.82648   0.97890   0.00000  Uiso   1.00
C1145  C     0.02062   0.79118   0.74128   0.00000  Uiso   1.00
C1146  C     0.31207   0.87644   0.75179   0.00000  Uiso   1.00
C1147  C     0.31173   0.79204   0.73684   0.00000  Uiso   1.00
C1148  C     0.02099   0.87627   0.75112   0.00000  Uiso   1.00
C1149  C     0.29038   0.83410   0.74520   0.00000  Uiso   1.00
C1150  C     0.04245   0.83345   0.74797   0.00000  Uiso   1.00
C1151  C     0.14755   0.69156   0.71702   0.00000  Uiso   1.00
C1152  C     0.18598   0.97509   0.78285   0.00000  Uiso   1.00
C1153  C     0.18614   0.69135   0.78275   0.00000  Uiso   1.00
C1154  C     0.14772   0.97532   0.71691   0.00000  Uiso   1.00
C1155  C     0.16635   0.83344   0.66454   0.00000  Uiso   1.00
C1156  C     0.16705   0.83322   0.83546   0.00000  Uiso   1.00
C1157  C     0.20545   0.83049   0.90673   0.00000  Uiso   1.00
C1158  C     0.12802   0.83611   0.59325   0.00000  Uiso   1.00
C1159  C     0.16827   0.83283   0.88361   0.00000  Uiso   1.00
C1160  C     0.16517   0.83378   0.61639   0.00000  Uiso   1.00
C1161  C     0.13151   0.83592   0.90616   0.00000  Uiso   1.00
C1162  C     0.20194   0.83049   0.59386   0.00000  Uiso   1.00
C1163  C     0.13070   0.83630   0.95242   0.00000  Uiso   1.00
C1164  C     0.20275   0.83006   0.54759   0.00000  Uiso   1.00
C1165  C     0.16731   0.83329   0.97653   0.00000  Uiso   1.00
C1166  C     0.16615   0.83309   0.52347   0.00000  Uiso   1.00
C1167  C     0.20498   0.83040   0.95382   0.00000  Uiso   1.00
C1168  C     0.12849   0.83604   0.54618   0.00000  Uiso   1.00
C1169  C     0.09370   0.83972   0.97480   0.00000  Uiso   1.00
C1170  C     0.23976   0.82657   0.52520   0.00000  Uiso   1.00
Cu1171 Cu    0.16667   0.88022   0.75000   0.00000  Uiso   1.00
Cu1172 Cu    0.16667   0.78645   0.75000   0.00000  Uiso   1.00
H1173  H     0.10342   0.83812   0.88741   0.00000  Uiso   1.00
H1174  H     0.23002   0.82823   0.61263   0.00000  Uiso   1.00
H1175  H     0.06550   0.84246   0.95643   0.00000  Uiso   1.00
H1176  H     0.26795   0.82377   0.54358   0.00000  Uiso   1.00
H1177  H     0.06324   0.84340   0.53685   0.00000  Uiso   1.00
H1178  H     0.27021   0.82289   0.96315   0.00000  Uiso   1.00
H1179  H     0.13204   0.71025   0.69067   0.00000  Uiso   1.00
H1180  H     0.20145   0.95636   0.80919   0.00000  Uiso   1.00
H1181  H     0.20190   0.70988   0.80891   0.00000  Uiso   1.00
H1182  H     0.13256   0.95677   0.69036   0.00000  Uiso   1.00
N1183  N     0.16667   0.95069   0.75000   0.00000  Uiso   1.00
N1184  N     0.16667   0.71598   0.75000   0.00000  Uiso   1.00
O1185  O     0.10655   0.87291   0.74999   0.00000  Uiso   1.00
O1186  O     0.22679   0.79375   0.75000   0.00000  Uiso   1.00
O1187  O     0.22679   0.87291   0.75000   0.00000  Uiso   1.00
O1188  O     0.10655   0.79375   0.74999   0.00000  Uiso   1.00
O1189  O     0.16666   0.87293   0.68513   0.00000  Uiso   1.00
O1190  O     0.16668   0.79373   0.81487   0.00000  Uiso   1.00
O1191  O     0.16668   0.87293   0.81487   0.00000  Uiso   1.00
O1192  O     0.16666   0.79373   0.68513   0.00000  Uiso   1.00
C1193  C     0.24416   0.82911   0.88142   0.00000  Uiso   1.00
O1194  O     0.25005   0.79812   0.85422   0.00000  Uiso   1.00
O1195  O     0.27353   0.86366   0.88836   0.00000  Uiso   1.00
H1196  H     0.29831   0.85922   0.86888   0.00000  Uiso   1.00
C1197  C     0.08931   0.83781   0.61852   0.00000  Uiso   1.00
O1198  O     0.08337   0.86928   0.64519   0.00000  Uiso   1.00
O1199  O     0.05999   0.80309   0.61212   0.00000  Uiso   1.00
H1200  H     0.03519   0.80782   0.63151   0.00000  Uiso   1.00
C1201  C     0.04141   0.74553   0.73786   0.00000  Uiso   1.00
O1202  O     0.04754   0.72831   0.70128   0.00000  Uiso   1.00
O1203  O     0.05456   0.72313   0.77674   0.00000  Uiso   1.00
H1204  H     0.07139   0.69433   0.77054   0.00000  Uiso   1.00
C1205  C     0.29175   0.92214   0.75939   0.00000  Uiso   1.00
O1206  O     0.27789   0.94413   0.72784   0.00000  Uiso   1.00
O1207  O     0.29010   0.94043   0.80244   0.00000  Uiso   1.00
H1208  H     0.27666   0.97229   0.80341   0.00000  Uiso   1.00
C1209  C     0.29056   0.74885   0.72165   0.00000  Uiso   1.00
O1210  O     0.29207   0.71308   0.74415   0.00000  Uiso   1.00
O1211  O     0.26867   0.74960   0.68175   0.00000  Uiso   1.00
H1212  H     0.25515   0.71846   0.67520   0.00000  Uiso   1.00
C1213  C     0.04167   0.92227   0.75041   0.00000  Uiso   1.00
O1214  O     0.05334   0.94001   0.78512   0.00000  Uiso   1.00
O1215  O     0.04711   0.94498   0.70958   0.00000  Uiso   1.00
H1216  H     0.06223   0.97556   0.71253   0.00000  Uiso   1.00
C1217  C     0.42062   0.83332   0.74957   0.00000  Uiso   1.00
C1218  C     0.57919   0.83350   0.74822   0.00000  Uiso   1.00
C1219  C     0.42587   0.83986   0.52110   0.00000  Uiso   1.00
C1220  C     0.57425   0.82648   0.97890   0.00000  Uiso   1.00
C1221  C     0.35396   0.79118   0.74128   0.00000  Uiso   1.00
C1222  C     0.64541   0.87644   0.75179   0.00000  Uiso   1.00
C1223  C     0.64506   0.79204   0.73684   0.00000  Uiso   1.00
C1224  C     0.35432   0.87627   0.75112   0.00000  Uiso   1.00
C1225  C     0.62371   0.83410   0.74520   0.00000  Uiso   1.00
C1226  C     0.37578   0.83345   0.74797   0.00000  Uiso   1.00
C1227  C     0.48088   0.69156   0.71702   0.00000  Uiso   1.00
C1228  C     0.51931   0.97509   0.78285   0.00000  Uiso   1.00
C1229  C     0.51947   0.69135   0.78275   0.00000  Uiso   1.00
C1230  C     0.48106   0.97532   0.71691   0.00000  Uiso   1.00
C1231  C     0.49968   0.83344   0.66454   0.00000  Uiso   1.00
C1232  C     0.50038   0.83322   0.83546   0.00000  Uiso   1.00
C1233  C     0.53878   0.83049   0.90673   0.00000  Uiso   1.00
C1234  C     0.46135   0.83611   0.59325   0.00000  Uiso   1.00
C1235  C     0.50161   0.83283   0.88361   0.00000  Uiso   1.00
C1236  C     0.49851   0.83378   0.61639   0.00000  Uiso   1.00
C1237  C     0.46484   0.83592   0.90616   0.00000  Uiso   1.00
C1238  C     0.53527   0.83049   0.59386   0.00000  Uiso   1.00
C1239  C     0.46404   0.83630   0.95242   0.00000  Uiso   1.00
C1240  C     0.53609   0.83006   0.54759   0.00000  Uiso   1.00
C1241  C     0.50064   0.83329   0.97653   0.00000  Uiso   1.00
C1242  C     0.49949   0.83309   0.52347   0.00000  Uiso   1.00
C1243  C     0.53831   0.83040   0.95382   0.00000  Uiso   1.00
C1244  C     0.46182   0.83604   0.54618   0.00000  Uiso   1.00
C1245  C     0.42703   0.83972   0.97480   0.00000  Uiso   1.00
C1246  C     0.57309   0.82657   0.52520   0.00000  Uiso   1.00
Cu1247 Cu    0.50000   0.88022   0.75000   0.00000  Uiso   1.00
Cu1248 Cu    0.50000   0.78645   0.75000   0.00000  Uiso   1.00
H1249  H     0.43676   0.83812   0.88741   0.00000  Uiso   1.00
H1250  H     0.56335   0.82823   0.61263   0.00000  Uiso   1.00
H1251  H     0.39883   0.84246   0.95643   0.00000  Uiso   1.00
H1252  H     0.60128   0.82377   0.54358   0.00000  Uiso   1.00
H1253  H     0.39658   0.84340   0.53685   0.00000  Uiso   1.00
H1254  H     0.60354   0.82289   0.96315   0.00000  Uiso   1.00
H1255  H     0.46537   0.71025   0.69067   0.00000  Uiso   1.00
H1256  H     0.53478   0.95636   0.80919   0.00000  Uiso   1.00
H1257  H     0.53523   0.70988   0.80891   0.00000  Uiso   1.00
H1258  H     0.46589   0.95677   0.69036   0.00000  Uiso   1.00
N1259  N     0.50000   0.95069   0.75000   0.00000  Uiso   1.00
N1260  N     0.50000   0.71598   0.75000   0.00000  Uiso   1.00
O1261  O     0.43988   0.87291   0.74999   0.00000  Uiso   1.00
O1262  O     0.56012   0.79375   0.75000   0.00000  Uiso   1.00
O1263  O     0.56012   0.87291   0.75000   0.00000  Uiso   1.00
O1264  O     0.43988   0.79375   0.74999   0.00000  Uiso   1.00
O1265  O     0.49999   0.87293   0.68513   0.00000  Uiso   1.00
O1266  O     0.50001   0.79373   0.81487   0.00000  Uiso   1.00
O1267  O     0.50001   0.87293   0.81487   0.00000  Uiso   1.00
O1268  O     0.49999   0.79373   0.68513   0.00000  Uiso   1.00
C1269  C     0.57749   0.82911   0.88142   0.00000  Uiso   1.00
O1270  O     0.58338   0.79812   0.85422   0.00000  Uiso   1.00
O1271  O     0.60686   0.86366   0.88836   0.00000  Uiso   1.00
H1272  H     0.63165   0.85922   0.86888   0.00000  Uiso   1.00
C1273  C     0.42265   0.83781   0.61852   0.00000  Uiso   1.00
O1274  O     0.41670   0.86928   0.64519   0.00000  Uiso   1.00
O1275  O     0.39332   0.80309   0.61212   0.00000  Uiso   1.00
H1276  H     0.36852   0.80782   0.63151   0.00000  Uiso   1.00
C1277  C     0.37474   0.74553   0.73786   0.00000  Uiso   1.00
O1278  O     0.38087   0.72831   0.70128   0.00000  Uiso   1.00
O1279  O     0.38789   0.72313   0.77674   0.00000  Uiso   1.00
H1280  H     0.40472   0.69433   0.77054   0.00000  Uiso   1.00
C1281  C     0.62509   0.92214   0.75939   0.00000  Uiso   1.00
O1282  O     0.61122   0.94413   0.72784   0.00000  Uiso   1.00
O1283  O     0.62343   0.94043   0.80244   0.00000  Uiso   1.00
H1284  H     0.60999   0.97229   0.80341   0.00000  Uiso   1.00
C1285  C     0.62389   0.74885   0.72165   0.00000  Uiso   1.00
O1286  O     0.62541   0.71308   0.74415   0.00000  Uiso   1.00
O1287  O     0.60200   0.74960   0.68175   0.00000  Uiso   1.00
H1288  H     0.58849   0.71846   0.67520   0.00000  Uiso   1.00
C1289  C     0.37500   0.92227   0.75041   0.00000  Uiso   1.00
O1290  O     0.38668   0.94001   0.78512   0.00000  Uiso   1.00
O1291  O     0.38045   0.94498   0.70958   0.00000  Uiso   1.00
H1292  H     0.39556   0.97556   0.71253   0.00000  Uiso   1.00
C1293  C     0.75396   0.83332   0.74957   0.00000  Uiso   1.00
C1294  C     0.91253   0.83350   0.74822   0.00000  Uiso   1.00
C1295  C     0.75921   0.83986   0.52110   0.00000  Uiso   1.00
C1296  C     0.90758   0.82648   0.97890   0.00000  Uiso   1.00
C1297  C     0.68729   0.79118   0.74128   0.00000  Uiso   1.00
C1298  C     0.97874   0.87644   0.75179   0.00000  Uiso   1.00
C1299  C     0.97839   0.79204   0.73684   0.00000  Uiso   1.00
C1300  C     0.68765   0.87627   0.75112   0.00000  Uiso   1.00
C1301  C     0.95705   0.83410   0.74520   0.00000  Uiso   1.00
C1302  C     0.70912   0.83345   0.74797   0.00000  Uiso   1.00
C1303  C     0.81422   0.69156   0.71702   0.00000  Uiso   1.00
C1304  C     0.85265   0.97509   0.78285   0.00000  Uiso   1.00
C1305  C     0.85280   0.69135   0.78275   0.00000  Uiso   1.00
C1306  C     0.81439   0.97532   0.71691   0.00000  Uiso   1.00
C1307  C     0.83301   0.83344   0.66454   0.00000  Uiso   1.00
C1308  C     0.83371   0.83322   0.83546   0.00000  Uiso   1.00
C1309  C     0.87211   0.83049   0.90673   0.00000  Uiso   1.00
C1310  C     0.79469   0.83611   0.59325   0.00000  Uiso   1.00
C1311  C     0.83494   0.83283   0.88361   0.00000  Uiso   1.00
C1312  C     0.83184   0.83378   0.61639   0.00000  Uiso   1.00
C1313  C     0.79818   0.83592   0.90616   0.00000  Uiso   1.00
C1314  C     0.86861   0.83049   0.59386   0.00000  Uiso   1.00
C1315  C     0.79737   0.83630   0.95242   0.00000  Uiso   1.00
C1316  C     0.86942   0.83006   0.54759   0.00000  Uiso   1.00
C1317  C     0.83398   0.83329   0.97653   0.00000  Uiso   1.00
C1318  C     0.83282   0.83309   0.52347   0.00000  Uiso   1.00
C1319  C     0.87165   0.83040   0.95382   0.00000  Uiso   1.00
C1320  C     0.79515   0.83604   0.54618   0.00000  Uiso   1.00
C1321  C     0.76036   0.83972   0.97480   0.00000  Uiso   1.00
C1322  C     0.90642   0.82657   0.52520   0.00000  Uiso   1.00
Cu1323 Cu    0.83333   0.88022   0.75000   0.00000  Uiso   1.00
Cu1324 Cu    0.83333   0.78645   0.75000   0.00000  Uiso   1.00
H1325  H     0.77009   0.83812   0.88741   0.00000  Uiso   1.00
H1326  H     0.89668   0.82823   0.61263   0.00000  Uiso   1.00
H1327  H     0.73217   0.84246   0.95643   0.00000  Uiso   1.00
H1328  H     0.93462   0.82377   0.54358   0.00000  Uiso   1.00
H1329  H     0.72991   0.84340   0.53685   0.00000  Uiso   1.00
H1330  H     0.93687   0.82289   0.96315   0.00000  Uiso   1.00
H1331  H     0.79871   0.71025   0.69067   0.00000  Uiso   1.00
H1332  H     0.86812   0.95636   0.80919   0.00000  Uiso   1.00
H1333  H     0.86856   0.70988   0.80891   0.00000  Uiso   1.00
H1334  H     0.79923   0.95677   0.69036   0.00000  Uiso   1.00
N1335  N     0.83333   0.95069   0.75000   0.00000  Uiso   1.00
N1336  N     0.83333   0.71598   0.75000   0.00000  Uiso   1.00
O1337  O     0.77321   0.87291   0.74999   0.00000  Uiso   1.00
O1338  O     0.89345   0.79375   0.75000   0.00000  Uiso   1.00
O1339  O     0.89345   0.87291   0.75000   0.00000  Uiso   1.00
O1340  O     0.77321   0.79375   0.74999   0.00000  Uiso   1.00
O1341  O     0.83332   0.87293   0.68513   0.00000  Uiso   1.00
O1342  O     0.83334   0.79373   0.81487   0.00000  Uiso   1.00
O1343  O     0.83334   0.87293   0.81487   0.00000  Uiso   1.00
O1344  O     0.83332   0.79373   0.68513   0.00000  Uiso   1.00
C1345  C     0.91083   0.82911   0.88142   0.00000  Uiso   1.00
O1346  O     0.91672   0.79812   0.85422   0.00000  Uiso   1.00
O1347  O     0.94019   0.86366   0.88836   0.00000  Uiso   1.00
H1348  H     0.96498   0.85922   0.86888   0.00000  Uiso   1.00
C1349  C     0.75598   0.83781   0.61852   0.00000  Uiso   1.00
O1350  O     0.75004   0.86928   0.64519   0.00000  Uiso   1.00
O1351  O     0.72666   0.80309   0.61212   0.00000  Uiso   1.00
H1352  H     0.70185   0.80782   0.63151   0.00000  Uiso   1.00
C1353  C     0.70808   0.74553   0.73786   0.00000  Uiso   1.00
O1354  O     0.71420   0.72831   0.70128   0.00000  Uiso   1.00
O1355  O     0.72122   0.72313   0.77674   0.00000  Uiso   1.00
H1356  H     0.73806   0.69433   0.77054   0.00000  Uiso   1.00
C1357  C     0.95842   0.92214   0.75939   0.00000  Uiso   1.00
O1358  O     0.94456   0.94413   0.72784   0.00000  Uiso   1.00
O1359  O     0.95676   0.94043   0.80244   0.00000  Uiso   1.00
H1360  H     0.94333   0.97229   0.80341   0.00000  Uiso   1.00
C1361  C     0.95723   0.74885   0.72165   0.00000  Uiso   1.00
O1362  O     0.95874   0.71308   0.74415   0.00000  Uiso   1.00
O1363  O     0.93533   0.74960   0.68175   0.00000  Uiso   1.00
H1364  H     0.92182   0.71846   0.67520   0.00000  Uiso   1.00
C1365  C     0.70833   0.92227   0.75041   0.00000  Uiso   1.00
O1366  O     0.72001   0.94001   0.78512   0.00000  Uiso   1.00
O1367  O     0.71378   0.94498   0.70958   0.00000  Uiso   1.00
H1368  H     0.72890   0.97556   0.71253   0.00000  Uiso   1.00
loop_
_geom_bond_atom_site_label_1
_geom_bond_atom_site_label_2
_geom_bond_distance
_geom_bond_site_symmetry_2
_ccdc_geom_bond_type
C1     C10     1.480   .     S
C1     O48     1.297   .     A
C1     O45     1.296   .     A
C2     O46     1.298   .     A
C2     O47     1.292   .     A
C2     C9      1.472   .     S
C3     C28     1.409   .     A
C3     H37     1.081   .     S
C3     C713    1.390   1_554 S
C4     C27     1.409   .     A
C4     H38     1.081   .     S
C4     C714    1.391   .     S
C5     C61     1.478   .     S
C5     C10     1.419   .     A
C5     C159    1.400   1_455 S
C6     C9      1.419   .     A
C6     C65     1.487   .     S
C6     C84     1.394   .     S
C7     C9      1.417   .     A
C7     C69     1.489   .     S
C7     C81     1.400   .     S
C8     C73     1.479   .     S
C8     C10     1.418   .     A
C8     C158    1.394   1_455 S
C11    N44     1.367   .     A
C11    H39     1.081   .     S
C11    C470    1.416   1_545 S
C12    N43     1.367   .     A
C12    H40     1.081   .     S
C12    C241    1.416   .     S
C13    H41     1.081   .     S
C13    N44     1.367   .     A
C13    C468    1.416   1_545 S
C14    H42     1.081   .     S
C14    N43     1.366   .     A
C14    C239    1.416   .     S
C15    C20     1.446   .     S
C15    O52     1.289   .     A
C15    O49     1.289   .     A
C16    O51     1.289   .     A
C16    O50     1.288   .     A
C16    C19     1.446   .     S
C17    C27     1.414   .     A
C17    C53     1.487   .     S
C17    C19     1.410   .     A
C18    C28     1.413   .     A
C18    C57     1.487   .     S
C18    C20     1.410   .     A
C19    C21     1.393   .     A
C20    C22     1.393   .     A
C21    H33     1.086   .     S
C21    C23     1.389   .     A
C22    H34     1.086   .     S
C22    C24     1.389   .     A
C23    C29     1.398   .     A
C23    C25     1.410   .     A
C24    C26     1.410   .     A
C24    C30     1.398   .     A
C25    C27     1.421   .     A
C25    C710    1.409   .     S
C26    C28     1.421   .     A
C26    C709    1.409   1_554 S
C29    H35     1.084   .     S
C29    C687    1.390   .     S
C30    H36     1.084   .     S
C30    C688    1.391   1_554 S
Cu31   N43     2.012   .     S
Cu31   O47     1.995   .     S
Cu31   O49     1.959   .     S
Cu31   O51     1.957   .     S
Cu31   Cu32    2.678   .     S
Cu31   O45     1.994   .     S
Cu32   O52     1.957   .     S
Cu32   O48     1.995   .     S
Cu32   N44     2.012   .     S
Cu32   O50     1.959   .     S
Cu32   O46     1.994   .     S
C53    O54     1.223   .     D
C53    O55     1.398   .     S
O55    H56     1.014   .     S
C57    O59     1.398   .     S
C57    O58     1.222   .     D
O59    H60     1.014   .     S
C61    O63     1.398   .     S
C61    O62     1.222   .     D
O63    H64     1.011   .     S
C65    O67     1.397   .     S
C65    O66     1.223   .     D
O67    H68     1.013   .     S
C69    O71     1.399   .     S
C69    O70     1.223   .     D
O71    H72     1.014   .     S
C73    O75     1.396   .     S
C73    O74     1.222   .     D
O75    H76     1.009   .     S
C77    C86     1.480   .     S
C77    O124    1.297   .     A
C77    O121    1.296   .     A
C78    O122    1.298   .     A
C78    O123    1.292   .     A
C78    C85     1.472   .     S
C79    C104    1.409   .     A
C79    H113    1.081   .     S
C79    C789    1.390   1_554 S
C80    C103    1.409   .     A
C80    H114    1.081   .     S
C80    C790    1.391   .     S
C81    C137    1.478   .     S
C81    C86     1.419   .     A
C82    C85     1.419   .     A
C82    C141    1.487   .     S
C82    C160    1.394   .     S
C83    C85     1.417   .     A
C83    C145    1.489   .     S
C83    C157    1.400   .     S
C84    C149    1.479   .     S
C84    C86     1.418   .     A
C87    N120    1.367   .     A
C87    H115    1.081   .     S
C87    C546    1.416   1_545 S
C88    N119    1.367   .     A
C88    H116    1.081   .     S
C88    C317    1.416   .     S
C89    H117    1.081   .     S
C89    N120    1.367   .     A
C89    C544    1.416   1_545 S
C90    H118    1.081   .     S
C90    N119    1.366   .     A
C90    C315    1.416   .     S
C91    C96     1.446   .     S
C91    O128    1.289   .     A
C91    O125    1.289   .     A
C92    O127    1.289   .     A
C92    O126    1.288   .     A
C92    C95     1.446   .     S
C93    C103    1.414   .     A
C93    C129    1.487   .     S
C93    C95     1.410   .     A
C94    C104    1.413   .     A
C94    C133    1.487   .     S
C94    C96     1.410   .     A
C95    C97     1.393   .     A
C96    C98     1.393   .     A
C97    H109    1.086   .     S
C97    C99     1.389   .     A
C98    H110    1.086   .     S
C98    C100    1.389   .     A
C99    C105    1.398   .     A
C99    C101    1.410   .     A
C100   C102    1.410   .     A
C100   C106    1.398   .     A
C101   C103    1.421   .     A
C101   C786    1.409   .     S
C102   C104    1.421   .     A
C102   C785    1.409   1_554 S
C105   H111    1.084   .     S
C105   C763    1.390   .     S
C106   H112    1.084   .     S
C106   C764    1.391   1_554 S
Cu107  N119    2.012   .     S
Cu107  O123    1.995   .     S
Cu107  O125    1.959   .     S
Cu107  O127    1.957   .     S
Cu107  Cu108   2.678   .     S
Cu107  O121    1.994   .     S
Cu108  O128    1.957   .     S
Cu108  O124    1.995   .     S
Cu108  N120    2.012   .     S
Cu108  O126    1.959   .     S
Cu108  O122    1.994   .     S
C129   O130    1.223   .     D
C129   O131    1.398   .     S
O131   H132    1.014   .     S
C133   O135    1.398   .     S
C133   O134    1.222   .     D
O135   H136    1.014   .     S
C137   O139    1.398   .     S
C137   O138    1.222   .     D
O139   H140    1.011   .     S
C141   O143    1.397   .     S
C141   O142    1.223   .     D
O143   H144    1.013   .     S
C145   O147    1.399   .     S
C145   O146    1.223   .     D
O147   H148    1.014   .     S
C149   O151    1.396   .     S
C149   O150    1.222   .     D
O151   H152    1.009   .     S
C153   C162    1.480   .     S
C153   O200    1.297   .     A
C153   O197    1.296   .     A
C154   O198    1.298   .     A
C154   O199    1.292   .     A
C154   C161    1.472   .     S
C155   C180    1.409   .     A
C155   H189    1.081   .     S
C155   C865    1.390   1_554 S
C156   C179    1.409   .     A
C156   H190    1.081   .     S
C156   C866    1.391   .     S
C157   C213    1.478   .     S
C157   C162    1.419   .     A
C158   C161    1.419   .     A
C158   C217    1.487   .     S
C158   C8      1.394   1_655 S
C159   C161    1.417   .     A
C159   C221    1.489   .     S
C159   C5      1.400   1_655 S
C160   C225    1.479   .     S
C160   C162    1.418   .     A
C163   N196    1.367   .     A
C163   H191    1.081   .     S
C163   C622    1.416   1_545 S
C164   N195    1.367   .     A
C164   H192    1.081   .     S
C164   C393    1.416   .     S
C165   H193    1.081   .     S
C165   N196    1.367   .     A
C165   C620    1.416   1_545 S
C166   H194    1.081   .     S
C166   N195    1.366   .     A
C166   C391    1.416   .     S
C167   C172    1.446   .     S
C167   O204    1.289   .     A
C167   O201    1.289   .     A
C168   O203    1.289   .     A
C168   O202    1.288   .     A
C168   C171    1.446   .     S
C169   C179    1.414   .     A
C169   C205    1.487   .     S
C169   C171    1.410   .     A
C170   C180    1.413   .     A
C170   C209    1.487   .     S
C170   C172    1.410   .     A
C171   C173    1.393   .     A
C172   C174    1.393   .     A
C173   H185    1.086   .     S
C173   C175    1.389   .     A
C174   H186    1.086   .     S
C174   C176    1.389   .     A
C175   C181    1.398   .     A
C175   C177    1.410   .     A
C176   C178    1.410   .     A
C176   C182    1.398   .     A
C177   C179    1.421   .     A
C177   C862    1.409   .     S
C178   C180    1.421   .     A
C178   C861    1.409   1_554 S
C181   H187    1.084   .     S
C181   C839    1.390   .     S
C182   H188    1.084   .     S
C182   C840    1.391   1_554 S
Cu183  N195    2.012   .     S
Cu183  O199    1.995   .     S
Cu183  O201    1.959   .     S
Cu183  O203    1.957   .     S
Cu183  Cu184   2.678   .     S
Cu183  O197    1.994   .     S
Cu184  O204    1.957   .     S
Cu184  O200    1.995   .     S
Cu184  N196    2.012   .     S
Cu184  O202    1.959   .     S
Cu184  O198    1.994   .     S
C205   O206    1.223   .     D
C205   O207    1.398   .     S
O207   H208    1.014   .     S
C209   O211    1.398   .     S
C209   O210    1.222   .     D
O211   H212    1.014   .     S
C213   O215    1.398   .     S
C213   O214    1.222   .     D
O215   H216    1.011   .     S
C217   O219    1.397   .     S
C217   O218    1.223   .     D
O219   H220    1.013   .     S
C221   O223    1.399   .     S
C221   O222    1.223   .     D
O223   H224    1.014   .     S
C225   O227    1.396   .     S
C225   O226    1.222   .     D
O227   H228    1.009   .     S
C229   C238    1.480   .     S
C229   O276    1.297   .     A
C229   O273    1.296   .     A
C230   O274    1.298   .     A
C230   O275    1.292   .     A
C230   C237    1.472   .     S
C231   C256    1.409   .     A
C231   H265    1.081   .     S
C231   C941    1.390   1_554 S
C232   C255    1.409   .     A
C232   H266    1.081   .     S
C232   C942    1.391   .     S
C233   C289    1.478   .     S
C233   C238    1.419   .     A
C233   C387    1.400   1_455 S
C234   C237    1.419   .     A
C234   C293    1.487   .     S
C234   C312    1.394   .     S
C235   C237    1.417   .     A
C235   C297    1.489   .     S
C235   C309    1.400   .     S
C236   C301    1.479   .     S
C236   C238    1.418   .     A
C236   C386    1.394   1_455 S
C239   N272    1.367   .     A
C239   H267    1.081   .     S
C240   N271    1.367   .     A
C240   H268    1.081   .     S
C240   C469    1.416   .     S
C241   H269    1.081   .     S
C241   N272    1.367   .     A
C242   H270    1.081   .     S
C242   N271    1.366   .     A
C242   C467    1.416   .     S
C243   C248    1.446   .     S
C243   O280    1.289   .     A
C243   O277    1.289   .     A
C244   O279    1.289   .     A
C244   O278    1.288   .     A
C244   C247    1.446   .     S
C245   C255    1.414   .     A
C245   C281    1.487   .     S
C245   C247    1.410   .     A
C246   C256    1.413   .     A
C246   C285    1.487   .     S
C246   C248    1.410   .     A
C247   C249    1.393   .     A
C248   C250    1.393   .     A
C249   H261    1.086   .     S
C249   C251    1.389   .     A
C250   H262    1.086   .     S
C250   C252    1.389   .     A
C251   C257    1.398   .     A
C251   C253    1.410   .     A
C252   C254    1.410   .     A
C252   C258    1.398   .     A
C253   C255    1.421   .     A
C253   C938    1.409   .     S
C254   C256    1.421   .     A
C254   C937    1.409   1_554 S
C257   H263    1.084   .     S
C257   C915    1.390   .     S
C258   H264    1.084   .     S
C258   C916    1.391   1_554 S
Cu259  N271    2.012   .     S
Cu259  O275    1.995   .     S
Cu259  O277    1.959   .     S
Cu259  O279    1.957   .     S
Cu259  Cu260   2.678   .     S
Cu259  O273    1.994   .     S
Cu260  O280    1.957   .     S
Cu260  O276    1.995   .     S
Cu260  N272    2.012   .     S
Cu260  O278    1.959   .     S
Cu260  O274    1.994   .     S
C281   O282    1.223   .     D
C281   O283    1.398   .     S
O283   H284    1.014   .     S
C285   O287    1.398   .     S
C285   O286    1.222   .     D
O287   H288    1.014   .     S
C289   O291    1.398   .     S
C289   O290    1.222   .     D
O291   H292    1.011   .     S
C293   O295    1.397   .     S
C293   O294    1.223   .     D
O295   H296    1.013   .     S
C297   O299    1.399   .     S
C297   O298    1.223   .     D
O299   H300    1.014   .     S
C301   O303    1.396   .     S
C301   O302    1.222   .     D
O303   H304    1.009   .     S
C305   C314    1.480   .     S
C305   O352    1.297   .     A
C305   O349    1.296   .     A
C306   O350    1.298   .     A
C306   O351    1.292   .     A
C306   C313    1.472   .     S
C307   C332    1.409   .     A
C307   H341    1.081   .     S
C307   C1017   1.390   1_554 S
C308   C331    1.409   .     A
C308   H342    1.081   .     S
C308   C1018   1.391   .     S
C309   C365    1.478   .     S
C309   C314    1.419   .     A
C310   C313    1.419   .     A
C310   C369    1.487   .     S
C310   C388    1.394   .     S
C311   C313    1.417   .     A
C311   C373    1.489   .     S
C311   C385    1.400   .     S
C312   C377    1.479   .     S
C312   C314    1.418   .     A
C315   N348    1.367   .     A
C315   H343    1.081   .     S
C316   N347    1.367   .     A
C316   H344    1.081   .     S
C316   C545    1.416   .     S
C317   H345    1.081   .     S
C317   N348    1.367   .     A
C318   H346    1.081   .     S
C318   N347    1.366   .     A
C318   C543    1.416   .     S
C319   C324    1.446   .     S
C319   O356    1.289   .     A
C319   O353    1.289   .     A
C320   O355    1.289   .     A
C320   O354    1.288   .     A
C320   C323    1.446   .     S
C321   C331    1.414   .     A
C321   C357    1.487   .     S
C321   C323    1.410   .     A
C322   C332    1.413   .     A
C322   C361    1.487   .     S
C322   C324    1.410   .     A
C323   C325    1.393   .     A
C324   C326    1.393   .     A
C325   H337    1.086   .     S
C325   C327    1.389   .     A
C326   H338    1.086   .     S
C326   C328    1.389   .     A
C327   C333    1.398   .     A
C327   C329    1.410   .     A
C328   C330    1.410   .     A
C328   C334    1.398   .     A
C329   C331    1.421   .     A
C329   C1014   1.409   .     S
C330   C332    1.421   .     A
C330   C1013   1.409   1_554 S
C333   H339    1.084   .     S
C333   C991    1.390   .     S
C334   H340    1.084   .     S
C334   C992    1.391   1_554 S
Cu335  N347    2.012   .     S
Cu335  O351    1.995   .     S
Cu335  O353    1.959   .     S
Cu335  O355    1.957   .     S
Cu335  Cu336   2.678   .     S
Cu335  O349    1.994   .     S
Cu336  O356    1.957   .     S
Cu336  O352    1.995   .     S
Cu336  N348    2.012   .     S
Cu336  O354    1.959   .     S
Cu336  O350    1.994   .     S
C357   O358    1.223   .     D
C357   O359    1.398   .     S
O359   H360    1.014   .     S
C361   O363    1.398   .     S
C361   O362    1.222   .     D
O363   H364    1.014   .     S
C365   O367    1.398   .     S
C365   O366    1.222   .     D
O367   H368    1.011   .     S
C369   O371    1.397   .     S
C369   O370    1.223   .     D
O371   H372    1.013   .     S
C373   O375    1.399   .     S
C373   O374    1.223   .     D
O375   H376    1.014   .     S
C377   O379    1.396   .     S
C377   O378    1.222   .     D
O379   H380    1.009   .     S
C381   C390    1.480   .     S
C381   O428    1.297   .     A
C381   O425    1.296   .     A
C382   O426    1.298   .     A
C382   O427    1.292   .     A
C382   C389    1.472   .     S
C383   C408    1.409   .     A
C383   H417    1.081   .     S
C383   C1093   1.390   1_554 S
C384   C407    1.409   .     A
C384   H418    1.081   .     S
C384   C1094   1.391   .     S
C385   C441    1.478   .     S
C385   C390    1.419   .     A
C386   C389    1.419   .     A
C386   C445    1.487   .     S
C386   C236    1.394   1_655 S
C387   C389    1.417   .     A
C387   C449    1.489   .     S
C387   C233    1.400   1_655 S
C388   C453    1.479   .     S
C388   C390    1.418   .     A
C391   N424    1.367   .     A
C391   H419    1.081   .     S
C392   N423    1.367   .     A
C392   H420    1.081   .     S
C392   C621    1.416   .     S
C393   H421    1.081   .     S
C393   N424    1.367   .     A
C394   H422    1.081   .     S
C394   N423    1.366   .     A
C394   C619    1.416   .     S
C395   C400    1.446   .     S
C395   O432    1.289   .     A
C395   O429    1.289   .     A
C396   O431    1.289   .     A
C396   O430    1.288   .     A
C396   C399    1.446   .     S
C397   C407    1.414   .     A
C397   C433    1.487   .     S
C397   C399    1.410   .     A
C398   C408    1.413   .     A
C398   C437    1.487   .     S
C398   C400    1.410   .     A
C399   C401    1.393   .     A
C400   C402    1.393   .     A
C401   H413    1.086   .     S
C401   C403    1.389   .     A
C402   H414    1.086   .     S
C402   C404    1.389   .     A
C403   C409    1.398   .     A
C403   C405    1.410   .     A
C404   C406    1.410   .     A
C404   C410    1.398   .     A
C405   C407    1.421   .     A
C405   C1090   1.409   .     S
C406   C408    1.421   .     A
C406   C1089   1.409   1_554 S
C409   H415    1.084   .     S
C409   C1067   1.390   .     S
C410   H416    1.084   .     S
C410   C1068   1.391   1_554 S
Cu411  N423    2.012   .     S
Cu411  O427    1.995   .     S
Cu411  O429    1.959   .     S
Cu411  O431    1.957   .     S
Cu411  Cu412   2.678   .     S
Cu411  O425    1.994   .     S
Cu412  O432    1.957   .     S
Cu412  O428    1.995   .     S
Cu412  N424    2.012   .     S
Cu412  O430    1.959   .     S
Cu412  O426    1.994   .     S
C433   O434    1.223   .     D
C433   O435    1.398   .     S
O435   H436    1.014   .     S
C437   O439    1.398   .     S
C437   O438    1.222   .     D
O439   H440    1.014   .     S
C441   O443    1.398   .     S
C441   O442    1.222   .     D
O443   H444    1.011   .     S
C445   O447    1.397   .     S
C445   O446    1.223   .     D
O447   H448    1.013   .     S
C449   O451    1.399   .     S
C449   O450    1.223   .     D
O451   H452    1.014   .     S
C453   O455    1.396   .     S
C453   O454    1.222   .     D
O455   H456    1.009   .     S
C457   C466    1.480   .     S
C457   O504    1.297   .     A
C457   O501    1.296   .     A
C458   O502    1.298   .     A
C458   O503    1.292   .     A
C458   C465    1.472   .     S
C459   C484    1.409   .     A
C459   H493    1.081   .     S
C459   C1169   1.390   1_554 S
C460   C483    1.409   .     A
C460   H494    1.081   .     S
C460   C1170   1.391   .     S
C461   C517    1.478   .     S
C461   C466    1.419   .     A
C461   C615    1.400   1_455 S
C462   C465    1.419   .     A
C462   C521    1.487   .     S
C462   C540    1.394   .     S
C463   C465    1.417   .     A
C463   C525    1.489   .     S
C463   C537    1.400   .     S
C464   C529    1.479   .     S
C464   C466    1.418   .     A
C464   C614    1.394   1_455 S
C467   N500    1.367   .     A
C467   H495    1.081   .     S
C468   N499    1.367   .     A
C468   H496    1.081   .     S
C468   C13     1.416   1_565 S
C469   H497    1.081   .     S
C469   N500    1.367   .     A
C470   H498    1.081   .     S
C470   N499    1.366   .     A
C470   C11     1.416   1_565 S
C471   C476    1.446   .     S
C471   O508    1.289   .     A
C471   O505    1.289   .     A
C472   O507    1.289   .     A
C472   O506    1.288   .     A
C472   C475    1.446   .     S
C473   C483    1.414   .     A
C473   C509    1.487   .     S
C473   C475    1.410   .     A
C474   C484    1.413   .     A
C474   C513    1.487   .     S
C474   C476    1.410   .     A
C475   C477    1.393   .     A
C476   C478    1.393   .     A
C477   H489    1.086   .     S
C477   C479    1.389   .     A
C478   H490    1.086   .     S
C478   C480    1.389   .     A
C479   C485    1.398   .     A
C479   C481    1.410   .     A
C480   C482    1.410   .     A
C480   C486    1.398   .     A
C481   C483    1.421   .     A
C481   C1166   1.409   .     S
C482   C484    1.421   .     A
C482   C1165   1.409   1_554 S
C485   H491    1.084   .     S
C485   C1143   1.390   .     S
C486   H492    1.084   .     S
C486   C1144   1.391   1_554 S
Cu487  N499    2.012   .     S
Cu487  O503    1.995   .     S
Cu487  O505    1.959   .     S
Cu487  O507    1.957   .     S
Cu487  Cu488   2.678   .     S
Cu487  O501    1.994   .     S
Cu488  O508    1.957   .     S
Cu488  O504    1.995   .     S
Cu488  N500    2.012   .     S
Cu488  O506    1.959   .     S
Cu488  O502    1.994   .     S
C509   O510    1.223   .     D
C509   O511    1.398   .     S
O511   H512    1.014   .     S
C513   O515    1.398   .     S
C513   O514    1.222   .     D
O515   H516    1.014   .     S
C517   O519    1.398   .     S
C517   O518    1.222   .     D
O519   H520    1.011   .     S
C521   O523    1.397   .     S
C521   O522    1.223   .     D
O523   H524    1.013   .     S
C525   O527    1.399   .     S
C525   O526    1.223   .     D
O527   H528    1.014   .     S
C529   O531    1.396   .     S
C529   O530    1.222   .     D
O531   H532    1.009   .     S
C533   C542    1.480   .     S
C533   O580    1.297   .     A
C533   O577    1.296   .     A
C534   O578    1.298   .     A
C534   O579    1.292   .     A
C534   C541    1.472   .     S
C535   C560    1.409   .     A
C535   H569    1.081   .     S
C535   C1245   1.390   1_554 S
C536   C559    1.409   .     A
C536   H570    1.081   .     S
C536   C1246   1.391   .     S
C537   C593    1.478   .     S
C537   C542    1.419   .     A
C538   C541    1.419   .     A
C538   C597    1.487   .     S
C538   C616    1.394   .     S
C539   C541    1.417   .     A
C539   C601    1.489   .     S
C539   C613    1.400   .     S
C540   C605    1.479   .     S
C540   C542    1.418   .     A
C543   N576    1.367   .     A
C543   H571    1.081   .     S
C544   N575    1.367   .     A
C544   H572    1.081   .     S
C544   C89     1.416   1_565 S
C545   H573    1.081   .     S
C545   N576    1.367   .     A
C546   H574    1.081   .     S
C546   N575    1.366   .     A
C546   C87     1.416   1_565 S
C547   C552    1.446   .     S
C547   O584    1.289   .     A
C547   O581    1.289   .     A
C548   O583    1.289   .     A
C548   O582    1.288   .     A
C548   C551    1.446   .     S
C549   C559    1.414   .     A
C549   C585    1.487   .     S
C549   C551    1.410   .     A
C550   C560    1.413   .     A
C550   C589    1.487   .     S
C550   C552    1.410   .     A
C551   C553    1.393   .     A
C552   C554    1.393   .     A
C553   H565    1.086   .     S
C553   C555    1.389   .     A
C554   H566    1.086   .     S
C554   C556    1.389   .     A
C555   C561    1.398   .     A
C555   C557    1.410   .     A
C556   C558    1.410   .     A
C556   C562    1.398   .     A
C557   C559    1.421   .     A
C557   C1242   1.409   .     S
C558   C560    1.421   .     A
C558   C1241   1.409   1_554 S
C561   H567    1.084   .     S
C561   C1219   1.390   .     S
C562   H568    1.084   .     S
C562   C1220   1.391   1_554 S
Cu563  N575    2.012   .     S
Cu563  O579    1.995   .     S
Cu563  O581    1.959   .     S
Cu563  O583    1.957   .     S
Cu563  Cu564   2.678   .     S
Cu563  O577    1.994   .     S
Cu564  O584    1.957   .     S
Cu564  O580    1.995   .     S
Cu564  N576    2.012   .     S
Cu564  O582    1.959   .     S
Cu564  O578    1.994   .     S
C585   O586    1.223   .     D
C585   O587    1.398   .     S
O587   H588    1.014   .     S
C589   O591    1.398   .     S
C589   O590    1.222   .     D
O591   H592    1.014   .     S
C593   O595    1.398   .     S
C593   O594    1.222   .     D
O595   H596    1.011   .     S
C597   O599    1.397   .     S
C597   O598    1.223   .     D
O599   H600    1.013   .     S
C601   O603    1.399   .     S
C601   O602    1.223   .     D
O603   H604    1.014   .     S
C605   O607    1.396   .     S
C605   O606    1.222   .     D
O607   H608    1.009   .     S
C609   C618    1.480   .     S
C609   O656    1.297   .     A
C609   O653    1.296   .     A
C610   O654    1.298   .     A
C610   O655    1.292   .     A
C610   C617    1.472   .     S
C611   C636    1.409   .     A
C611   H645    1.081   .     S
C611   C1321   1.390   1_554 S
C612   C635    1.409   .     A
C612   H646    1.081   .     S
C612   C1322   1.391   .     S
C613   C669    1.478   .     S
C613   C618    1.419   .     A
C614   C617    1.419   .     A
C614   C673    1.487   .     S
C614   C464    1.394   1_655 S
C615   C617    1.417   .     A
C615   C677    1.489   .     S
C615   C461    1.400   1_655 S
C616   C681    1.479   .     S
C616   C618    1.418   .     A
C619   N652    1.367   .     A
C619   H647    1.081   .     S
C620   N651    1.367   .     A
C620   H648    1.081   .     S
C620   C165    1.416   1_565 S
C621   H649    1.081   .     S
C621   N652    1.367   .     A
C622   H650    1.081   .     S
C622   N651    1.366   .     A
C622   C163    1.416   1_565 S
C623   C628    1.446   .     S
C623   O660    1.289   .     A
C623   O657    1.289   .     A
C624   O659    1.289   .     A
C624   O658    1.288   .     A
C624   C627    1.446   .     S
C625   C635    1.414   .     A
C625   C661    1.487   .     S
C625   C627    1.410   .     A
C626   C636    1.413   .     A
C626   C665    1.487   .     S
C626   C628    1.410   .     A
C627   C629    1.393   .     A
C628   C630    1.393   .     A
C629   H641    1.086   .     S
C629   C631    1.389   .     A
C630   H642    1.086   .     S
C630   C632    1.389   .     A
C631   C637    1.398   .     A
C631   C633    1.410   .     A
C632   C634    1.410   .     A
C632   C638    1.398   .     A
C633   C635    1.421   .     A
C633   C1318   1.409   .     S
C634   C636    1.421   .     A
C634   C1317   1.409   1_554 S
C637   H643    1.084   .     S
C637   C1295   1.390   .     S
C638   H644    1.084   .     S
C638   C1296   1.391   1_554 S
Cu639  N651    2.012   .     S
Cu639  O655    1.995   .     S
Cu639  O657    1.959   .     S
Cu639  O659    1.957   .     S
Cu639  Cu640   2.678   .     S
Cu639  O653    1.994   .     S
Cu640  O660    1.957   .     S
Cu640  O656    1.995   .     S
Cu640  N652    2.012   .     S
Cu640  O658    1.959   .     S
Cu640  O654    1.994   .     S
C661   O662    1.223   .     D
C661   O663    1.398   .     S
O663   H664    1.014   .     S
C665   O667    1.398   .     S
C665   O666    1.222   .     D
O667   H668    1.014   .     S
C669   O671    1.398   .     S
C669   O670    1.222   .     D
O671   H672    1.011   .     S
C673   O675    1.397   .     S
C673   O674    1.223   .     D
O675   H676    1.013   .     S
C677   O679    1.399   .     S
C677   O678    1.223   .     D
O679   H680    1.014   .     S
C681   O683    1.396   .     S
C681   O682    1.222   .     D
O683   H684    1.009   .     S
C685   C694    1.480   .     S
C685   O732    1.297   .     A
C685   O729    1.296   .     A
C686   O730    1.298   .     A
C686   O731    1.292   .     A
C686   C693    1.472   .     S
C687   C712    1.409   .     A
C687   H721    1.081   .     S
C688   C711    1.409   .     A
C688   H722    1.081   .     S
C688   C30     1.391   1_556 S
C689   C745    1.478   .     S
C689   C694    1.419   .     A
C689   C843    1.400   1_455 S
C690   C693    1.419   .     A
C690   C749    1.487   .     S
C690   C768    1.394   .     S
C691   C693    1.417   .     A
C691   C753    1.489   .     S
C691   C765    1.400   .     S
C692   C757    1.479   .     S
C692   C694    1.418   .     A
C692   C842    1.394   1_455 S
C695   N728    1.367   .     A
C695   H723    1.081   .     S
C695   C1154   1.416   1_545 S
C696   N727    1.367   .     A
C696   H724    1.081   .     S
C696   C925    1.416   .     S
C697   H725    1.081   .     S
C697   N728    1.367   .     A
C697   C1152   1.416   1_545 S
C698   H726    1.081   .     S
C698   N727    1.366   .     A
C698   C923    1.416   .     S
C699   C704    1.446   .     S
C699   O736    1.289   .     A
C699   O733    1.289   .     A
C700   O735    1.289   .     A
C700   O734    1.288   .     A
C700   C703    1.446   .     S
C701   C711    1.414   .     A
C701   C737    1.487   .     S
C701   C703    1.410   .     A
C702   C712    1.413   .     A
C702   C741    1.487   .     S
C702   C704    1.410   .     A
C703   C705    1.393   .     A
C704   C706    1.393   .     A
C705   H717    1.086   .     S
C705   C707    1.389   .     A
C706   H718    1.086   .     S
C706   C708    1.389   .     A
C707   C713    1.398   .     A
C707   C709    1.410   .     A
C708   C710    1.410   .     A
C708   C714    1.398   .     A
C709   C711    1.421   .     A
C709   C26     1.409   1_556 S
C710   C712    1.421   .     A
C713   H719    1.084   .     S
C713   C3      1.390   1_556 S
C714   H720    1.084   .     S
Cu715  N727    2.012   .     S
Cu715  O731    1.995   .     S
Cu715  O733    1.959   .     S
Cu715  O735    1.957   .     S
Cu715  Cu716   2.678   .     S
Cu715  O729    1.994   .     S
Cu716  O736    1.957   .     S
Cu716  O732    1.995   .     S
Cu716  N728    2.012   .     S
Cu716  O734    1.959   .     S
Cu716  O730    1.994   .     S
C737   O738    1.223   .     D
C737   O739    1.398   .     S
O739   H740    1.014   .     S
C741   O743    1.398   .     S
C741   O742    1.222   .     D
O743   H744    1.014   .     S
C745   O747    1.398   .     S
C745   O746    1.222   .     D
O747   H748    1.011   .     S
C749   O751    1.397   .     S
C749   O750    1.223   .     D
O751   H752    1.013   .     S
C753   O755    1.399   .     S
C753   O754    1.223   .     D
O755   H756    1.014   .     S
C757   O759    1.396   .     S
C757   O758    1.222   .     D
O759   H760    1.009   .     S
C761   C770    1.480   .     S
C761   O808    1.297   .     A
C761   O805    1.296   .     A
C762   O806    1.298   .     A
C762   O807    1.292   .     A
C762   C769    1.472   .     S
C763   C788    1.409   .     A
C763   H797    1.081   .     S
C764   C787    1.409   .     A
C764   H798    1.081   .     S
C764   C106    1.391   1_556 S
C765   C821    1.478   .     S
C765   C770    1.419   .     A
C766   C769    1.419   .     A
C766   C825    1.487   .     S
C766   C844    1.394   .     S
C767   C769    1.417   .     A
C767   C829    1.489   .     S
C767   C841    1.400   .     S
C768   C833    1.479   .     S
C768   C770    1.418   .     A
C771   N804    1.367   .     A
C771   H799    1.081   .     S
C771   C1230   1.416   1_545 S
C772   N803    1.367   .     A
C772   H800    1.081   .     S
C772   C1001   1.416   .     S
C773   H801    1.081   .     S
C773   N804    1.367   .     A
C773   C1228   1.416   1_545 S
C774   H802    1.081   .     S
C774   N803    1.366   .     A
C774   C999    1.416   .     S
C775   C780    1.446   .     S
C775   O812    1.289   .     A
C775   O809    1.289   .     A
C776   O811    1.289   .     A
C776   O810    1.288   .     A
C776   C779    1.446   .     S
C777   C787    1.414   .     A
C777   C813    1.487   .     S
C777   C779    1.410   .     A
C778   C788    1.413   .     A
C778   C817    1.487   .     S
C778   C780    1.410   .     A
C779   C781    1.393   .     A
C780   C782    1.393   .     A
C781   H793    1.086   .     S
C781   C783    1.389   .     A
C782   H794    1.086   .     S
C782   C784    1.389   .     A
C783   C789    1.398   .     A
C783   C785    1.410   .     A
C784   C786    1.410   .     A
C784   C790    1.398   .     A
C785   C787    1.421   .     A
C785   C102    1.409   1_556 S
C786   C788    1.421   .     A
C789   H795    1.084   .     S
C789   C79     1.390   1_556 S
C790   H796    1.084   .     S
Cu791  N803    2.012   .     S
Cu791  O807    1.995   .     S
Cu791  O809    1.959   .     S
Cu791  O811    1.957   .     S
Cu791  Cu792   2.678   .     S
Cu791  O805    1.994   .     S
Cu792  O812    1.957   .     S
Cu792  O808    1.995   .     S
Cu792  N804    2.012   .     S
Cu792  O810    1.959   .     S
Cu792  O806    1.994   .     S
C813   O814    1.223   .     D
C813   O815    1.398   .     S
O815   H816    1.014   .     S
C817   O819    1.398   .     S
C817   O818    1.222   .     D
O819   H820    1.014   .     S
C821   O823    1.398   .     S
C821   O822    1.222   .     D
O823   H824    1.011   .     S
C825   O827    1.397   .     S
C825   O826    1.223   .     D
O827   H828    1.013   .     S
C829   O831    1.399   .     S
C829   O830    1.223   .     D
O831   H832    1.014   .     S
C833   O835    1.396   .     S
C833   O834    1.222   .     D
O835   H836    1.009   .     S
C837   C846    1.480   .     S
C837   O884    1.297   .     A
C837   O881    1.296   .     A
C838   O882    1.298   .     A
C838   O883    1.292   .     A
C838   C845    1.472   .     S
C839   C864    1.409   .     A
C839   H873    1.081   .     S
C840   C863    1.409   .     A
C840   H874    1.081   .     S
C840   C182    1.391   1_556 S
C841   C897    1.478   .     S
C841   C846    1.419   .     A
C842   C845    1.419   .     A
C842   C901    1.487   .     S
C842   C692    1.394   1_655 S
C843   C845    1.417   .     A
C843   C905    1.489   .     S
C843   C689    1.400   1_655 S
C844   C909    1.479   .     S
C844   C846    1.418   .     A
C847   N880    1.367   .     A
C847   H875    1.081   .     S
C847   C1306   1.416   1_545 S
C848   N879    1.367   .     A
C848   H876    1.081   .     S
C848   C1077   1.416   .     S
C849   H877    1.081   .     S
C849   N880    1.367   .     A
C849   C1304   1.416   1_545 S
C850   H878    1.081   .     S
C850   N879    1.366   .     A
C850   C1075   1.416   .     S
C851   C856    1.446   .     S
C851   O888    1.289   .     A
C851   O885    1.289   .     A
C852   O887    1.289   .     A
C852   O886    1.288   .     A
C852   C855    1.446   .     S
C853   C863    1.414   .     A
C853   C889    1.487   .     S
C853   C855    1.410   .     A
C854   C864    1.413   .     A
C854   C893    1.487   .     S
C854   C856    1.410   .     A
C855   C857    1.393   .     A
C856   C858    1.393   .     A
C857   H869    1.086   .     S
C857   C859    1.389   .     A
C858   H870    1.086   .     S
C858   C860    1.389   .     A
C859   C865    1.398   .     A
C859   C861    1.410   .     A
C860   C862    1.410   .     A
C860   C866    1.398   .     A
C861   C863    1.421   .     A
C861   C178    1.409   1_556 S
C862   C864    1.421   .     A
C865   H871    1.084   .     S
C865   C155    1.390   1_556 S
C866   H872    1.084   .     S
Cu867  N879    2.012   .     S
Cu867  O883    1.995   .     S
Cu867  O885    1.959   .     S
Cu867  O887    1.957   .     S
Cu867  Cu868   2.678   .     S
Cu867  O881    1.994   .     S
Cu868  O888    1.957   .     S
Cu868  O884    1.995   .     S
Cu868  N880    2.012   .     S
Cu868  O886    1.959   .     S
Cu868  O882    1.994   .     S
C889   O890    1.223   .     D
C889   O891    1.398   .     S
O891   H892    1.014   .     S
C893   O895    1.398   .     S
C893   O894    1.222   .     D
O895   H896    1.014   .     S
C897   O899    1.398   .     S
C897   O898    1.222   .     D
O899   H900    1.011   .     S
C901   O903    1.397   .     S
C901   O902    1.223   .     D
O903   H904    1.013   .     S
C905   O907    1.399   .     S
C905   O906    1.223   .     D
O907   H908    1.014   .     S
C909   O911    1.396   .     S
C909   O910    1.222   .     D
O911   H912    1.009   .     S
C913   C922    1.480   .     S
C913   O960    1.297   .     A
C913   O957    1.296   .     A
C914   O958    1.298   .     A
C914   O959    1.292   .     A
C914   C921    1.472   .     S
C915   C940    1.409   .     A
C915   H949    1.081   .     S
C916   C939    1.409   .     A
C916   H950    1.081   .     S
C916   C258    1.391   1_556 S
C917   C973    1.478   .     S
C917   C922    1.419   .     A
C917   C1071   1.400   1_455 S
C918   C921    1.419   .     A
C918   C977    1.487   .     S
C918   C996    1.394   .     S
C919   C921    1.417   .     A
C919   C981    1.489   .     S
C919   C993    1.400   .     S
C920   C985    1.479   .     S
C920   C922    1.418   .     A
C920   C1070   1.394   1_455 S
C923   N956    1.367   .     A
C923   H951    1.081   .     S
C924   N955    1.367   .     A
C924   H952    1.081   .     S
C924   C1153   1.416   .     S
C925   H953    1.081   .     S
C925   N956    1.367   .     A
C926   H954    1.081   .     S
C926   N955    1.366   .     A
C926   C1151   1.416   .     S
C927   C932    1.446   .     S
C927   O964    1.289   .     A
C927   O961    1.289   .     A
C928   O963    1.289   .     A
C928   O962    1.288   .     A
C928   C931    1.446   .     S
C929   C939    1.414   .     A
C929   C965    1.487   .     S
C929   C931    1.410   .     A
C930   C940    1.413   .     A
C930   C969    1.487   .     S
C930   C932    1.410   .     A
C931   C933    1.393   .     A
C932   C934    1.393   .     A
C933   H945    1.086   .     S
C933   C935    1.389   .     A
C934   H946    1.086   .     S
C934   C936    1.389   .     A
C935   C941    1.398   .     A
C935   C937    1.410   .     A
C936   C938    1.410   .     A
C936   C942    1.398   .     A
C937   C939    1.421   .     A
C937   C254    1.409   1_556 S
C938   C940    1.421   .     A
C941   H947    1.084   .     S
C941   C231    1.390   1_556 S
C942   H948    1.084   .     S
Cu943  N955    2.012   .     S
Cu943  O959    1.995   .     S
Cu943  O961    1.959   .     S
Cu943  O963    1.957   .     S
Cu943  Cu944   2.678   .     S
Cu943  O957    1.994   .     S
Cu944  O964    1.957   .     S
Cu944  O960    1.995   .     S
Cu944  N956    2.012   .     S
Cu944  O962    1.959   .     S
Cu944  O958    1.994   .     S
C965   O966    1.223   .     D
C965   O967    1.398   .     S
O967   H968    1.014   .     S
C969   O971    1.398   .     S
C969   O970    1.222   .     D
O971   H972    1.014   .     S
C973   O975    1.398   .     S
C973   O974    1.222   .     D
O975   H976    1.011   .     S
C977   O979    1.397   .     S
C977   O978    1.223   .     D
O979   H980    1.013   .     S
C981   O983    1.399   .     S
C981   O982    1.223   .     D
O983   H984    1.014   .     S
C985   O987    1.396   .     S
C985   O986    1.222   .     D
O987   H988    1.009   .     S
C989   C998    1.480   .     S
C989   O1036   1.297   .     A
C989   O1033   1.296   .     A
C990   O1034   1.298   .     A
C990   O1035   1.292   .     A
C990   C997    1.472   .     S
C991   C1016   1.409   .     A
C991   H1025   1.081   .     S
C992   C1015   1.409   .     A
C992   H1026   1.081   .     S
C992   C334    1.391   1_556 S
C993   C1049   1.478   .     S
C993   C998    1.419   .     A
C994   C997    1.419   .     A
C994   C1053   1.487   .     S
C994   C1072   1.394   .     S
C995   C997    1.417   .     A
C995   C1057   1.489   .     S
C995   C1069   1.400   .     S
C996   C1061   1.479   .     S
C996   C998    1.418   .     A
C999   N1032   1.367   .     A
C999   H1027   1.081   .     S
C1000  N1031   1.367   .     A
C1000  H1028   1.081   .     S
C1000  C1229   1.416   .     S
C1001  H1029   1.081   .     S
C1001  N1032   1.367   .     A
C1002  H1030   1.081   .     S
C1002  N1031   1.366   .     A
C1002  C1227   1.416   .     S
C1003  C1008   1.446   .     S
C1003  O1040   1.289   .     A
C1003  O1037   1.289   .     A
C1004  O1039   1.289   .     A
C1004  O1038   1.288   .     A
C1004  C1007   1.446   .     S
C1005  C1015   1.414   .     A
C1005  C1041   1.487   .     S
C1005  C1007   1.410   .     A
C1006  C1016   1.413   .     A
C1006  C1045   1.487   .     S
C1006  C1008   1.410   .     A
C1007  C1009   1.393   .     A
C1008  C1010   1.393   .     A
C1009  H1021   1.086   .     S
C1009  C1011   1.389   .     A
C1010  H1022   1.086   .     S
C1010  C1012   1.389   .     A
C1011  C1017   1.398   .     A
C1011  C1013   1.410   .     A
C1012  C1014   1.410   .     A
C1012  C1018   1.398   .     A
C1013  C1015   1.421   .     A
C1013  C330    1.409   1_556 S
C1014  C1016   1.421   .     A
C1017  H1023   1.084   .     S
C1017  C307    1.390   1_556 S
C1018  H1024   1.084   .     S
Cu1019 N1031   2.012   .     S
Cu1019 O1035   1.995   .     S
Cu1019 O1037   1.959   .     S
Cu1019 O1039   1.957   .     S
Cu1019 Cu1020  2.678   .     S
Cu1019 O1033   1.994   .     S
Cu1020 O1040   1.957   .     S
Cu1020 O1036   1.995   .     S
Cu1020 N1032   2.012   .     S
Cu1020 O1038   1.959   .     S
Cu1020 O1034   1.994   .     S
C1041  O1042   1.223   .     D
C1041  O1043   1.398   .     S
O1043  H1044   1.014   .     S
C1045  O1047   1.398   .     S
C1045  O1046   1.222   .     D
O1047  H1048   1.014   .     S
C1049  O1051   1.398   .     S
C1049  O1050   1.222   .     D
O1051  H1052   1.011   .     S
C1053  O1055   1.397   .     S
C1053  O1054   1.223   .     D
O1055  H1056   1.013   .     S
C1057  O1059   1.399   .     S
C1057  O1058   1.223   .     D
O1059  H1060   1.014   .     S
C1061  O1063   1.396   .     S
C1061  O1062   1.222   .     D
O1063  H1064   1.009   .     S
C1065  C1074   1.480   .     S
C1065  O1112   1.297   .     A
C1065  O1109   1.296   .     A
C1066  O1110   1.298   .     A
C1066  O1111   1.292   .     A
C1066  C1073   1.472   .     S
C1067  C1092   1.409   .     A
C1067  H1101   1.081   .     S
C1068  C1091   1.409   .     A
C1068  H1102   1.081   .     S
C1068  C410    1.391   1_556 S
C1069  C1125   1.478   .     S
C1069  C1074   1.419   .     A
C1070  C1073   1.419   .     A
C1070  C1129   1.487   .     S
C1070  C920    1.394   1_655 S
C1071  C1073   1.417   .     A
C1071  C1133   1.489   .     S
C1071  C917    1.400   1_655 S
C1072  C1137   1.479   .     S
C1072  C1074   1.418   .     A
C1075  N1108   1.367   .     A
C1075  H1103   1.081   .     S
C1076  N1107   1.367   .     A
C1076  H1104   1.081   .     S
C1076  C1305   1.416   .     S
C1077  H1105   1.081   .     S
C1077  N1108   1.367   .     A
C1078  H1106   1.081   .     S
C1078  N1107   1.366   .     A
C1078  C1303   1.416   .     S
C1079  C1084   1.446   .     S
C1079  O1116   1.289   .     A
C1079  O1113   1.289   .     A
C1080  O1115   1.289   .     A
C1080  O1114   1.288   .     A
C1080  C1083   1.446   .     S
C1081  C1091   1.414   .     A
C1081  C1117   1.487   .     S
C1081  C1083   1.410   .     A
C1082  C1092   1.413   .     A
C1082  C1121   1.487   .     S
C1082  C1084   1.410   .     A
C1083  C1085   1.393   .     A
C1084  C1086   1.393   .     A
C1085  H1097   1.086   .     S
C1085  C1087   1.389   .     A
C1086  H1098   1.086   .     S
C1086  C1088   1.389   .     A
C1087  C1093   1.398   .     A
C1087  C1089   1.410   .     A
C1088  C1090   1.410   .     A
C1088  C1094   1.398   .     A
C1089  C1091   1.421   .     A
C1089  C406    1.409   1_556 S
C1090  C1092   1.421   .     A
C1093  H1099   1.084   .     S
C1093  C383    1.390   1_556 S
C1094  H1100   1.084   .     S
Cu1095 N1107   2.012   .     S
Cu1095 O1111   1.995   .     S
Cu1095 O1113   1.959   .     S
Cu1095 O1115   1.957   .     S
Cu1095 Cu1096  2.678   .     S
Cu1095 O1109   1.994   .     S
Cu1096 O1116   1.957   .     S
Cu1096 O1112   1.995   .     S
Cu1096 N1108   2.012   .     S
Cu1096 O1114   1.959   .     S
Cu1096 O1110   1.994   .     S
C1117  O1118   1.223   .     D
C1117  O1119   1.398   .     S
O1119  H1120   1.014   .     S
C1121  O1123   1.398   .     S
C1121  O1122   1.222   .     D
O1123  H1124   1.014   .     S
C1125  O1127   1.398   .     S
C1125  O1126   1.222   .     D
O1127  H1128   1.011   .     S
C1129  O1131   1.397   .     S
C1129  O1130   1.223   .     D
O1131  H1132   1.013   .     S
C1133  O1135   1.399   .     S
C1133  O1134   1.223   .     D
O1135  H1136   1.014   .     S
C1137  O1139   1.396   .     S
C1137  O1138   1.222   .     D
O1139  H1140   1.009   .     S
C1141  C1150   1.480   .     S
C1141  O1188   1.297   .     A
C1141  O1185   1.296   .     A
C1142  O1186   1.298   .     A
C1142  O1187   1.292   .     A
C1142  C1149   1.472   .     S
C1143  C1168   1.409   .     A
C1143  H1177   1.081   .     S
C1144  C1167   1.409   .     A
C1144  H1178   1.081   .     S
C1144  C486    1.391   1_556 S
C1145  C1201   1.478   .     S
C1145  C1150   1.419   .     A
C1145  C1299   1.400   1_455 S
C1146  C1149   1.419   .     A
C1146  C1205   1.487   .     S
C1146  C1224   1.394   .     S
C1147  C1149   1.417   .     A
C1147  C1209   1.489   .     S
C1147  C1221   1.400   .     S
C1148  C1213   1.479   .     S
C1148  C1150   1.418   .     A
C1148  C1298   1.394   1_455 S
C1151  N1184   1.367   .     A
C1151  H1179   1.081   .     S
C1152  N1183   1.367   .     A
C1152  H1180   1.081   .     S
C1152  C697    1.416   1_565 S
C1153  H1181   1.081   .     S
C1153  N1184   1.367   .     A
C1154  H1182   1.081   .     S
C1154  N1183   1.366   .     A
C1154  C695    1.416   1_565 S
C1155  C1160   1.446   .     S
C1155  O1192   1.289   .     A
C1155  O1189   1.289   .     A
C1156  O1191   1.289   .     A
C1156  O1190   1.288   .     A
C1156  C1159   1.446   .     S
C1157  C1167   1.414   .     A
C1157  C1193   1.487   .     S
C1157  C1159   1.410   .     A
C1158  C1168   1.413   .     A
C1158  C1197   1.487   .     S
C1158  C1160   1.410   .     A
C1159  C1161   1.393   .     A
C1160  C1162   1.393   .     A
C1161  H1173   1.086   .     S
C1161  C1163   1.389   .     A
C1162  H1174   1.086   .     S
C1162  C1164   1.389   .     A
C1163  C1169   1.398   .     A
C1163  C1165   1.410   .     A
C1164  C1166   1.410   .     A
C1164  C1170   1.398   .     A
C1165  C1167   1.421   .     A
C1165  C482    1.409   1_556 S
C1166  C1168   1.421   .     A
C1169  H1175   1.084   .     S
C1169  C459    1.390   1_556 S
C1170  H1176   1.084   .     S
Cu1171 N1183   2.012   .     S
Cu1171 O1187   1.995   .     S
Cu1171 O1189   1.959   .     S
Cu1171 O1191   1.957   .     S
Cu1171 Cu1172  2.678   .     S
Cu1171 O1185   1.994   .     S
Cu1172 O1192   1.957   .     S
Cu1172 O1188   1.995   .     S
Cu1172 N1184   2.012   .     S
Cu1172 O1190   1.959   .     S
Cu1172 O1186   1.994   .     S
C1193  O1194   1.223   .     D
C1193  O1195   1.398   .     S
O1195  H1196   1.014   .     S
C1197  O1199   1.398   .     S
C1197  O1198   1.222   .     D
O1199  H1200   1.014   .     S
C1201  O1203   1.398   .     S
C1201  O1202   1.222   .     D
O1203  H1204   1.011   .     S
C1205  O1207   1.397   .     S
C1205  O1206   1.223   .     D
O1207  H1208   1.013   .     S
C1209  O1211   1.399   .     S
C1209  O1210   1.223   .     D
O1211  H1212   1.014   .     S
C1213  O1215   1.396   .     S
C1213  O1214   1.222   .     D
O1215  H1216   1.009   .     S
C1217  C1226   1.480   .     S
C1217  O1264   1.297   .     A
C1217  O1261   1.296   .     A
C1218  O1262   1.298   .     A
C1218  O1263   1.292   .     A
C1218  C1225   1.472   .     S
C1219  C1244   1.409   .     A
C1219  H1253   1.081   .     S
C1220  C1243   1.409   .     A
C1220  H1254   1.081   .     S
C1220  C562    1.391   1_556 S
C1221  C1277   1.478   .     S
C1221  C1226   1.419   .     A
C1222  C1225   1.419   .     A
C1222  C1281   1.487   .     S
C1222  C1300   1.394   .     S
C1223  C1225   1.417   .     A
C1223  C1285   1.489   .     S
C1223  C1297   1.400   .     S
C1224  C1289   1.479   .     S
C1224  C1226   1.418   .     A
C1227  N1260   1.367   .     A
C1227  H1255   1.081   .     S
C1228  N1259   1.367   .     A
C1228  H1256   1.081   .     S
C1228  C773    1.416   1_565 S
C1229  H1257   1.081   .     S
C1229  N1260   1.367   .     A
C1230  H1258   1.081   .     S
C1230  N1259   1.366   .     A
C1230  C771    1.416   1_565 S
C1231  C1236   1.446   .     S
C1231  O1268   1.289   .     A
C1231  O1265   1.289   .     A
C1232  O1267   1.289   .     A
C1232  O1266   1.288   .     A
C1232  C1235   1.446   .     S
C1233  C1243   1.414   .     A
C1233  C1269   1.487   .     S
C1233  C1235   1.410   .     A
C1234  C1244   1.413   .     A
C1234  C1273   1.487   .     S
C1234  C1236   1.410   .     A
C1235  C1237   1.393   .     A
C1236  C1238   1.393   .     A
C1237  H1249   1.086   .     S
C1237  C1239   1.389   .     A
C1238  H1250   1.086   .     S
C1238  C1240   1.389   .     A
C1239  C1245   1.398   .     A
C1239  C1241   1.410   .     A
C1240  C1242   1.410   .     A
C1240  C1246   1.398   .     A
C1241  C1243   1.421   .     A
C1241  C558    1.409   1_556 S
C1242  C1244   1.421   .     A
C1245  H1251   1.084   .     S
C1245  C535    1.390   1_556 S
C1246  H1252   1.084   .     S
Cu1247 N1259   2.012   .     S
Cu1247 O1263   1.995   .     S
Cu1247 O1265   1.959   .     S
Cu1247 O1267   1.957   .     S
Cu1247 Cu1248  2.678   .     S
Cu1247 O1261   1.994   .     S
Cu1248 O1268   1.957   .     S
Cu1248 O1264   1.995   .     S
Cu1248 N1260   2.012   .     S
Cu1248 O1266   1.959   .     S
Cu1248 O1262   1.994   .     S
C1269  O1270   1.223   .     D
C1269  O1271   1.398   .     S
O1271  H1272   1.014   .     S
C1273  O1275   1.398   .     S
C1273  O1274   1.222   .     D
O1275  H1276   1.014   .     S
C1277  O1279   1.398   .     S
C1277  O1278   1.222   .     D
O1279  H1280   1.011   .     S
C1281  O1283   1.397   .     S
C1281  O1282   1.223   .     D
O1283  H1284   1.013   .     S
C1285  O1287   1.399   .     S
C1285  O1286   1.223   .     D
O1287  H1288   1.014   .     S
C1289  O1291   1.396   .     S
C1289  O1290   1.222   .     D
O1291  H1292   1.009   .     S
C1293  C1302   1.480   .     S
C1293  O1340   1.297   .     A
C1293  O1337   1.296   .     A
C1294  O1338   1.298   .     A
C1294  O1339   1.292   .     A
C1294  C1301   1.472   .     S
C1295  C1320   1.409   .     A
C1295  H1329   1.081   .     S
C1296  C1319   1.409   .     A
C1296  H1330   1.081   .     S
C1296  C638    1.391   1_556 S
C1297  C1353   1.478   .     S
C1297  C1302   1.419   .     A
C1298  C1301   1.419   .     A
C1298  C1357   1.487   .     S
C1298  C1148   1.394   1_655 S
C1299  C1301   1.417   .     A
C1299  C1361   1.489   .     S
C1299  C1145   1.400   1_655 S
C1300  C1365   1.479   .     S
C1300  C1302   1.418   .     A
C1303  N1336   1.367   .     A
C1303  H1331   1.081   .     S
C1304  N1335   1.367   .     A
C1304  H1332   1.081   .     S
C1304  C849    1.416   1_565 S
C1305  H1333   1.081   .     S
C1305  N1336   1.367   .     A
C1306  H1334   1.081   .     S
C1306  N1335   1.366   .     A
C1306  C847    1.416   1_565 S
C1307  C1312   1.446   .     S
C1307  O1344   1.289   .     A
C1307  O1341   1.289   .     A
C1308  O1343   1.289   .     A
C1308  O1342   1.288   .     A
C1308  C1311   1.446   .     S
C1309  C1319   1.414   .     A
C1309  C1345   1.487   .     S
C1309  C1311   1.410   .     A
C1310  C1320   1.413   .     A
C1310  C1349   1.487   .     S
C1310  C1312   1.410   .     A
C1311  C1313   1.393   .     A
C1312  C1314   1.393   .     A
C1313  H1325   1.086   .     S
C1313  C1315   1.389   .     A
C1314  H1326   1.086   .     S
C1314  C1316   1.389   .     A
C1315  C1321   1.398   .     A
C1315  C1317   1.410   .     A
C1316  C1318   1.410   .     A
C1316  C1322   1.398   .     A
C1317  C1319   1.421   .     A
C1317  C634    1.409   1_556 S
C1318  C1320   1.421   .     A
C1321  H1327   1.084   .     S
C1321  C611    1.390   1_556 S
C1322  H1328   1.084   .     S
Cu1323 N1335   2.012   .     S
Cu1323 O1339   1.995   .     S
Cu1323 O1341   1.959   .     S
Cu1323 O1343   1.957   .     S
Cu1323 Cu1324  2.678   .     S
Cu1323 O1337   1.994   .     S
Cu1324 O1344   1.957   .     S
Cu1324 O1340   1.995   .     S
Cu1324 N1336   2.012   .     S
Cu1324 O1342   1.959   .     S
Cu1324 O1338   1.994   .     S
C1345  O1346   1.223   .     D
C1345  O1347   1.398   .     S
O1347  H1348   1.014   .     S
C1349  O1351   1.398   .     S
C1349  O1350   1.222   .     D
O1351  H1352   1.014   .     S
C1353  O1355   1.398   .     S
C1353  O1354   1.222   .     D
O1355  H1356   1.011   .     S
C1357  O1359   1.397   .     S
C1357  O1358   1.223   .     D
O1359  H1360   1.013   .     S
C1361  O1363   1.399   .     S
C1361  O1362   1.223   .     D
O1363  H1364   1.014   .     S
C1365  O1367   1.396   .     S
C1365  O1366   1.222   .     D
O1367  H1368   1.009   .     S
