data_str_m1_o5_o17_pcu_sym.67
_audit_creation_date              2020-01-03
_audit_creation_method            'Materials Studio'
_symmetry_space_group_name_H-M    'P1'
_symmetry_Int_Tables_number       1
_symmetry_cell_setting            triclinic
loop_
_symmetry_equiv_pos_as_xyz
  x,y,z
_cell_length_a                    31.7848
_cell_length_b                    31.7843
_cell_length_c                    34.5447
_cell_angle_alpha                 89.9994
_cell_angle_beta                  89.9992
_cell_angle_gamma                 90.0107
loop_
_atom_site_label
_atom_site_type_symbol
_atom_site_fract_x
_atom_site_fract_y
_atom_site_fract_z
_atom_site_U_iso_or_equiv
_atom_site_adp_type
_atom_site_occupancy
C1     C     0.25000  -0.00000   0.35582   0.00000  Uiso   1.00
C2     C     0.33002   0.41998   0.75000   0.00000  Uiso   1.00
C3     C     0.42418   0.26523   0.02045   0.00000  Uiso   1.00
C4     C     0.23598   0.07606   0.97955   0.00000  Uiso   1.00
C5     C     0.26401   0.42394   0.02045   0.00000  Uiso   1.00
C6     C     0.42418   0.26524   0.97956   0.00000  Uiso   1.00
C7     C     0.07582   0.23475   0.02044   0.00000  Uiso   1.00
C8     C     0.46079   0.31651   0.39678   0.00000  Uiso   1.00
C9     C     0.03913   0.18344   0.60321   0.00000  Uiso   1.00
C10    C     0.18327   0.03885   0.39681   0.00000  Uiso   1.00
C11    C     0.31670   0.46113   0.60321   0.00000  Uiso   1.00
C12    C     0.03921   0.18348   0.39677   0.00000  Uiso   1.00
C13    C     0.41999   0.16999   0.25000   0.00000  Uiso   1.00
C14    C     0.46086   0.31656   0.60322   0.00000  Uiso   1.00
C15    C     0.31675   0.46118   0.39677   0.00000  Uiso   1.00
C16    C     0.18327   0.03883   0.60327   0.00000  Uiso   1.00
C17    C     0.21159   0.06697   0.89676   0.00000  Uiso   1.00
C18    C     0.28841   0.43303   0.10324   0.00000  Uiso   1.00
C19    C     0.43364   0.28947   0.89677   0.00000  Uiso   1.00
C20    C     0.06636   0.21053   0.10323   0.00000  Uiso   1.00
C21    C     0.28840   0.43303   0.89676   0.00000  Uiso   1.00
C22    C     0.21160   0.06698   0.10324   0.00000  Uiso   1.00
C23    C     0.06636   0.21052   0.89677   0.00000  Uiso   1.00
C24    C     0.08001   0.33001   0.75000   0.00000  Uiso   1.00
C25    C     0.43364   0.28948   0.10322   0.00000  Uiso   1.00
C26    C     0.01172   0.13343   0.45844   0.00000  Uiso   1.00
C27    C     0.48852   0.36657   0.54156   0.00000  Uiso   1.00
C28    C     0.36662   0.48908   0.45843   0.00000  Uiso   1.00
C29    C     0.13337   0.01139   0.54153   0.00000  Uiso   1.00
C30    C     0.48849   0.36655   0.45841   0.00000  Uiso   1.00
C31    C     0.01124   0.13344   0.54159   0.00000  Uiso   1.00
C32    C     0.13339   0.01046   0.45838   0.00000  Uiso   1.00
C33    C     0.36660   0.48912   0.54159   0.00000  Uiso   1.00
C34    C     0.26016   0.38332   0.95842   0.00000  Uiso   1.00
C35    C     0.33002   0.41998   0.25000   0.00000  Uiso   1.00
C36    C     0.23985   0.11669   0.04158   0.00000  Uiso   1.00
C37    C     0.11651   0.23792   0.95843   0.00000  Uiso   1.00
C38    C     0.38349   0.26207   0.04157   0.00000  Uiso   1.00
C39    C     0.23979   0.11669   0.95842   0.00000  Uiso   1.00
C40    C     0.26018   0.38332   0.04158   0.00000  Uiso   1.00
C41    C     0.38349   0.26210   0.95843   0.00000  Uiso   1.00
C42    C     0.11651   0.23787   0.04156   0.00000  Uiso   1.00
C43    C     0.16998   0.08002   0.75000   0.00000  Uiso   1.00
C44    C     0.08001   0.33001   0.25000   0.00000  Uiso   1.00
C45    C     0.41999   0.16999   0.75000   0.00000  Uiso   1.00
C46    C     0.16999   0.41999   0.75000   0.00000  Uiso   1.00
C47    C     0.33001   0.08001   0.25000   0.00000  Uiso   1.00
C48    C     0.41998   0.33002   0.75000   0.00000  Uiso   1.00
C49    C     0.25000   0.00000   0.64418   0.00000  Uiso   1.00
C50    C     0.08002   0.16998   0.25000   0.00000  Uiso   1.00
C51    C     0.33001   0.08001   0.75000   0.00000  Uiso   1.00
C52    C     0.16999   0.41999   0.25000   0.00000  Uiso   1.00
C53    C     0.08002   0.16998   0.75000   0.00000  Uiso   1.00
C54    C     0.41998   0.33002   0.25000   0.00000  Uiso   1.00
C55    C     0.13833   0.38833   0.25000   0.00000  Uiso   1.00
C56    C     0.36167   0.11167   0.75000   0.00000  Uiso   1.00
C57    C     0.11167   0.13833   0.25000   0.00000  Uiso   1.00
C58    C     0.38833   0.36167   0.75000   0.00000  Uiso   1.00
C59    C     0.36167   0.11167   0.25000   0.00000  Uiso   1.00
C60    C     0.00000   0.25000   0.35582   0.00000  Uiso   1.00
C61    C     0.13833   0.38833   0.75000   0.00000  Uiso   1.00
C62    C     0.38833   0.36167   0.25000   0.00000  Uiso   1.00
C63    C     0.11167   0.13833   0.75000   0.00000  Uiso   1.00
C64    C     0.13833   0.11167   0.75000   0.00000  Uiso   1.00
C65    C     0.36167   0.38833   0.25000   0.00000  Uiso   1.00
C66    C     0.11167   0.36167   0.75000   0.00000  Uiso   1.00
C67    C     0.38833   0.13833   0.25000   0.00000  Uiso   1.00
C68    C     0.36167   0.38833   0.75000   0.00000  Uiso   1.00
C69    C     0.13833   0.11167   0.25000   0.00000  Uiso   1.00
C70    C     0.38833   0.13833   0.75000   0.00000  Uiso   1.00
C71    C    -0.00000   0.25000   0.64418   0.00000  Uiso   1.00
C72    C     0.11167   0.36167   0.25000   0.00000  Uiso   1.00
C73    C     0.48397   0.28478   0.41834   0.00000  Uiso   1.00
C74    C     0.01598   0.21520   0.58166   0.00000  Uiso   1.00
C75    C     0.21513   0.01581   0.41834   0.00000  Uiso   1.00
C76    C     0.28485   0.48416   0.58166   0.00000  Uiso   1.00
C77    C     0.01605   0.21521   0.41834   0.00000  Uiso   1.00
C78    C     0.48399   0.28480   0.58166   0.00000  Uiso   1.00
C79    C     0.28488   0.48416   0.41834   0.00000  Uiso   1.00
C80    C     0.21513   0.01588   0.58167   0.00000  Uiso   1.00
C81    C     0.23438   0.03497   0.91833   0.00000  Uiso   1.00
C82    C     0.00000   0.25000   0.85582   0.00000  Uiso   1.00
C83    C     0.26561   0.46503   0.08166   0.00000  Uiso   1.00
C84    C     0.46528   0.26618   0.91834   0.00000  Uiso   1.00
C85    C     0.03472   0.23382   0.08166   0.00000  Uiso   1.00
C86    C     0.26561   0.46503   0.91834   0.00000  Uiso   1.00
C87    C     0.23439   0.03497   0.08166   0.00000  Uiso   1.00
C88    C     0.03472   0.23382   0.91834   0.00000  Uiso   1.00
C89    C     0.46529   0.26618   0.08166   0.00000  Uiso   1.00
C90    C     0.00000   0.24999   0.39823   0.00000  Uiso   1.00
C91    C    -0.00000   0.25000   0.60177   0.00000  Uiso   1.00
C92    C     0.25001  -0.00000   0.39823   0.00000  Uiso   1.00
C93    C     0.00000   0.25000   0.14418   0.00000  Uiso   1.00
C94    C     0.24999   0.00001   0.60177   0.00000  Uiso   1.00
C95    C     0.25000   0.00000   0.89823   0.00000  Uiso   1.00
C96    C     0.25000   0.00000   0.10177   0.00000  Uiso   1.00
C97    C     0.00000   0.25000   0.89823   0.00000  Uiso   1.00
C98    C     0.00000   0.25000   0.10177   0.00000  Uiso   1.00
C99    C     0.01071   0.21267   0.45904   0.00000  Uiso   1.00
C100   C     0.48932   0.28733   0.54096   0.00000  Uiso   1.00
C101   C     0.28738   0.48950   0.45904   0.00000  Uiso   1.00
C102   C     0.21262   0.01057   0.54095   0.00000  Uiso   1.00
C103   C     0.48932   0.28732   0.45904   0.00000  Uiso   1.00
C104   C     0.25000   0.00000   0.85582   0.00000  Uiso   1.00
C105   C     0.01064   0.21267   0.54096   0.00000  Uiso   1.00
C106   C     0.21262   0.01043   0.45903   0.00000  Uiso   1.00
C107   C     0.28737   0.48952   0.54096   0.00000  Uiso   1.00
C108   C     0.26025   0.46256   0.95904   0.00000  Uiso   1.00
C109   C     0.23975   0.03745   0.04096   0.00000  Uiso   1.00
C110   C     0.03728   0.23914   0.95904   0.00000  Uiso   1.00
C111   C     0.46273   0.26085   0.04096   0.00000  Uiso   1.00
C112   C     0.23974   0.03745   0.95904   0.00000  Uiso   1.00
C113   C     0.26026   0.46255   0.04096   0.00000  Uiso   1.00
C114   C     0.46273   0.26086   0.95904   0.00000  Uiso   1.00
C115   C     0.25000  -0.00000   0.14418   0.00000  Uiso   1.00
C116   C     0.03728   0.23913   0.04096   0.00000  Uiso   1.00
C117   C     0.00000   0.25000   0.47955   0.00000  Uiso   1.00
C118   C     0.49999   0.25000   0.52044   0.00000  Uiso   1.00
C119   C     0.25000   0.49999   0.47955   0.00000  Uiso   1.00
C120   C     0.24999   0.00002   0.52044   0.00000  Uiso   1.00
C121   C     0.25000   0.00000   0.97955   0.00000  Uiso   1.00
C122   C     0.25000   0.00000   0.02045   0.00000  Uiso   1.00
C123   C     0.00000   0.25000   0.97955   0.00000  Uiso   1.00
C124   C     0.00000   0.25000   0.02044   0.00000  Uiso   1.00
C125   C     0.01492   0.17411   0.47956   0.00000  Uiso   1.00
C126   C     0.16998   0.08002   0.25000   0.00000  Uiso   1.00
C127   C     0.48514   0.32590   0.52044   0.00000  Uiso   1.00
C128   C     0.32597   0.48552   0.47956   0.00000  Uiso   1.00
C129   C     0.17404   0.01461   0.52042   0.00000  Uiso   1.00
C130   C     0.48513   0.32589   0.47955   0.00000  Uiso   1.00
C131   C     0.01480   0.17410   0.52046   0.00000  Uiso   1.00
C132   C     0.17402   0.01438   0.47952   0.00000  Uiso   1.00
C133   C     0.32596   0.48552   0.52045   0.00000  Uiso   1.00
C134   C     0.26400   0.42394   0.97955   0.00000  Uiso   1.00
C135   C     0.23600   0.07606   0.02045   0.00000  Uiso   1.00
C136   C     0.07582   0.23476   0.97955   0.00000  Uiso   1.00
H137   H     0.48610   0.12853   0.43815   0.00000  Uiso   1.00
H138   H     0.26545   0.12111   0.06197   0.00000  Uiso   1.00
H139   H     0.12139   0.26346   0.93806   0.00000  Uiso   1.00
H140   H     0.37862   0.23652   0.06194   0.00000  Uiso   1.00
H141   H     0.26541   0.12116   0.93805   0.00000  Uiso   1.00
H142   H     0.23457   0.37887   0.06196   0.00000  Uiso   1.00
H143   H     0.37858   0.23654   0.93810   0.00000  Uiso   1.00
H144   H     0.12143   0.26344   0.06190   0.00000  Uiso   1.00
H145   H     0.01409   0.37131   0.56193   0.00000  Uiso   1.00
H146   H     0.37125   0.01468   0.43808   0.00000  Uiso   1.00
H147   H     0.12830   0.48553   0.56151   0.00000  Uiso   1.00
H148   H     0.01405   0.37129   0.43803   0.00000  Uiso   1.00
H149   H     0.48573   0.12887   0.56206   0.00000  Uiso   1.00
H150   H     0.12922   0.48518   0.43760   0.00000  Uiso   1.00
H151   H     0.37118   0.01469   0.56200   0.00000  Uiso   1.00
H152   H     0.23454   0.37888   0.93804   0.00000  Uiso   1.00
N153   N     0.44226   0.34159   0.37946   0.00000  Uiso   1.00
N154   N     0.30663   0.40774   0.12057   0.00000  Uiso   1.00
N155   N     0.40863   0.30809   0.87944   0.00000  Uiso   1.00
N156   N     0.09137   0.19191   0.12056   0.00000  Uiso   1.00
N157   N     0.30663   0.40774   0.87943   0.00000  Uiso   1.00
N158   N     0.19338   0.09227   0.12057   0.00000  Uiso   1.00
N159   N     0.09137   0.19191   0.87944   0.00000  Uiso   1.00
N160   N     0.40864   0.30810   0.12055   0.00000  Uiso   1.00
N161   N     0.05763   0.15834   0.62052   0.00000  Uiso   1.00
N162   N     0.15809   0.05727   0.37952   0.00000  Uiso   1.00
N163   N     0.34186   0.44272   0.62053   0.00000  Uiso   1.00
N164   N     0.05773   0.15841   0.37943   0.00000  Uiso   1.00
N165   N     0.44236   0.34165   0.62055   0.00000  Uiso   1.00
N166   N     0.34193   0.44280   0.37943   0.00000  Uiso   1.00
N167   N     0.15810   0.05718   0.62064   0.00000  Uiso   1.00
N168   N     0.19336   0.09226   0.87942   0.00000  Uiso   1.00
O169   O     0.25000   0.00000   0.25000   0.00000  Uiso   1.00
O170   O     0.25000   0.46539   0.66251   0.00000  Uiso   1.00
O171   O     0.46539   0.25000   0.33749   0.00000  Uiso   1.00
O172   O     0.03462   0.25000   0.66251   0.00000  Uiso   1.00
O173   O     0.00000   0.21538   0.83749   0.00000  Uiso   1.00
O174   O     0.00000   0.28461   0.16251   0.00000  Uiso   1.00
O175   O     0.28462  -0.00000   0.83749   0.00000  Uiso   1.00
O176   O     0.21539  -0.00000   0.16251   0.00000  Uiso   1.00
O177   O     0.00000   0.28461   0.83749   0.00000  Uiso   1.00
O178   O     0.00000   0.21538   0.16251   0.00000  Uiso   1.00
O179   O     0.21539   0.00000   0.83749   0.00000  Uiso   1.00
O180   O     0.25000   0.00000   0.75000   0.00000  Uiso   1.00
O181   O     0.28462  -0.00000   0.16251   0.00000  Uiso   1.00
O182   O     0.20127   0.08332   0.27298   0.00000  Uiso   1.00
O183   O     0.29874   0.41668   0.72702   0.00000  Uiso   1.00
O184   O     0.41668   0.20126   0.27298   0.00000  Uiso   1.00
O185   O     0.08332   0.29874   0.72702   0.00000  Uiso   1.00
O186   O     0.29874   0.41668   0.27298   0.00000  Uiso   1.00
O187   O     0.20127   0.08332   0.72702   0.00000  Uiso   1.00
O188   O     0.08332   0.29874   0.27298   0.00000  Uiso   1.00
O189   O     0.41668   0.20126   0.72702   0.00000  Uiso   1.00
O190   O     0.20127   0.41668   0.72702   0.00000  Uiso   1.00
O191   O     0.00000   0.25000   0.25000   0.00000  Uiso   1.00
O192   O     0.29874   0.08332   0.27298   0.00000  Uiso   1.00
O193   O     0.41668   0.29873   0.72702   0.00000  Uiso   1.00
O194   O     0.08332   0.20127   0.27298   0.00000  Uiso   1.00
O195   O     0.29874   0.08332   0.72702   0.00000  Uiso   1.00
O196   O     0.20127   0.41668   0.27298   0.00000  Uiso   1.00
O197   O     0.08332   0.20127   0.72702   0.00000  Uiso   1.00
O198   O     0.41668   0.29873   0.27298   0.00000  Uiso   1.00
O199   O     0.45127   0.33332   0.77298   0.00000  Uiso   1.00
O200   O     0.04874   0.16668   0.22702   0.00000  Uiso   1.00
O201   O     0.16668   0.45127   0.77298   0.00000  Uiso   1.00
O202   O     0.00000   0.25000   0.75000   0.00000  Uiso   1.00
O203   O     0.33332   0.04873   0.22702   0.00000  Uiso   1.00
O204   O     0.04874   0.16668   0.77298   0.00000  Uiso   1.00
O205   O     0.45127   0.33332   0.22702   0.00000  Uiso   1.00
O206   O     0.33332   0.04873   0.77298   0.00000  Uiso   1.00
O207   O     0.16668   0.45127   0.22702   0.00000  Uiso   1.00
O208   O     0.45127   0.16668   0.22702   0.00000  Uiso   1.00
O209   O     0.04874   0.33332   0.77298   0.00000  Uiso   1.00
O210   O     0.16668   0.04873   0.22702   0.00000  Uiso   1.00
O211   O     0.33332   0.45126   0.77298   0.00000  Uiso   1.00
O212   O     0.04874   0.33332   0.22702   0.00000  Uiso   1.00
O213   O     0.25000   0.46539   0.33749   0.00000  Uiso   1.00
O214   O     0.45127   0.16668   0.77298   0.00000  Uiso   1.00
O215   O     0.33332   0.45126   0.22702   0.00000  Uiso   1.00
O216   O     0.16668   0.04873   0.77298   0.00000  Uiso   1.00
O217   O     0.03870   0.10637   0.46180   0.00000  Uiso   1.00
O218   O     0.46175   0.39381   0.53810   0.00000  Uiso   1.00
O219   O     0.39398   0.46242   0.46188   0.00000  Uiso   1.00
O220   O     0.10653   0.03864   0.53851   0.00000  Uiso   1.00
O221   O     0.46172   0.39380   0.46188   0.00000  Uiso   1.00
O222   O     0.03779   0.10600   0.53802   0.00000  Uiso   1.00
O223   O     0.10547   0.03645   0.46231   0.00000  Uiso   1.00
O224   O     0.25000   0.03461   0.66251   0.00000  Uiso   1.00
O225   O     0.39402   0.46253   0.53810   0.00000  Uiso   1.00
O226   O     0.28660   0.35575   0.96189   0.00000  Uiso   1.00
O227   O     0.21342   0.14426   0.03810   0.00000  Uiso   1.00
O228   O     0.14362   0.21100   0.96190   0.00000  Uiso   1.00
O229   O     0.35638   0.28898   0.03811   0.00000  Uiso   1.00
O230   O     0.21331   0.14422   0.96188   0.00000  Uiso   1.00
O231   O     0.28663   0.35576   0.03810   0.00000  Uiso   1.00
O232   O     0.35643   0.28906   0.96187   0.00000  Uiso   1.00
O233   O     0.14357   0.21090   0.03814   0.00000  Uiso   1.00
O234   O     0.03462   0.25000   0.33749   0.00000  Uiso   1.00
O235   O     0.46539   0.25000   0.66251   0.00000  Uiso   1.00
O236   O     0.25000   0.03461   0.33749   0.00000  Uiso   1.00
Zn237  Zn    0.20053   0.00000   0.21730   0.00000  Uiso   1.00
Zn238  Zn    0.04948   0.25000   0.28270   0.00000  Uiso   1.00
Zn239  Zn    0.25000   0.45053   0.71730   0.00000  Uiso   1.00
Zn240  Zn    0.25000   0.04947   0.28270   0.00000  Uiso   1.00
Zn241  Zn    0.04948   0.25000   0.71730   0.00000  Uiso   1.00
Zn242  Zn    0.45053   0.25000   0.28270   0.00000  Uiso   1.00
Zn243  Zn    0.25000   0.04947   0.71730   0.00000  Uiso   1.00
Zn244  Zn    0.25000   0.45053   0.28270   0.00000  Uiso   1.00
Zn245  Zn    0.29948  -0.00000   0.78270   0.00000  Uiso   1.00
Zn246  Zn    0.00000   0.20052   0.21730   0.00000  Uiso   1.00
Zn247  Zn    0.00000   0.29947   0.78270   0.00000  Uiso   1.00
Zn248  Zn    0.29948  -0.00000   0.21730   0.00000  Uiso   1.00
Zn249  Zn    0.20053   0.00000   0.78270   0.00000  Uiso   1.00
Zn250  Zn    0.00000   0.29948   0.21730   0.00000  Uiso   1.00
Zn251  Zn    0.00000   0.20053   0.78270   0.00000  Uiso   1.00
Zn252  Zn    0.45053   0.25000   0.71730   0.00000  Uiso   1.00
C253   C     0.75000  -0.00000   0.35582   0.00000  Uiso   1.00
C254   C     0.83002   0.41998   0.75000   0.00000  Uiso   1.00
C255   C     0.92418   0.26523   0.02045   0.00000  Uiso   1.00
C256   C     0.73598   0.07606   0.97955   0.00000  Uiso   1.00
C257   C     0.76401   0.42394   0.02045   0.00000  Uiso   1.00
C258   C     0.92418   0.26524   0.97956   0.00000  Uiso   1.00
C259   C     0.57582   0.23475   0.02044   0.00000  Uiso   1.00
C260   C     0.96079   0.31651   0.39678   0.00000  Uiso   1.00
C261   C     0.53913   0.18344   0.60321   0.00000  Uiso   1.00
C262   C     0.68327   0.03885   0.39681   0.00000  Uiso   1.00
C263   C     0.81670   0.46113   0.60321   0.00000  Uiso   1.00
C264   C     0.53921   0.18348   0.39677   0.00000  Uiso   1.00
C265   C     0.91999   0.16999   0.25000   0.00000  Uiso   1.00
C266   C     0.96086   0.31656   0.60322   0.00000  Uiso   1.00
C267   C     0.81675   0.46118   0.39677   0.00000  Uiso   1.00
C268   C     0.68327   0.03883   0.60327   0.00000  Uiso   1.00
C269   C     0.71159   0.06697   0.89676   0.00000  Uiso   1.00
C270   C     0.78841   0.43303   0.10324   0.00000  Uiso   1.00
C271   C     0.93364   0.28947   0.89677   0.00000  Uiso   1.00
C272   C     0.56636   0.21053   0.10323   0.00000  Uiso   1.00
C273   C     0.78840   0.43303   0.89676   0.00000  Uiso   1.00
C274   C     0.71160   0.06698   0.10324   0.00000  Uiso   1.00
C275   C     0.56636   0.21052   0.89677   0.00000  Uiso   1.00
C276   C     0.58001   0.33001   0.75000   0.00000  Uiso   1.00
C277   C     0.93364   0.28948   0.10322   0.00000  Uiso   1.00
C278   C     0.51172   0.13343   0.45844   0.00000  Uiso   1.00
C279   C     0.98852   0.36657   0.54156   0.00000  Uiso   1.00
C280   C     0.86662   0.48908   0.45843   0.00000  Uiso   1.00
C281   C     0.63337   0.01139   0.54153   0.00000  Uiso   1.00
C282   C     0.98849   0.36655   0.45841   0.00000  Uiso   1.00
C283   C     0.51124   0.13344   0.54159   0.00000  Uiso   1.00
C284   C     0.63339   0.01046   0.45838   0.00000  Uiso   1.00
C285   C     0.86660   0.48912   0.54159   0.00000  Uiso   1.00
C286   C     0.76016   0.38332   0.95842   0.00000  Uiso   1.00
C287   C     0.83002   0.41998   0.25000   0.00000  Uiso   1.00
C288   C     0.73985   0.11669   0.04158   0.00000  Uiso   1.00
C289   C     0.61651   0.23792   0.95843   0.00000  Uiso   1.00
C290   C     0.88349   0.26207   0.04157   0.00000  Uiso   1.00
C291   C     0.73979   0.11669   0.95842   0.00000  Uiso   1.00
C292   C     0.76018   0.38332   0.04158   0.00000  Uiso   1.00
C293   C     0.88349   0.26210   0.95843   0.00000  Uiso   1.00
C294   C     0.61651   0.23787   0.04156   0.00000  Uiso   1.00
C295   C     0.66998   0.08002   0.75000   0.00000  Uiso   1.00
C296   C     0.58001   0.33001   0.25000   0.00000  Uiso   1.00
C297   C     0.91999   0.16999   0.75000   0.00000  Uiso   1.00
C298   C     0.66999   0.41999   0.75000   0.00000  Uiso   1.00
C299   C     0.83001   0.08001   0.25000   0.00000  Uiso   1.00
C300   C     0.91998   0.33002   0.75000   0.00000  Uiso   1.00
C301   C     0.75000   0.00000   0.64418   0.00000  Uiso   1.00
C302   C     0.58002   0.16998   0.25000   0.00000  Uiso   1.00
C303   C     0.83001   0.08001   0.75000   0.00000  Uiso   1.00
C304   C     0.66999   0.41999   0.25000   0.00000  Uiso   1.00
C305   C     0.58002   0.16998   0.75000   0.00000  Uiso   1.00
C306   C     0.91998   0.33002   0.25000   0.00000  Uiso   1.00
C307   C     0.63833   0.38833   0.25000   0.00000  Uiso   1.00
C308   C     0.86167   0.11167   0.75000   0.00000  Uiso   1.00
C309   C     0.61167   0.13833   0.25000   0.00000  Uiso   1.00
C310   C     0.88833   0.36167   0.75000   0.00000  Uiso   1.00
C311   C     0.86167   0.11167   0.25000   0.00000  Uiso   1.00
C312   C     0.50000   0.25000   0.35582   0.00000  Uiso   1.00
C313   C     0.63833   0.38833   0.75000   0.00000  Uiso   1.00
C314   C     0.88833   0.36167   0.25000   0.00000  Uiso   1.00
C315   C     0.61167   0.13833   0.75000   0.00000  Uiso   1.00
C316   C     0.63833   0.11167   0.75000   0.00000  Uiso   1.00
C317   C     0.86167   0.38833   0.25000   0.00000  Uiso   1.00
C318   C     0.61167   0.36167   0.75000   0.00000  Uiso   1.00
C319   C     0.88833   0.13833   0.25000   0.00000  Uiso   1.00
C320   C     0.86167   0.38833   0.75000   0.00000  Uiso   1.00
C321   C     0.63833   0.11167   0.25000   0.00000  Uiso   1.00
C322   C     0.88833   0.13833   0.75000   0.00000  Uiso   1.00
C323   C     0.50000   0.25000   0.64418   0.00000  Uiso   1.00
C324   C     0.61167   0.36167   0.25000   0.00000  Uiso   1.00
C325   C     0.98397   0.28478   0.41834   0.00000  Uiso   1.00
C326   C     0.51598   0.21520   0.58166   0.00000  Uiso   1.00
C327   C     0.71513   0.01581   0.41834   0.00000  Uiso   1.00
C328   C     0.78485   0.48416   0.58166   0.00000  Uiso   1.00
C329   C     0.51605   0.21521   0.41834   0.00000  Uiso   1.00
C330   C     0.98399   0.28480   0.58166   0.00000  Uiso   1.00
C331   C     0.78488   0.48416   0.41834   0.00000  Uiso   1.00
C332   C     0.71513   0.01588   0.58167   0.00000  Uiso   1.00
C333   C     0.73438   0.03497   0.91833   0.00000  Uiso   1.00
C334   C     0.50000   0.25000   0.85582   0.00000  Uiso   1.00
C335   C     0.76561   0.46503   0.08166   0.00000  Uiso   1.00
C336   C     0.96528   0.26618   0.91834   0.00000  Uiso   1.00
C337   C     0.53472   0.23382   0.08166   0.00000  Uiso   1.00
C338   C     0.76561   0.46503   0.91834   0.00000  Uiso   1.00
C339   C     0.73439   0.03497   0.08166   0.00000  Uiso   1.00
C340   C     0.53472   0.23382   0.91834   0.00000  Uiso   1.00
C341   C     0.96529   0.26618   0.08166   0.00000  Uiso   1.00
C342   C     0.50000   0.24999   0.39823   0.00000  Uiso   1.00
C343   C     0.50000   0.25000   0.60177   0.00000  Uiso   1.00
C344   C     0.75001  -0.00000   0.39823   0.00000  Uiso   1.00
C345   C     0.50000   0.25000   0.14418   0.00000  Uiso   1.00
C346   C     0.74999   0.00001   0.60177   0.00000  Uiso   1.00
C347   C     0.75000   0.00000   0.89823   0.00000  Uiso   1.00
C348   C     0.75000   0.00000   0.10177   0.00000  Uiso   1.00
C349   C     0.50000   0.25000   0.89823   0.00000  Uiso   1.00
C350   C     0.50000   0.25000   0.10177   0.00000  Uiso   1.00
C351   C     0.51071   0.21267   0.45904   0.00000  Uiso   1.00
C352   C     0.98932   0.28733   0.54096   0.00000  Uiso   1.00
C353   C     0.78738   0.48950   0.45904   0.00000  Uiso   1.00
C354   C     0.71262   0.01057   0.54095   0.00000  Uiso   1.00
C355   C     0.98932   0.28732   0.45904   0.00000  Uiso   1.00
C356   C     0.75000   0.00000   0.85582   0.00000  Uiso   1.00
C357   C     0.51064   0.21267   0.54096   0.00000  Uiso   1.00
C358   C     0.71262   0.01043   0.45903   0.00000  Uiso   1.00
C359   C     0.78737   0.48952   0.54096   0.00000  Uiso   1.00
C360   C     0.76025   0.46256   0.95904   0.00000  Uiso   1.00
C361   C     0.73975   0.03745   0.04096   0.00000  Uiso   1.00
C362   C     0.53728   0.23914   0.95904   0.00000  Uiso   1.00
C363   C     0.96273   0.26085   0.04096   0.00000  Uiso   1.00
C364   C     0.73974   0.03745   0.95904   0.00000  Uiso   1.00
C365   C     0.76026   0.46255   0.04096   0.00000  Uiso   1.00
C366   C     0.96273   0.26086   0.95904   0.00000  Uiso   1.00
C367   C     0.75000  -0.00000   0.14418   0.00000  Uiso   1.00
C368   C     0.53728   0.23913   0.04096   0.00000  Uiso   1.00
C369   C     0.50000   0.25000   0.47955   0.00000  Uiso   1.00
C370   C     0.99999   0.25000   0.52044   0.00000  Uiso   1.00
C371   C     0.75000   0.49999   0.47955   0.00000  Uiso   1.00
C372   C     0.74999   0.00002   0.52044   0.00000  Uiso   1.00
C373   C     0.75000   0.00000   0.97955   0.00000  Uiso   1.00
C374   C     0.75000   0.00000   0.02045   0.00000  Uiso   1.00
C375   C     0.50000   0.25000   0.97955   0.00000  Uiso   1.00
C376   C     0.50000   0.25000   0.02044   0.00000  Uiso   1.00
C377   C     0.51492   0.17411   0.47956   0.00000  Uiso   1.00
C378   C     0.66998   0.08002   0.25000   0.00000  Uiso   1.00
C379   C     0.98514   0.32590   0.52044   0.00000  Uiso   1.00
C380   C     0.82597   0.48552   0.47956   0.00000  Uiso   1.00
C381   C     0.67404   0.01461   0.52042   0.00000  Uiso   1.00
C382   C     0.98513   0.32589   0.47955   0.00000  Uiso   1.00
C383   C     0.51480   0.17410   0.52046   0.00000  Uiso   1.00
C384   C     0.67402   0.01438   0.47952   0.00000  Uiso   1.00
C385   C     0.82596   0.48552   0.52045   0.00000  Uiso   1.00
C386   C     0.76400   0.42394   0.97955   0.00000  Uiso   1.00
C387   C     0.73600   0.07606   0.02045   0.00000  Uiso   1.00
C388   C     0.57582   0.23476   0.97955   0.00000  Uiso   1.00
H389   H     0.98610   0.12853   0.43815   0.00000  Uiso   1.00
H390   H     0.76545   0.12111   0.06197   0.00000  Uiso   1.00
H391   H     0.62139   0.26346   0.93806   0.00000  Uiso   1.00
H392   H     0.87862   0.23652   0.06194   0.00000  Uiso   1.00
H393   H     0.76541   0.12116   0.93805   0.00000  Uiso   1.00
H394   H     0.73457   0.37887   0.06196   0.00000  Uiso   1.00
H395   H     0.87858   0.23654   0.93810   0.00000  Uiso   1.00
H396   H     0.62143   0.26344   0.06190   0.00000  Uiso   1.00
H397   H     0.51409   0.37131   0.56193   0.00000  Uiso   1.00
H398   H     0.87125   0.01468   0.43808   0.00000  Uiso   1.00
H399   H     0.62830   0.48553   0.56151   0.00000  Uiso   1.00
H400   H     0.51405   0.37129   0.43803   0.00000  Uiso   1.00
H401   H     0.98573   0.12887   0.56206   0.00000  Uiso   1.00
H402   H     0.62922   0.48518   0.43760   0.00000  Uiso   1.00
H403   H     0.87118   0.01469   0.56200   0.00000  Uiso   1.00
H404   H     0.73454   0.37888   0.93804   0.00000  Uiso   1.00
N405   N     0.94226   0.34159   0.37946   0.00000  Uiso   1.00
N406   N     0.80663   0.40774   0.12057   0.00000  Uiso   1.00
N407   N     0.90863   0.30809   0.87944   0.00000  Uiso   1.00
N408   N     0.59137   0.19191   0.12056   0.00000  Uiso   1.00
N409   N     0.80663   0.40774   0.87943   0.00000  Uiso   1.00
N410   N     0.69338   0.09227   0.12057   0.00000  Uiso   1.00
N411   N     0.59137   0.19191   0.87944   0.00000  Uiso   1.00
N412   N     0.90864   0.30810   0.12055   0.00000  Uiso   1.00
N413   N     0.55763   0.15834   0.62052   0.00000  Uiso   1.00
N414   N     0.65809   0.05727   0.37952   0.00000  Uiso   1.00
N415   N     0.84186   0.44272   0.62053   0.00000  Uiso   1.00
N416   N     0.55773   0.15841   0.37943   0.00000  Uiso   1.00
N417   N     0.94236   0.34165   0.62055   0.00000  Uiso   1.00
N418   N     0.84193   0.44280   0.37943   0.00000  Uiso   1.00
N419   N     0.65810   0.05718   0.62064   0.00000  Uiso   1.00
N420   N     0.69336   0.09226   0.87942   0.00000  Uiso   1.00
O421   O     0.75000   0.00000   0.25000   0.00000  Uiso   1.00
O422   O     0.75000   0.46539   0.66251   0.00000  Uiso   1.00
O423   O     0.96539   0.25000   0.33749   0.00000  Uiso   1.00
O424   O     0.53462   0.25000   0.66251   0.00000  Uiso   1.00
O425   O     0.50000   0.21538   0.83749   0.00000  Uiso   1.00
O426   O     0.50000   0.28461   0.16251   0.00000  Uiso   1.00
O427   O     0.78462  -0.00000   0.83749   0.00000  Uiso   1.00
O428   O     0.71539  -0.00000   0.16251   0.00000  Uiso   1.00
O429   O     0.50000   0.28461   0.83749   0.00000  Uiso   1.00
O430   O     0.50000   0.21538   0.16251   0.00000  Uiso   1.00
O431   O     0.71539   0.00000   0.83749   0.00000  Uiso   1.00
O432   O     0.75000   0.00000   0.75000   0.00000  Uiso   1.00
O433   O     0.78462  -0.00000   0.16251   0.00000  Uiso   1.00
O434   O     0.70127   0.08332   0.27298   0.00000  Uiso   1.00
O435   O     0.79874   0.41668   0.72702   0.00000  Uiso   1.00
O436   O     0.91668   0.20126   0.27298   0.00000  Uiso   1.00
O437   O     0.58332   0.29874   0.72702   0.00000  Uiso   1.00
O438   O     0.79874   0.41668   0.27298   0.00000  Uiso   1.00
O439   O     0.70127   0.08332   0.72702   0.00000  Uiso   1.00
O440   O     0.58332   0.29874   0.27298   0.00000  Uiso   1.00
O441   O     0.91668   0.20126   0.72702   0.00000  Uiso   1.00
O442   O     0.70127   0.41668   0.72702   0.00000  Uiso   1.00
O443   O     0.50000   0.25000   0.25000   0.00000  Uiso   1.00
O444   O     0.79874   0.08332   0.27298   0.00000  Uiso   1.00
O445   O     0.91668   0.29873   0.72702   0.00000  Uiso   1.00
O446   O     0.58332   0.20127   0.27298   0.00000  Uiso   1.00
O447   O     0.79874   0.08332   0.72702   0.00000  Uiso   1.00
O448   O     0.70127   0.41668   0.27298   0.00000  Uiso   1.00
O449   O     0.58332   0.20127   0.72702   0.00000  Uiso   1.00
O450   O     0.91668   0.29873   0.27298   0.00000  Uiso   1.00
O451   O     0.95127   0.33332   0.77298   0.00000  Uiso   1.00
O452   O     0.54874   0.16668   0.22702   0.00000  Uiso   1.00
O453   O     0.66668   0.45127   0.77298   0.00000  Uiso   1.00
O454   O     0.50000   0.25000   0.75000   0.00000  Uiso   1.00
O455   O     0.83332   0.04873   0.22702   0.00000  Uiso   1.00
O456   O     0.54874   0.16668   0.77298   0.00000  Uiso   1.00
O457   O     0.95127   0.33332   0.22702   0.00000  Uiso   1.00
O458   O     0.83332   0.04873   0.77298   0.00000  Uiso   1.00
O459   O     0.66668   0.45127   0.22702   0.00000  Uiso   1.00
O460   O     0.95127   0.16668   0.22702   0.00000  Uiso   1.00
O461   O     0.54874   0.33332   0.77298   0.00000  Uiso   1.00
O462   O     0.66668   0.04873   0.22702   0.00000  Uiso   1.00
O463   O     0.83332   0.45126   0.77298   0.00000  Uiso   1.00
O464   O     0.54874   0.33332   0.22702   0.00000  Uiso   1.00
O465   O     0.75000   0.46539   0.33749   0.00000  Uiso   1.00
O466   O     0.95127   0.16668   0.77298   0.00000  Uiso   1.00
O467   O     0.83332   0.45126   0.22702   0.00000  Uiso   1.00
O468   O     0.66668   0.04873   0.77298   0.00000  Uiso   1.00
O469   O     0.53870   0.10637   0.46180   0.00000  Uiso   1.00
O470   O     0.96175   0.39381   0.53810   0.00000  Uiso   1.00
O471   O     0.89398   0.46242   0.46188   0.00000  Uiso   1.00
O472   O     0.60653   0.03864   0.53851   0.00000  Uiso   1.00
O473   O     0.96172   0.39380   0.46188   0.00000  Uiso   1.00
O474   O     0.53779   0.10600   0.53802   0.00000  Uiso   1.00
O475   O     0.60547   0.03645   0.46231   0.00000  Uiso   1.00
O476   O     0.75000   0.03461   0.66251   0.00000  Uiso   1.00
O477   O     0.89402   0.46253   0.53810   0.00000  Uiso   1.00
O478   O     0.78660   0.35575   0.96189   0.00000  Uiso   1.00
O479   O     0.71342   0.14426   0.03810   0.00000  Uiso   1.00
O480   O     0.64362   0.21100   0.96190   0.00000  Uiso   1.00
O481   O     0.85638   0.28898   0.03811   0.00000  Uiso   1.00
O482   O     0.71331   0.14422   0.96188   0.00000  Uiso   1.00
O483   O     0.78663   0.35576   0.03810   0.00000  Uiso   1.00
O484   O     0.85643   0.28906   0.96187   0.00000  Uiso   1.00
O485   O     0.64357   0.21090   0.03814   0.00000  Uiso   1.00
O486   O     0.53462   0.25000   0.33749   0.00000  Uiso   1.00
O487   O     0.96539   0.25000   0.66251   0.00000  Uiso   1.00
O488   O     0.75000   0.03461   0.33749   0.00000  Uiso   1.00
Zn489  Zn    0.70053   0.00000   0.21730   0.00000  Uiso   1.00
Zn490  Zn    0.54948   0.25000   0.28270   0.00000  Uiso   1.00
Zn491  Zn    0.75000   0.45053   0.71730   0.00000  Uiso   1.00
Zn492  Zn    0.75000   0.04947   0.28270   0.00000  Uiso   1.00
Zn493  Zn    0.54948   0.25000   0.71730   0.00000  Uiso   1.00
Zn494  Zn    0.95053   0.25000   0.28270   0.00000  Uiso   1.00
Zn495  Zn    0.75000   0.04947   0.71730   0.00000  Uiso   1.00
Zn496  Zn    0.75000   0.45053   0.28270   0.00000  Uiso   1.00
Zn497  Zn    0.79948  -0.00000   0.78270   0.00000  Uiso   1.00
Zn498  Zn    0.50000   0.20052   0.21730   0.00000  Uiso   1.00
Zn499  Zn    0.50000   0.29947   0.78270   0.00000  Uiso   1.00
Zn500  Zn    0.79948  -0.00000   0.21730   0.00000  Uiso   1.00
Zn501  Zn    0.70053   0.00000   0.78270   0.00000  Uiso   1.00
Zn502  Zn    0.50000   0.29948   0.21730   0.00000  Uiso   1.00
Zn503  Zn    0.50000   0.20053   0.78270   0.00000  Uiso   1.00
Zn504  Zn    0.95053   0.25000   0.71730   0.00000  Uiso   1.00
C505   C     0.25000   0.50000   0.35582   0.00000  Uiso   1.00
C506   C     0.33002   0.91998   0.75000   0.00000  Uiso   1.00
C507   C     0.42418   0.76523   0.02045   0.00000  Uiso   1.00
C508   C     0.23598   0.57606   0.97955   0.00000  Uiso   1.00
C509   C     0.26401   0.92394   0.02045   0.00000  Uiso   1.00
C510   C     0.42418   0.76524   0.97956   0.00000  Uiso   1.00
C511   C     0.07582   0.73475   0.02044   0.00000  Uiso   1.00
C512   C     0.46079   0.81651   0.39678   0.00000  Uiso   1.00
C513   C     0.03913   0.68344   0.60321   0.00000  Uiso   1.00
C514   C     0.18327   0.53885   0.39681   0.00000  Uiso   1.00
C515   C     0.31670   0.96113   0.60321   0.00000  Uiso   1.00
C516   C     0.03921   0.68348   0.39677   0.00000  Uiso   1.00
C517   C     0.41999   0.66999   0.25000   0.00000  Uiso   1.00
C518   C     0.46086   0.81656   0.60322   0.00000  Uiso   1.00
C519   C     0.31675   0.96118   0.39677   0.00000  Uiso   1.00
C520   C     0.18327   0.53883   0.60327   0.00000  Uiso   1.00
C521   C     0.21159   0.56697   0.89676   0.00000  Uiso   1.00
C522   C     0.28841   0.93303   0.10324   0.00000  Uiso   1.00
C523   C     0.43364   0.78947   0.89677   0.00000  Uiso   1.00
C524   C     0.06636   0.71053   0.10323   0.00000  Uiso   1.00
C525   C     0.28840   0.93303   0.89676   0.00000  Uiso   1.00
C526   C     0.21160   0.56698   0.10324   0.00000  Uiso   1.00
C527   C     0.06636   0.71052   0.89677   0.00000  Uiso   1.00
C528   C     0.08001   0.83001   0.75000   0.00000  Uiso   1.00
C529   C     0.43364   0.78948   0.10322   0.00000  Uiso   1.00
C530   C     0.01172   0.63343   0.45844   0.00000  Uiso   1.00
C531   C     0.48852   0.86657   0.54156   0.00000  Uiso   1.00
C532   C     0.36662   0.98908   0.45843   0.00000  Uiso   1.00
C533   C     0.13337   0.51139   0.54153   0.00000  Uiso   1.00
C534   C     0.48849   0.86655   0.45841   0.00000  Uiso   1.00
C535   C     0.01124   0.63344   0.54159   0.00000  Uiso   1.00
C536   C     0.13339   0.51046   0.45838   0.00000  Uiso   1.00
C537   C     0.36660   0.98912   0.54159   0.00000  Uiso   1.00
C538   C     0.26016   0.88332   0.95842   0.00000  Uiso   1.00
C539   C     0.33002   0.91998   0.25000   0.00000  Uiso   1.00
C540   C     0.23985   0.61669   0.04158   0.00000  Uiso   1.00
C541   C     0.11651   0.73792   0.95843   0.00000  Uiso   1.00
C542   C     0.38349   0.76207   0.04157   0.00000  Uiso   1.00
C543   C     0.23979   0.61669   0.95842   0.00000  Uiso   1.00
C544   C     0.26018   0.88332   0.04158   0.00000  Uiso   1.00
C545   C     0.38349   0.76210   0.95843   0.00000  Uiso   1.00
C546   C     0.11651   0.73787   0.04156   0.00000  Uiso   1.00
C547   C     0.16998   0.58002   0.75000   0.00000  Uiso   1.00
C548   C     0.08001   0.83001   0.25000   0.00000  Uiso   1.00
C549   C     0.41999   0.66999   0.75000   0.00000  Uiso   1.00
C550   C     0.16999   0.91999   0.75000   0.00000  Uiso   1.00
C551   C     0.33001   0.58001   0.25000   0.00000  Uiso   1.00
C552   C     0.41998   0.83002   0.75000   0.00000  Uiso   1.00
C553   C     0.25000   0.50000   0.64418   0.00000  Uiso   1.00
C554   C     0.08002   0.66998   0.25000   0.00000  Uiso   1.00
C555   C     0.33001   0.58001   0.75000   0.00000  Uiso   1.00
C556   C     0.16999   0.91999   0.25000   0.00000  Uiso   1.00
C557   C     0.08002   0.66998   0.75000   0.00000  Uiso   1.00
C558   C     0.41998   0.83002   0.25000   0.00000  Uiso   1.00
C559   C     0.13833   0.88833   0.25000   0.00000  Uiso   1.00
C560   C     0.36167   0.61167   0.75000   0.00000  Uiso   1.00
C561   C     0.11167   0.63833   0.25000   0.00000  Uiso   1.00
C562   C     0.38833   0.86167   0.75000   0.00000  Uiso   1.00
C563   C     0.36167   0.61167   0.25000   0.00000  Uiso   1.00
C564   C     0.00000   0.75000   0.35582   0.00000  Uiso   1.00
C565   C     0.13833   0.88833   0.75000   0.00000  Uiso   1.00
C566   C     0.38833   0.86167   0.25000   0.00000  Uiso   1.00
C567   C     0.11167   0.63833   0.75000   0.00000  Uiso   1.00
C568   C     0.13833   0.61167   0.75000   0.00000  Uiso   1.00
C569   C     0.36167   0.88833   0.25000   0.00000  Uiso   1.00
C570   C     0.11167   0.86167   0.75000   0.00000  Uiso   1.00
C571   C     0.38833   0.63833   0.25000   0.00000  Uiso   1.00
C572   C     0.36167   0.88833   0.75000   0.00000  Uiso   1.00
C573   C     0.13833   0.61167   0.25000   0.00000  Uiso   1.00
C574   C     0.38833   0.63833   0.75000   0.00000  Uiso   1.00
C575   C    -0.00000   0.75000   0.64418   0.00000  Uiso   1.00
C576   C     0.11167   0.86167   0.25000   0.00000  Uiso   1.00
C577   C     0.48397   0.78478   0.41834   0.00000  Uiso   1.00
C578   C     0.01598   0.71520   0.58166   0.00000  Uiso   1.00
C579   C     0.21513   0.51581   0.41834   0.00000  Uiso   1.00
C580   C     0.28485   0.98416   0.58166   0.00000  Uiso   1.00
C581   C     0.01605   0.71521   0.41834   0.00000  Uiso   1.00
C582   C     0.48399   0.78480   0.58166   0.00000  Uiso   1.00
C583   C     0.28488   0.98416   0.41834   0.00000  Uiso   1.00
C584   C     0.21513   0.51588   0.58167   0.00000  Uiso   1.00
C585   C     0.23438   0.53497   0.91833   0.00000  Uiso   1.00
C586   C     0.00000   0.75000   0.85582   0.00000  Uiso   1.00
C587   C     0.26561   0.96503   0.08166   0.00000  Uiso   1.00
C588   C     0.46528   0.76618   0.91834   0.00000  Uiso   1.00
C589   C     0.03472   0.73382   0.08166   0.00000  Uiso   1.00
C590   C     0.26561   0.96503   0.91834   0.00000  Uiso   1.00
C591   C     0.23439   0.53497   0.08166   0.00000  Uiso   1.00
C592   C     0.03472   0.73382   0.91834   0.00000  Uiso   1.00
C593   C     0.46529   0.76618   0.08166   0.00000  Uiso   1.00
C594   C     0.00000   0.74999   0.39823   0.00000  Uiso   1.00
C595   C    -0.00000   0.75000   0.60177   0.00000  Uiso   1.00
C596   C     0.25001   0.50000   0.39823   0.00000  Uiso   1.00
C597   C     0.00000   0.75000   0.14418   0.00000  Uiso   1.00
C598   C     0.24999   0.50001   0.60177   0.00000  Uiso   1.00
C599   C     0.25000   0.50000   0.89823   0.00000  Uiso   1.00
C600   C     0.25000   0.50000   0.10177   0.00000  Uiso   1.00
C601   C     0.00000   0.75000   0.89823   0.00000  Uiso   1.00
C602   C     0.00000   0.75000   0.10177   0.00000  Uiso   1.00
C603   C     0.01071   0.71267   0.45904   0.00000  Uiso   1.00
C604   C     0.48932   0.78733   0.54096   0.00000  Uiso   1.00
C605   C     0.28738   0.98950   0.45904   0.00000  Uiso   1.00
C606   C     0.21262   0.51057   0.54095   0.00000  Uiso   1.00
C607   C     0.48932   0.78732   0.45904   0.00000  Uiso   1.00
C608   C     0.25000   0.50000   0.85582   0.00000  Uiso   1.00
C609   C     0.01064   0.71267   0.54096   0.00000  Uiso   1.00
C610   C     0.21262   0.51043   0.45903   0.00000  Uiso   1.00
C611   C     0.28737   0.98952   0.54096   0.00000  Uiso   1.00
C612   C     0.26025   0.96256   0.95904   0.00000  Uiso   1.00
C613   C     0.23975   0.53745   0.04096   0.00000  Uiso   1.00
C614   C     0.03728   0.73914   0.95904   0.00000  Uiso   1.00
C615   C     0.46273   0.76085   0.04096   0.00000  Uiso   1.00
C616   C     0.23974   0.53745   0.95904   0.00000  Uiso   1.00
C617   C     0.26026   0.96255   0.04096   0.00000  Uiso   1.00
C618   C     0.46273   0.76086   0.95904   0.00000  Uiso   1.00
C619   C     0.25000   0.50000   0.14418   0.00000  Uiso   1.00
C620   C     0.03728   0.73913   0.04096   0.00000  Uiso   1.00
C621   C     0.00000   0.75000   0.47955   0.00000  Uiso   1.00
C622   C     0.49999   0.75000   0.52044   0.00000  Uiso   1.00
C623   C     0.25000   0.99999   0.47955   0.00000  Uiso   1.00
C624   C     0.24999   0.50002   0.52044   0.00000  Uiso   1.00
C625   C     0.25000   0.50000   0.97955   0.00000  Uiso   1.00
C626   C     0.25000   0.50000   0.02045   0.00000  Uiso   1.00
C627   C     0.00000   0.75000   0.97955   0.00000  Uiso   1.00
C628   C     0.00000   0.75000   0.02044   0.00000  Uiso   1.00
C629   C     0.01492   0.67411   0.47956   0.00000  Uiso   1.00
C630   C     0.16998   0.58002   0.25000   0.00000  Uiso   1.00
C631   C     0.48514   0.82590   0.52044   0.00000  Uiso   1.00
C632   C     0.32597   0.98552   0.47956   0.00000  Uiso   1.00
C633   C     0.17404   0.51461   0.52042   0.00000  Uiso   1.00
C634   C     0.48513   0.82589   0.47955   0.00000  Uiso   1.00
C635   C     0.01480   0.67410   0.52046   0.00000  Uiso   1.00
C636   C     0.17402   0.51438   0.47952   0.00000  Uiso   1.00
C637   C     0.32596   0.98552   0.52045   0.00000  Uiso   1.00
C638   C     0.26400   0.92394   0.97955   0.00000  Uiso   1.00
C639   C     0.23600   0.57606   0.02045   0.00000  Uiso   1.00
C640   C     0.07582   0.73476   0.97955   0.00000  Uiso   1.00
H641   H     0.48610   0.62853   0.43815   0.00000  Uiso   1.00
H642   H     0.26545   0.62111   0.06197   0.00000  Uiso   1.00
H643   H     0.12139   0.76346   0.93806   0.00000  Uiso   1.00
H644   H     0.37862   0.73652   0.06194   0.00000  Uiso   1.00
H645   H     0.26541   0.62116   0.93805   0.00000  Uiso   1.00
H646   H     0.23457   0.87887   0.06196   0.00000  Uiso   1.00
H647   H     0.37858   0.73654   0.93810   0.00000  Uiso   1.00
H648   H     0.12143   0.76344   0.06190   0.00000  Uiso   1.00
H649   H     0.01409   0.87131   0.56193   0.00000  Uiso   1.00
H650   H     0.37125   0.51468   0.43808   0.00000  Uiso   1.00
H651   H     0.12830   0.98553   0.56151   0.00000  Uiso   1.00
H652   H     0.01405   0.87129   0.43803   0.00000  Uiso   1.00
H653   H     0.48573   0.62887   0.56206   0.00000  Uiso   1.00
H654   H     0.12922   0.98518   0.43760   0.00000  Uiso   1.00
H655   H     0.37118   0.51469   0.56200   0.00000  Uiso   1.00
H656   H     0.23454   0.87888   0.93804   0.00000  Uiso   1.00
N657   N     0.44226   0.84159   0.37946   0.00000  Uiso   1.00
N658   N     0.30663   0.90774   0.12057   0.00000  Uiso   1.00
N659   N     0.40863   0.80809   0.87944   0.00000  Uiso   1.00
N660   N     0.09137   0.69191   0.12056   0.00000  Uiso   1.00
N661   N     0.30663   0.90774   0.87943   0.00000  Uiso   1.00
N662   N     0.19338   0.59227   0.12057   0.00000  Uiso   1.00
N663   N     0.09137   0.69191   0.87944   0.00000  Uiso   1.00
N664   N     0.40864   0.80810   0.12055   0.00000  Uiso   1.00
N665   N     0.05763   0.65834   0.62052   0.00000  Uiso   1.00
N666   N     0.15809   0.55727   0.37952   0.00000  Uiso   1.00
N667   N     0.34186   0.94272   0.62053   0.00000  Uiso   1.00
N668   N     0.05773   0.65841   0.37943   0.00000  Uiso   1.00
N669   N     0.44236   0.84165   0.62055   0.00000  Uiso   1.00
N670   N     0.34193   0.94280   0.37943   0.00000  Uiso   1.00
N671   N     0.15810   0.55718   0.62064   0.00000  Uiso   1.00
N672   N     0.19336   0.59226   0.87942   0.00000  Uiso   1.00
O673   O     0.25000   0.50000   0.25000   0.00000  Uiso   1.00
O674   O     0.25000   0.96539   0.66251   0.00000  Uiso   1.00
O675   O     0.46539   0.75000   0.33749   0.00000  Uiso   1.00
O676   O     0.03462   0.75000   0.66251   0.00000  Uiso   1.00
O677   O     0.00000   0.71538   0.83749   0.00000  Uiso   1.00
O678   O     0.00000   0.78461   0.16251   0.00000  Uiso   1.00
O679   O     0.28462   0.50000   0.83749   0.00000  Uiso   1.00
O680   O     0.21539   0.50000   0.16251   0.00000  Uiso   1.00
O681   O     0.00000   0.78461   0.83749   0.00000  Uiso   1.00
O682   O     0.00000   0.71538   0.16251   0.00000  Uiso   1.00
O683   O     0.21539   0.50000   0.83749   0.00000  Uiso   1.00
O684   O     0.25000   0.50000   0.75000   0.00000  Uiso   1.00
O685   O     0.28462   0.50000   0.16251   0.00000  Uiso   1.00
O686   O     0.20127   0.58332   0.27298   0.00000  Uiso   1.00
O687   O     0.29874   0.91668   0.72702   0.00000  Uiso   1.00
O688   O     0.41668   0.70126   0.27298   0.00000  Uiso   1.00
O689   O     0.08332   0.79874   0.72702   0.00000  Uiso   1.00
O690   O     0.29874   0.91668   0.27298   0.00000  Uiso   1.00
O691   O     0.20127   0.58332   0.72702   0.00000  Uiso   1.00
O692   O     0.08332   0.79874   0.27298   0.00000  Uiso   1.00
O693   O     0.41668   0.70126   0.72702   0.00000  Uiso   1.00
O694   O     0.20127   0.91668   0.72702   0.00000  Uiso   1.00
O695   O     0.00000   0.75000   0.25000   0.00000  Uiso   1.00
O696   O     0.29874   0.58332   0.27298   0.00000  Uiso   1.00
O697   O     0.41668   0.79873   0.72702   0.00000  Uiso   1.00
O698   O     0.08332   0.70127   0.27298   0.00000  Uiso   1.00
O699   O     0.29874   0.58332   0.72702   0.00000  Uiso   1.00
O700   O     0.20127   0.91668   0.27298   0.00000  Uiso   1.00
O701   O     0.08332   0.70127   0.72702   0.00000  Uiso   1.00
O702   O     0.41668   0.79873   0.27298   0.00000  Uiso   1.00
O703   O     0.45127   0.83332   0.77298   0.00000  Uiso   1.00
O704   O     0.04874   0.66668   0.22702   0.00000  Uiso   1.00
O705   O     0.16668   0.95127   0.77298   0.00000  Uiso   1.00
O706   O     0.00000   0.75000   0.75000   0.00000  Uiso   1.00
O707   O     0.33332   0.54873   0.22702   0.00000  Uiso   1.00
O708   O     0.04874   0.66668   0.77298   0.00000  Uiso   1.00
O709   O     0.45127   0.83332   0.22702   0.00000  Uiso   1.00
O710   O     0.33332   0.54873   0.77298   0.00000  Uiso   1.00
O711   O     0.16668   0.95127   0.22702   0.00000  Uiso   1.00
O712   O     0.45127   0.66668   0.22702   0.00000  Uiso   1.00
O713   O     0.04874   0.83332   0.77298   0.00000  Uiso   1.00
O714   O     0.16668   0.54873   0.22702   0.00000  Uiso   1.00
O715   O     0.33332   0.95126   0.77298   0.00000  Uiso   1.00
O716   O     0.04874   0.83332   0.22702   0.00000  Uiso   1.00
O717   O     0.25000   0.96539   0.33749   0.00000  Uiso   1.00
O718   O     0.45127   0.66668   0.77298   0.00000  Uiso   1.00
O719   O     0.33332   0.95126   0.22702   0.00000  Uiso   1.00
O720   O     0.16668   0.54873   0.77298   0.00000  Uiso   1.00
O721   O     0.03870   0.60637   0.46180   0.00000  Uiso   1.00
O722   O     0.46175   0.89381   0.53810   0.00000  Uiso   1.00
O723   O     0.39398   0.96242   0.46188   0.00000  Uiso   1.00
O724   O     0.10653   0.53864   0.53851   0.00000  Uiso   1.00
O725   O     0.46172   0.89380   0.46188   0.00000  Uiso   1.00
O726   O     0.03779   0.60600   0.53802   0.00000  Uiso   1.00
O727   O     0.10547   0.53645   0.46231   0.00000  Uiso   1.00
O728   O     0.25000   0.53461   0.66251   0.00000  Uiso   1.00
O729   O     0.39402   0.96253   0.53810   0.00000  Uiso   1.00
O730   O     0.28660   0.85575   0.96189   0.00000  Uiso   1.00
O731   O     0.21342   0.64426   0.03810   0.00000  Uiso   1.00
O732   O     0.14362   0.71100   0.96190   0.00000  Uiso   1.00
O733   O     0.35638   0.78898   0.03811   0.00000  Uiso   1.00
O734   O     0.21331   0.64422   0.96188   0.00000  Uiso   1.00
O735   O     0.28663   0.85576   0.03810   0.00000  Uiso   1.00
O736   O     0.35643   0.78906   0.96187   0.00000  Uiso   1.00
O737   O     0.14357   0.71090   0.03814   0.00000  Uiso   1.00
O738   O     0.03462   0.75000   0.33749   0.00000  Uiso   1.00
O739   O     0.46539   0.75000   0.66251   0.00000  Uiso   1.00
O740   O     0.25000   0.53461   0.33749   0.00000  Uiso   1.00
Zn741  Zn    0.20053   0.50000   0.21730   0.00000  Uiso   1.00
Zn742  Zn    0.04948   0.75000   0.28270   0.00000  Uiso   1.00
Zn743  Zn    0.25000   0.95053   0.71730   0.00000  Uiso   1.00
Zn744  Zn    0.25000   0.54947   0.28270   0.00000  Uiso   1.00
Zn745  Zn    0.04948   0.75000   0.71730   0.00000  Uiso   1.00
Zn746  Zn    0.45053   0.75000   0.28270   0.00000  Uiso   1.00
Zn747  Zn    0.25000   0.54947   0.71730   0.00000  Uiso   1.00
Zn748  Zn    0.25000   0.95053   0.28270   0.00000  Uiso   1.00
Zn749  Zn    0.29948   0.50000   0.78270   0.00000  Uiso   1.00
Zn750  Zn    0.00000   0.70052   0.21730   0.00000  Uiso   1.00
Zn751  Zn    0.00000   0.79947   0.78270   0.00000  Uiso   1.00
Zn752  Zn    0.29948   0.50000   0.21730   0.00000  Uiso   1.00
Zn753  Zn    0.20053   0.50000   0.78270   0.00000  Uiso   1.00
Zn754  Zn    0.00000   0.79948   0.21730   0.00000  Uiso   1.00
Zn755  Zn    0.00000   0.70053   0.78270   0.00000  Uiso   1.00
Zn756  Zn    0.45053   0.75000   0.71730   0.00000  Uiso   1.00
C757   C     0.75000   0.50000   0.35582   0.00000  Uiso   1.00
C758   C     0.83002   0.91998   0.75000   0.00000  Uiso   1.00
C759   C     0.92418   0.76523   0.02045   0.00000  Uiso   1.00
C760   C     0.73598   0.57606   0.97955   0.00000  Uiso   1.00
C761   C     0.76401   0.92394   0.02045   0.00000  Uiso   1.00
C762   C     0.92418   0.76524   0.97956   0.00000  Uiso   1.00
C763   C     0.57582   0.73475   0.02044   0.00000  Uiso   1.00
C764   C     0.96079   0.81651   0.39678   0.00000  Uiso   1.00
C765   C     0.53913   0.68344   0.60321   0.00000  Uiso   1.00
C766   C     0.68327   0.53885   0.39681   0.00000  Uiso   1.00
C767   C     0.81670   0.96113   0.60321   0.00000  Uiso   1.00
C768   C     0.53921   0.68348   0.39677   0.00000  Uiso   1.00
C769   C     0.91999   0.66999   0.25000   0.00000  Uiso   1.00
C770   C     0.96086   0.81656   0.60322   0.00000  Uiso   1.00
C771   C     0.81675   0.96118   0.39677   0.00000  Uiso   1.00
C772   C     0.68327   0.53883   0.60327   0.00000  Uiso   1.00
C773   C     0.71159   0.56697   0.89676   0.00000  Uiso   1.00
C774   C     0.78841   0.93303   0.10324   0.00000  Uiso   1.00
C775   C     0.93364   0.78947   0.89677   0.00000  Uiso   1.00
C776   C     0.56636   0.71053   0.10323   0.00000  Uiso   1.00
C777   C     0.78840   0.93303   0.89676   0.00000  Uiso   1.00
C778   C     0.71160   0.56698   0.10324   0.00000  Uiso   1.00
C779   C     0.56636   0.71052   0.89677   0.00000  Uiso   1.00
C780   C     0.58001   0.83001   0.75000   0.00000  Uiso   1.00
C781   C     0.93364   0.78948   0.10322   0.00000  Uiso   1.00
C782   C     0.51172   0.63343   0.45844   0.00000  Uiso   1.00
C783   C     0.98852   0.86657   0.54156   0.00000  Uiso   1.00
C784   C     0.86662   0.98908   0.45843   0.00000  Uiso   1.00
C785   C     0.63337   0.51139   0.54153   0.00000  Uiso   1.00
C786   C     0.98849   0.86655   0.45841   0.00000  Uiso   1.00
C787   C     0.51124   0.63344   0.54159   0.00000  Uiso   1.00
C788   C     0.63339   0.51046   0.45838   0.00000  Uiso   1.00
C789   C     0.86660   0.98912   0.54159   0.00000  Uiso   1.00
C790   C     0.76016   0.88332   0.95842   0.00000  Uiso   1.00
C791   C     0.83002   0.91998   0.25000   0.00000  Uiso   1.00
C792   C     0.73985   0.61669   0.04158   0.00000  Uiso   1.00
C793   C     0.61651   0.73792   0.95843   0.00000  Uiso   1.00
C794   C     0.88349   0.76207   0.04157   0.00000  Uiso   1.00
C795   C     0.73979   0.61669   0.95842   0.00000  Uiso   1.00
C796   C     0.76018   0.88332   0.04158   0.00000  Uiso   1.00
C797   C     0.88349   0.76210   0.95843   0.00000  Uiso   1.00
C798   C     0.61651   0.73787   0.04156   0.00000  Uiso   1.00
C799   C     0.66998   0.58002   0.75000   0.00000  Uiso   1.00
C800   C     0.58001   0.83001   0.25000   0.00000  Uiso   1.00
C801   C     0.91999   0.66999   0.75000   0.00000  Uiso   1.00
C802   C     0.66999   0.91999   0.75000   0.00000  Uiso   1.00
C803   C     0.83001   0.58001   0.25000   0.00000  Uiso   1.00
C804   C     0.91998   0.83002   0.75000   0.00000  Uiso   1.00
C805   C     0.75000   0.50000   0.64418   0.00000  Uiso   1.00
C806   C     0.58002   0.66998   0.25000   0.00000  Uiso   1.00
C807   C     0.83001   0.58001   0.75000   0.00000  Uiso   1.00
C808   C     0.66999   0.91999   0.25000   0.00000  Uiso   1.00
C809   C     0.58002   0.66998   0.75000   0.00000  Uiso   1.00
C810   C     0.91998   0.83002   0.25000   0.00000  Uiso   1.00
C811   C     0.63833   0.88833   0.25000   0.00000  Uiso   1.00
C812   C     0.86167   0.61167   0.75000   0.00000  Uiso   1.00
C813   C     0.61167   0.63833   0.25000   0.00000  Uiso   1.00
C814   C     0.88833   0.86167   0.75000   0.00000  Uiso   1.00
C815   C     0.86167   0.61167   0.25000   0.00000  Uiso   1.00
C816   C     0.50000   0.75000   0.35582   0.00000  Uiso   1.00
C817   C     0.63833   0.88833   0.75000   0.00000  Uiso   1.00
C818   C     0.88833   0.86167   0.25000   0.00000  Uiso   1.00
C819   C     0.61167   0.63833   0.75000   0.00000  Uiso   1.00
C820   C     0.63833   0.61167   0.75000   0.00000  Uiso   1.00
C821   C     0.86167   0.88833   0.25000   0.00000  Uiso   1.00
C822   C     0.61167   0.86167   0.75000   0.00000  Uiso   1.00
C823   C     0.88833   0.63833   0.25000   0.00000  Uiso   1.00
C824   C     0.86167   0.88833   0.75000   0.00000  Uiso   1.00
C825   C     0.63833   0.61167   0.25000   0.00000  Uiso   1.00
C826   C     0.88833   0.63833   0.75000   0.00000  Uiso   1.00
C827   C     0.50000   0.75000   0.64418   0.00000  Uiso   1.00
C828   C     0.61167   0.86167   0.25000   0.00000  Uiso   1.00
C829   C     0.98397   0.78478   0.41834   0.00000  Uiso   1.00
C830   C     0.51598   0.71520   0.58166   0.00000  Uiso   1.00
C831   C     0.71513   0.51581   0.41834   0.00000  Uiso   1.00
C832   C     0.78485   0.98416   0.58166   0.00000  Uiso   1.00
C833   C     0.51605   0.71521   0.41834   0.00000  Uiso   1.00
C834   C     0.98399   0.78480   0.58166   0.00000  Uiso   1.00
C835   C     0.78488   0.98416   0.41834   0.00000  Uiso   1.00
C836   C     0.71513   0.51588   0.58167   0.00000  Uiso   1.00
C837   C     0.73438   0.53497   0.91833   0.00000  Uiso   1.00
C838   C     0.50000   0.75000   0.85582   0.00000  Uiso   1.00
C839   C     0.76561   0.96503   0.08166   0.00000  Uiso   1.00
C840   C     0.96528   0.76618   0.91834   0.00000  Uiso   1.00
C841   C     0.53472   0.73382   0.08166   0.00000  Uiso   1.00
C842   C     0.76561   0.96503   0.91834   0.00000  Uiso   1.00
C843   C     0.73439   0.53497   0.08166   0.00000  Uiso   1.00
C844   C     0.53472   0.73382   0.91834   0.00000  Uiso   1.00
C845   C     0.96529   0.76618   0.08166   0.00000  Uiso   1.00
C846   C     0.50000   0.74999   0.39823   0.00000  Uiso   1.00
C847   C     0.50000   0.75000   0.60177   0.00000  Uiso   1.00
C848   C     0.75001   0.50000   0.39823   0.00000  Uiso   1.00
C849   C     0.50000   0.75000   0.14418   0.00000  Uiso   1.00
C850   C     0.74999   0.50001   0.60177   0.00000  Uiso   1.00
C851   C     0.75000   0.50000   0.89823   0.00000  Uiso   1.00
C852   C     0.75000   0.50000   0.10177   0.00000  Uiso   1.00
C853   C     0.50000   0.75000   0.89823   0.00000  Uiso   1.00
C854   C     0.50000   0.75000   0.10177   0.00000  Uiso   1.00
C855   C     0.51071   0.71267   0.45904   0.00000  Uiso   1.00
C856   C     0.98932   0.78733   0.54096   0.00000  Uiso   1.00
C857   C     0.78738   0.98950   0.45904   0.00000  Uiso   1.00
C858   C     0.71262   0.51057   0.54095   0.00000  Uiso   1.00
C859   C     0.98932   0.78732   0.45904   0.00000  Uiso   1.00
C860   C     0.75000   0.50000   0.85582   0.00000  Uiso   1.00
C861   C     0.51064   0.71267   0.54096   0.00000  Uiso   1.00
C862   C     0.71262   0.51043   0.45903   0.00000  Uiso   1.00
C863   C     0.78737   0.98952   0.54096   0.00000  Uiso   1.00
C864   C     0.76025   0.96256   0.95904   0.00000  Uiso   1.00
C865   C     0.73975   0.53745   0.04096   0.00000  Uiso   1.00
C866   C     0.53728   0.73914   0.95904   0.00000  Uiso   1.00
C867   C     0.96273   0.76085   0.04096   0.00000  Uiso   1.00
C868   C     0.73974   0.53745   0.95904   0.00000  Uiso   1.00
C869   C     0.76026   0.96255   0.04096   0.00000  Uiso   1.00
C870   C     0.96273   0.76086   0.95904   0.00000  Uiso   1.00
C871   C     0.75000   0.50000   0.14418   0.00000  Uiso   1.00
C872   C     0.53728   0.73913   0.04096   0.00000  Uiso   1.00
C873   C     0.50000   0.75000   0.47955   0.00000  Uiso   1.00
C874   C     0.99999   0.75000   0.52044   0.00000  Uiso   1.00
C875   C     0.75000   0.99999   0.47955   0.00000  Uiso   1.00
C876   C     0.74999   0.50002   0.52044   0.00000  Uiso   1.00
C877   C     0.75000   0.50000   0.97955   0.00000  Uiso   1.00
C878   C     0.75000   0.50000   0.02045   0.00000  Uiso   1.00
C879   C     0.50000   0.75000   0.97955   0.00000  Uiso   1.00
C880   C     0.50000   0.75000   0.02044   0.00000  Uiso   1.00
C881   C     0.51492   0.67411   0.47956   0.00000  Uiso   1.00
C882   C     0.66998   0.58002   0.25000   0.00000  Uiso   1.00
C883   C     0.98514   0.82590   0.52044   0.00000  Uiso   1.00
C884   C     0.82597   0.98552   0.47956   0.00000  Uiso   1.00
C885   C     0.67404   0.51461   0.52042   0.00000  Uiso   1.00
C886   C     0.98513   0.82589   0.47955   0.00000  Uiso   1.00
C887   C     0.51480   0.67410   0.52046   0.00000  Uiso   1.00
C888   C     0.67402   0.51438   0.47952   0.00000  Uiso   1.00
C889   C     0.82596   0.98552   0.52045   0.00000  Uiso   1.00
C890   C     0.76400   0.92394   0.97955   0.00000  Uiso   1.00
C891   C     0.73600   0.57606   0.02045   0.00000  Uiso   1.00
C892   C     0.57582   0.73476   0.97955   0.00000  Uiso   1.00
H893   H     0.98610   0.62853   0.43815   0.00000  Uiso   1.00
H894   H     0.76545   0.62111   0.06197   0.00000  Uiso   1.00
H895   H     0.62139   0.76346   0.93806   0.00000  Uiso   1.00
H896   H     0.87862   0.73652   0.06194   0.00000  Uiso   1.00
H897   H     0.76541   0.62116   0.93805   0.00000  Uiso   1.00
H898   H     0.73457   0.87887   0.06196   0.00000  Uiso   1.00
H899   H     0.87858   0.73654   0.93810   0.00000  Uiso   1.00
H900   H     0.62143   0.76344   0.06190   0.00000  Uiso   1.00
H901   H     0.51409   0.87131   0.56193   0.00000  Uiso   1.00
H902   H     0.87125   0.51468   0.43808   0.00000  Uiso   1.00
H903   H     0.62830   0.98553   0.56151   0.00000  Uiso   1.00
H904   H     0.51405   0.87129   0.43803   0.00000  Uiso   1.00
H905   H     0.98573   0.62887   0.56206   0.00000  Uiso   1.00
H906   H     0.62922   0.98518   0.43760   0.00000  Uiso   1.00
H907   H     0.87118   0.51469   0.56200   0.00000  Uiso   1.00
H908   H     0.73454   0.87888   0.93804   0.00000  Uiso   1.00
N909   N     0.94226   0.84159   0.37946   0.00000  Uiso   1.00
N910   N     0.80663   0.90774   0.12057   0.00000  Uiso   1.00
N911   N     0.90863   0.80809   0.87944   0.00000  Uiso   1.00
N912   N     0.59137   0.69191   0.12056   0.00000  Uiso   1.00
N913   N     0.80663   0.90774   0.87943   0.00000  Uiso   1.00
N914   N     0.69338   0.59227   0.12057   0.00000  Uiso   1.00
N915   N     0.59137   0.69191   0.87944   0.00000  Uiso   1.00
N916   N     0.90864   0.80810   0.12055   0.00000  Uiso   1.00
N917   N     0.55763   0.65834   0.62052   0.00000  Uiso   1.00
N918   N     0.65809   0.55727   0.37952   0.00000  Uiso   1.00
N919   N     0.84186   0.94272   0.62053   0.00000  Uiso   1.00
N920   N     0.55773   0.65841   0.37943   0.00000  Uiso   1.00
N921   N     0.94236   0.84165   0.62055   0.00000  Uiso   1.00
N922   N     0.84193   0.94280   0.37943   0.00000  Uiso   1.00
N923   N     0.65810   0.55718   0.62064   0.00000  Uiso   1.00
N924   N     0.69336   0.59226   0.87942   0.00000  Uiso   1.00
O925   O     0.75000   0.50000   0.25000   0.00000  Uiso   1.00
O926   O     0.75000   0.96539   0.66251   0.00000  Uiso   1.00
O927   O     0.96539   0.75000   0.33749   0.00000  Uiso   1.00
O928   O     0.53462   0.75000   0.66251   0.00000  Uiso   1.00
O929   O     0.50000   0.71538   0.83749   0.00000  Uiso   1.00
O930   O     0.50000   0.78461   0.16251   0.00000  Uiso   1.00
O931   O     0.78462   0.50000   0.83749   0.00000  Uiso   1.00
O932   O     0.71539   0.50000   0.16251   0.00000  Uiso   1.00
O933   O     0.50000   0.78461   0.83749   0.00000  Uiso   1.00
O934   O     0.50000   0.71538   0.16251   0.00000  Uiso   1.00
O935   O     0.71539   0.50000   0.83749   0.00000  Uiso   1.00
O936   O     0.75000   0.50000   0.75000   0.00000  Uiso   1.00
O937   O     0.78462   0.50000   0.16251   0.00000  Uiso   1.00
O938   O     0.70127   0.58332   0.27298   0.00000  Uiso   1.00
O939   O     0.79874   0.91668   0.72702   0.00000  Uiso   1.00
O940   O     0.91668   0.70126   0.27298   0.00000  Uiso   1.00
O941   O     0.58332   0.79874   0.72702   0.00000  Uiso   1.00
O942   O     0.79874   0.91668   0.27298   0.00000  Uiso   1.00
O943   O     0.70127   0.58332   0.72702   0.00000  Uiso   1.00
O944   O     0.58332   0.79874   0.27298   0.00000  Uiso   1.00
O945   O     0.91668   0.70126   0.72702   0.00000  Uiso   1.00
O946   O     0.70127   0.91668   0.72702   0.00000  Uiso   1.00
O947   O     0.50000   0.75000   0.25000   0.00000  Uiso   1.00
O948   O     0.79874   0.58332   0.27298   0.00000  Uiso   1.00
O949   O     0.91668   0.79873   0.72702   0.00000  Uiso   1.00
O950   O     0.58332   0.70127   0.27298   0.00000  Uiso   1.00
O951   O     0.79874   0.58332   0.72702   0.00000  Uiso   1.00
O952   O     0.70127   0.91668   0.27298   0.00000  Uiso   1.00
O953   O     0.58332   0.70127   0.72702   0.00000  Uiso   1.00
O954   O     0.91668   0.79873   0.27298   0.00000  Uiso   1.00
O955   O     0.95127   0.83332   0.77298   0.00000  Uiso   1.00
O956   O     0.54874   0.66668   0.22702   0.00000  Uiso   1.00
O957   O     0.66668   0.95127   0.77298   0.00000  Uiso   1.00
O958   O     0.50000   0.75000   0.75000   0.00000  Uiso   1.00
O959   O     0.83332   0.54873   0.22702   0.00000  Uiso   1.00
O960   O     0.54874   0.66668   0.77298   0.00000  Uiso   1.00
O961   O     0.95127   0.83332   0.22702   0.00000  Uiso   1.00
O962   O     0.83332   0.54873   0.77298   0.00000  Uiso   1.00
O963   O     0.66668   0.95127   0.22702   0.00000  Uiso   1.00
O964   O     0.95127   0.66668   0.22702   0.00000  Uiso   1.00
O965   O     0.54874   0.83332   0.77298   0.00000  Uiso   1.00
O966   O     0.66668   0.54873   0.22702   0.00000  Uiso   1.00
O967   O     0.83332   0.95126   0.77298   0.00000  Uiso   1.00
O968   O     0.54874   0.83332   0.22702   0.00000  Uiso   1.00
O969   O     0.75000   0.96539   0.33749   0.00000  Uiso   1.00
O970   O     0.95127   0.66668   0.77298   0.00000  Uiso   1.00
O971   O     0.83332   0.95126   0.22702   0.00000  Uiso   1.00
O972   O     0.66668   0.54873   0.77298   0.00000  Uiso   1.00
O973   O     0.53870   0.60637   0.46180   0.00000  Uiso   1.00
O974   O     0.96175   0.89381   0.53810   0.00000  Uiso   1.00
O975   O     0.89398   0.96242   0.46188   0.00000  Uiso   1.00
O976   O     0.60653   0.53864   0.53851   0.00000  Uiso   1.00
O977   O     0.96172   0.89380   0.46188   0.00000  Uiso   1.00
O978   O     0.53779   0.60600   0.53802   0.00000  Uiso   1.00
O979   O     0.60547   0.53645   0.46231   0.00000  Uiso   1.00
O980   O     0.75000   0.53461   0.66251   0.00000  Uiso   1.00
O981   O     0.89402   0.96253   0.53810   0.00000  Uiso   1.00
O982   O     0.78660   0.85575   0.96189   0.00000  Uiso   1.00
O983   O     0.71342   0.64426   0.03810   0.00000  Uiso   1.00
O984   O     0.64362   0.71100   0.96190   0.00000  Uiso   1.00
O985   O     0.85638   0.78898   0.03811   0.00000  Uiso   1.00
O986   O     0.71331   0.64422   0.96188   0.00000  Uiso   1.00
O987   O     0.78663   0.85576   0.03810   0.00000  Uiso   1.00
O988   O     0.85643   0.78906   0.96187   0.00000  Uiso   1.00
O989   O     0.64357   0.71090   0.03814   0.00000  Uiso   1.00
O990   O     0.53462   0.75000   0.33749   0.00000  Uiso   1.00
O991   O     0.96539   0.75000   0.66251   0.00000  Uiso   1.00
O992   O     0.75000   0.53461   0.33749   0.00000  Uiso   1.00
Zn993  Zn    0.70053   0.50000   0.21730   0.00000  Uiso   1.00
Zn994  Zn    0.54948   0.75000   0.28270   0.00000  Uiso   1.00
Zn995  Zn    0.75000   0.95053   0.71730   0.00000  Uiso   1.00
Zn996  Zn    0.75000   0.54947   0.28270   0.00000  Uiso   1.00
Zn997  Zn    0.54948   0.75000   0.71730   0.00000  Uiso   1.00
Zn998  Zn    0.95053   0.75000   0.28270   0.00000  Uiso   1.00
Zn999  Zn    0.75000   0.54947   0.71730   0.00000  Uiso   1.00
Zn1000 Zn    0.75000   0.95053   0.28270   0.00000  Uiso   1.00
Zn1001 Zn    0.79948   0.50000   0.78270   0.00000  Uiso   1.00
Zn1002 Zn    0.50000   0.70052   0.21730   0.00000  Uiso   1.00
Zn1003 Zn    0.50000   0.79947   0.78270   0.00000  Uiso   1.00
Zn1004 Zn    0.79948   0.50000   0.21730   0.00000  Uiso   1.00
Zn1005 Zn    0.70053   0.50000   0.78270   0.00000  Uiso   1.00
Zn1006 Zn    0.50000   0.79948   0.21730   0.00000  Uiso   1.00
Zn1007 Zn    0.50000   0.70053   0.78270   0.00000  Uiso   1.00
Zn1008 Zn    0.95053   0.75000   0.71730   0.00000  Uiso   1.00
loop_
_geom_bond_atom_site_label_1
_geom_bond_atom_site_label_2
_geom_bond_distance
_geom_bond_site_symmetry_2
_ccdc_geom_bond_type
C1     C92     1.465   .     S
C1     O717    1.269   1_545 A
C1     O236    1.269   .     S
C2     O211    1.277   .     A
C2     C68     1.423   .     S
C2     O183    1.277   .     A
C3     C38     1.488   .     S
C3     C111    1.422   .     A
C3     C6      1.413   1_554 S
C4     C39     1.488   .     S
C4     C112    1.422   .     A
C4     C135    1.413   1_556 S
C5     C113    1.422   .     A
C5     C40     1.488   .     S
C5     C134    1.413   1_554 S
C6     C114    1.422   .     A
C6     C41     1.488   .     S
C6     C3      1.413   1_556 S
C7     C116    1.422   .     A
C7     C42     1.488   .     S
C7     C136    1.413   1_554 S
C8     N153    1.158   .     T
C8     C73     1.454   .     S
C9     N161    1.158   .     T
C9     C74     1.454   .     S
C10    N162    1.158   .     T
C10    C75     1.454   .     S
C11    C76     1.454   .     S
C11    N163    1.158   .     T
C12    N164    1.158   .     T
C12    C77     1.454   .     S
C13    O208    1.277   .     A
C13    C67     1.423   .     S
C13    O184    1.277   .     A
C14    C78     1.454   .     S
C14    N165    1.158   .     T
C15    C79     1.454   .     S
C15    N166    1.158   .     T
C16    C80     1.454   .     S
C16    N167    1.158   .     T
C17    N168    1.158   .     T
C17    C81     1.454   .     S
C18    N154    1.158   .     T
C18    C83     1.454   .     S
C19    N155    1.158   .     T
C19    C84     1.454   .     S
C20    N156    1.158   .     T
C20    C85     1.454   .     S
C21    C86     1.454   .     S
C21    N157    1.158   .     T
C22    C87     1.454   .     S
C22    N158    1.158   .     T
C23    N159    1.158   .     T
C23    C88     1.454   .     S
C24    O185    1.277   .     A
C24    O209    1.277   .     A
C24    C66     1.423   .     S
C25    N160    1.158   .     T
C25    C89     1.454   .     S
C26    O217    1.220   .     D
C26    C125    1.488   .     S
C26    H389    1.085   1_455 S
C27    O218    1.220   .     D
C27    C127    1.488   .     S
C27    H397    1.085   .     S
C28    O219    1.220   .     D
C28    C128    1.488   .     S
C28    H650    1.085   .     S
C29    C129    1.488   .     S
C29    O220    1.220   .     D
C29    H651    1.085   1_545 S
C30    O221    1.220   .     D
C30    C130    1.488   .     S
C30    H400    1.085   .     S
C31    C131    1.488   .     S
C31    O222    1.220   .     D
C31    H401    1.085   1_455 S
C32    C132    1.489   .     S
C32    O223    1.220   .     D
C32    H654    1.086   1_545 S
C33    C133    1.488   .     S
C33    O225    1.220   .     D
C33    H655    1.085   .     S
C34    O226    1.220   .     D
C34    C134    1.488   .     S
C34    H152    1.085   .     S
C35    C65     1.423   .     S
C35    O215    1.277   .     A
C35    O186    1.277   .     A
C36    C135    1.488   .     S
C36    O227    1.220   .     D
C36    H138    1.085   .     S
C37    O228    1.220   .     D
C37    H139    1.085   .     S
C37    C136    1.488   .     S
C38    O229    1.220   .     D
C38    H140    1.085   .     S
C39    H141    1.085   .     S
C39    O230    1.220   .     D
C40    H142    1.085   .     S
C40    O231    1.220   .     D
C41    H143    1.085   .     S
C41    O232    1.220   .     D
C42    O233    1.220   .     D
C42    H144    1.086   .     S
C43    O216    1.277   .     A
C43    C64     1.423   .     S
C43    O187    1.277   .     A
C44    C72     1.423   .     S
C44    O188    1.277   .     A
C44    O212    1.277   .     A
C45    O214    1.277   .     A
C45    O189    1.277   .     A
C45    C70     1.423   .     S
C46    O201    1.277   .     A
C46    O190    1.277   .     A
C46    C61     1.423   .     S
C47    O192    1.277   .     A
C47    O203    1.277   .     A
C47    C59     1.423   .     S
C48    O193    1.277   .     A
C48    O199    1.277   .     A
C48    C58     1.423   .     S
C49    C94     1.465   .     S
C49    O224    1.269   .     A
C49    O674    1.269   1_545 S
C50    C57     1.423   .     S
C50    O194    1.277   .     A
C50    O200    1.277   .     A
C51    O206    1.277   .     A
C51    C56     1.423   .     S
C51    O195    1.277   .     A
C52    O196    1.277   .     A
C52    O207    1.277   .     A
C52    C55     1.423   .     S
C53    O204    1.277   .     A
C53    O197    1.277   .     A
C53    C63     1.423   .     S
C54    C62     1.423   .     S
C54    O205    1.277   .     A
C54    O198    1.277   .     A
C55    C72     1.199   .     T
C56    C70     1.199   .     T
C57    C69     1.199   .     T
C58    C68     1.199   .     T
C59    C67     1.198   .     T
C60    O234    1.269   .     A
C60    C90     1.465   .     S
C60    O423    1.269   1_455 S
C61    C66     1.198   .     T
C62    C65     1.199   .     T
C63    C64     1.199   .     T
C69    C126    1.423   .     S
C71    C91     1.465   .     S
C71    O487    1.269   1_455 A
C71    O172    1.270   .     S
C73    C103    1.418   .     A
C73    C342    1.402   .     S
C74    C105    1.418   .     A
C74    C91     1.402   .     S
C75    C106    1.418   .     A
C75    C92     1.402   .     S
C76    C107    1.418   .     A
C76    C598    1.402   .     S
C77    C90     1.402   .     A
C77    C99     1.419   .     A
C78    C343    1.402   .     A
C78    C100    1.418   .     A
C79    C596    1.402   .     A
C79    C101    1.419   .     A
C80    C102    1.419   .     A
C80    C94     1.402   .     A
C81    C112    1.419   .     A
C81    C95     1.402   .     A
C82    C97     1.465   .     S
C82    O173    1.269   .     S
C82    O177    1.269   .     S
C83    C113    1.418   .     A
C83    C600    1.402   .     S
C84    C114    1.418   .     A
C84    C349    1.402   .     S
C85    C98     1.402   .     A
C85    C116    1.418   .     A
C86    C108    1.418   .     A
C86    C599    1.402   .     S
C87    C96     1.402   .     A
C87    C109    1.418   .     A
C88    C97     1.402   .     A
C88    C110    1.418   .     A
C89    C111    1.418   .     A
C89    C350    1.402   .     S
C90    C325    1.402   1_455 S
C91    C330    1.402   1_455 A
C92    C583    1.402   1_545 A
C93    C98     1.465   .     S
C93    O174    1.269   .     S
C93    O178    1.269   .     S
C94    C580    1.402   1_545 S
C95    C104    1.465   .     S
C95    C590    1.402   1_545 S
C96    C115    1.465   .     S
C96    C587    1.402   1_545 S
C97    C336    1.402   1_455 S
C98    C341    1.402   1_455 S
C99    C117    1.423   .     A
C99    C125    1.422   .     A
C100   C127    1.422   .     A
C100   C118    1.423   .     A
C101   C128    1.422   .     A
C101   C119    1.423   .     A
C102   C129    1.422   .     A
C102   C120    1.423   .     A
C103   C130    1.422   .     A
C103   C369    1.423   .     S
C104   O175    1.269   .     S
C104   O179    1.269   .     S
C105   C131    1.422   .     A
C105   C370    1.423   1_455 S
C106   C132    1.422   .     A
C106   C623    1.423   1_545 S
C107   C133    1.422   .     A
C107   C624    1.423   .     S
C108   C134    1.422   .     A
C108   C625    1.423   .     S
C109   C135    1.422   .     A
C109   C122    1.423   .     A
C110   C136    1.422   .     A
C110   C123    1.423   .     A
C111   C376    1.423   .     S
C112   C121    1.423   .     A
C113   C626    1.423   .     S
C114   C375    1.423   .     S
C115   O181    1.269   .     A
C115   O176    1.269   .     A
C116   C124    1.423   .     A
C117   C355    1.423   1_455 S
C117   C370    1.413   1_455 S
C118   C357    1.423   .     S
C118   C369    1.413   .     S
C119   C610    1.423   .     S
C119   C624    1.413   .     S
C120   C611    1.423   1_545 S
C120   C623    1.413   1_545 S
C121   C612    1.423   1_545 S
C121   C122    1.413   1_556 S
C122   C617    1.423   1_545 S
C122   C121    1.413   1_554 S
C123   C366    1.423   1_455 S
C123   C124    1.413   1_556 S
C124   C363    1.423   1_455 S
C124   C123    1.413   1_554 S
C125   C131    1.413   .     A
C126   O210    1.277   .     A
C126   O182    1.277   .     A
C127   C130    1.413   .     A
C128   C133    1.413   .     A
C129   C132    1.413   .     A
C134   C5      1.413   1_556 S
C135   C4      1.413   1_554 S
C136   C7      1.413   1_556 S
H137   C278    1.085   .     S
H145   C279    1.085   1_455 S
H146   C532    1.085   1_545 S
H147   C533    1.085   .     S
H148   C282    1.085   1_455 S
H149   C283    1.085   .     S
H150   C536    1.086   .     S
H151   C537    1.085   1_545 S
O169   Zn237   1.936   .     S
O169   Zn748   1.936   1_545 S
O169   Zn248   1.936   .     S
O169   Zn240   1.936   .     S
O170   Zn239   1.951   .     S
O170   C553    1.269   .     S
O171   Zn242   1.951   .     S
O171   C312    1.269   .     S
O172   Zn241   1.951   .     S
O173   Zn251   1.951   .     S
O174   Zn250   1.951   .     S
O175   Zn245   1.951   .     S
O176   Zn237   1.951   .     S
O177   Zn247   1.951   .     S
O178   Zn246   1.951   .     S
O179   Zn249   1.951   .     S
O180   Zn245   1.936   .     S
O180   Zn743   1.936   1_545 S
O180   Zn249   1.936   .     S
O180   Zn243   1.936   .     S
O181   Zn248   1.951   .     S
O182   Zn240   1.916   .     S
O183   Zn239   1.916   .     S
O184   Zn242   1.915   .     S
O185   Zn241   1.915   .     S
O186   Zn244   1.916   .     S
O187   Zn243   1.916   .     S
O188   Zn238   1.915   .     S
O189   Zn252   1.915   .     S
O190   Zn239   1.915   .     S
O191   Zn494   1.936   1_455 S
O191   Zn246   1.936   .     S
O191   Zn238   1.936   .     S
O191   Zn250   1.936   .     S
O192   Zn240   1.915   .     S
O193   Zn252   1.916   .     S
O194   Zn238   1.916   .     S
O195   Zn243   1.915   .     S
O196   Zn244   1.915   .     S
O197   Zn241   1.916   .     S
O198   Zn242   1.916   .     S
O199   Zn499   1.916   .     S
O200   Zn246   1.916   .     S
O201   Zn753   1.915   .     S
O202   Zn251   1.936   .     S
O202   Zn241   1.936   .     S
O202   Zn247   1.936   .     S
O202   Zn504   1.936   1_455 S
O203   Zn248   1.915   .     S
O204   Zn251   1.916   .     S
O205   Zn502   1.916   .     S
O206   Zn245   1.915   .     S
O207   Zn741   1.915   .     S
O208   Zn498   1.915   .     S
O209   Zn247   1.915   .     S
O210   Zn237   1.916   .     S
O211   Zn749   1.916   .     S
O212   Zn250   1.915   .     S
O213   C505    1.269   .     A
O213   Zn244   1.951   .     S
O214   Zn503   1.915   .     S
O215   Zn752   1.916   .     S
O216   Zn249   1.916   .     S
O224   Zn243   1.951   .     S
O234   Zn238   1.951   .     S
O235   C323    1.269   .     A
O235   Zn252   1.951   .     S
O236   Zn240   1.951   .     S
Zn237  O711    1.915   1_545 S
Zn239  O684    1.936   .     S
Zn242  O443    1.936   .     S
Zn244  O673    1.936   .     S
Zn245  O715    1.916   1_545 S
Zn246  O460    1.915   1_455 S
Zn247  O451    1.916   1_455 S
Zn248  O719    1.916   1_545 S
Zn249  O705    1.915   1_545 S
Zn250  O457    1.916   1_455 S
Zn251  O466    1.915   1_455 S
Zn252  O454    1.936   .     S
C253   C344    1.465   .     S
C253   O969    1.269   1_545 A
C253   O488    1.269   .     S
C254   O463    1.277   .     A
C254   C320    1.423   .     S
C254   O435    1.277   .     A
C255   C290    1.488   .     S
C255   C363    1.422   .     A
C255   C258    1.413   1_554 S
C256   C291    1.488   .     S
C256   C364    1.422   .     A
C256   C387    1.413   1_556 S
C257   C365    1.422   .     A
C257   C292    1.488   .     S
C257   C386    1.413   1_554 S
C258   C366    1.422   .     A
C258   C293    1.488   .     S
C258   C255    1.413   1_556 S
C259   C368    1.422   .     A
C259   C294    1.488   .     S
C259   C388    1.413   1_554 S
C260   N405    1.158   .     T
C260   C325    1.454   .     S
C261   N413    1.158   .     T
C261   C326    1.454   .     S
C262   N414    1.158   .     T
C262   C327    1.454   .     S
C263   C328    1.454   .     S
C263   N415    1.158   .     T
C264   N416    1.158   .     T
C264   C329    1.454   .     S
C265   O460    1.277   .     A
C265   C319    1.423   .     S
C265   O436    1.277   .     A
C266   C330    1.454   .     S
C266   N417    1.158   .     T
C267   C331    1.454   .     S
C267   N418    1.158   .     T
C268   C332    1.454   .     S
C268   N419    1.158   .     T
C269   N420    1.158   .     T
C269   C333    1.454   .     S
C270   N406    1.158   .     T
C270   C335    1.454   .     S
C271   N407    1.158   .     T
C271   C336    1.454   .     S
C272   N408    1.158   .     T
C272   C337    1.454   .     S
C273   C338    1.454   .     S
C273   N409    1.158   .     T
C274   C339    1.454   .     S
C274   N410    1.158   .     T
C275   N411    1.158   .     T
C275   C340    1.454   .     S
C276   O437    1.277   .     A
C276   O461    1.277   .     A
C276   C318    1.423   .     S
C277   N412    1.158   .     T
C277   C341    1.454   .     S
C278   O469    1.220   .     D
C278   C377    1.488   .     S
C279   O470    1.220   .     D
C279   C379    1.488   .     S
C279   H145    1.085   1_655 S
C280   O471    1.220   .     D
C280   C380    1.488   .     S
C280   H902    1.085   .     S
C281   C381    1.488   .     S
C281   O472    1.220   .     D
C281   H903    1.085   1_545 S
C282   O473    1.220   .     D
C282   C382    1.488   .     S
C282   H148    1.085   1_655 S
C283   C383    1.488   .     S
C283   O474    1.220   .     D
C284   C384    1.489   .     S
C284   O475    1.220   .     D
C284   H906    1.086   1_545 S
C285   C385    1.488   .     S
C285   O477    1.220   .     D
C285   H907    1.085   .     S
C286   O478    1.220   .     D
C286   C386    1.488   .     S
C286   H404    1.085   .     S
C287   C317    1.423   .     S
C287   O467    1.277   .     A
C287   O438    1.277   .     A
C288   C387    1.488   .     S
C288   O479    1.220   .     D
C288   H390    1.085   .     S
C289   O480    1.220   .     D
C289   H391    1.085   .     S
C289   C388    1.488   .     S
C290   O481    1.220   .     D
C290   H392    1.085   .     S
C291   H393    1.085   .     S
C291   O482    1.220   .     D
C292   H394    1.085   .     S
C292   O483    1.220   .     D
C293   H395    1.085   .     S
C293   O484    1.220   .     D
C294   O485    1.220   .     D
C294   H396    1.086   .     S
C295   O468    1.277   .     A
C295   C316    1.423   .     S
C295   O439    1.277   .     A
C296   C324    1.423   .     S
C296   O440    1.277   .     A
C296   O464    1.277   .     A
C297   O466    1.277   .     A
C297   O441    1.277   .     A
C297   C322    1.423   .     S
C298   O453    1.277   .     A
C298   O442    1.277   .     A
C298   C313    1.423   .     S
C299   O444    1.277   .     A
C299   O455    1.277   .     A
C299   C311    1.423   .     S
C300   O445    1.277   .     A
C300   O451    1.277   .     A
C300   C310    1.423   .     S
C301   C346    1.465   .     S
C301   O476    1.269   .     A
C301   O926    1.269   1_545 S
C302   C309    1.423   .     S
C302   O446    1.277   .     A
C302   O452    1.277   .     A
C303   O458    1.277   .     A
C303   C308    1.423   .     S
C303   O447    1.277   .     A
C304   O448    1.277   .     A
C304   O459    1.277   .     A
C304   C307    1.423   .     S
C305   O456    1.277   .     A
C305   O449    1.277   .     A
C305   C315    1.423   .     S
C306   C314    1.423   .     S
C306   O457    1.277   .     A
C306   O450    1.277   .     A
C307   C324    1.199   .     T
C308   C322    1.199   .     T
C309   C321    1.199   .     T
C310   C320    1.199   .     T
C311   C319    1.198   .     T
C312   O486    1.269   .     A
C312   C342    1.465   .     S
C313   C318    1.198   .     T
C314   C317    1.199   .     T
C315   C316    1.199   .     T
C321   C378    1.423   .     S
C323   C343    1.465   .     S
C323   O424    1.270   .     S
C325   C355    1.418   .     A
C325   C90     1.402   1_655 S
C326   C357    1.418   .     A
C326   C343    1.402   .     S
C327   C358    1.418   .     A
C327   C344    1.402   .     S
C328   C359    1.418   .     A
C328   C850    1.402   .     S
C329   C342    1.402   .     A
C329   C351    1.419   .     A
C330   C91     1.402   1_655 A
C330   C352    1.418   .     A
C331   C848    1.402   .     A
C331   C353    1.419   .     A
C332   C354    1.419   .     A
C332   C346    1.402   .     A
C333   C364    1.419   .     A
C333   C347    1.402   .     A
C334   C349    1.465   .     S
C334   O425    1.269   .     S
C334   O429    1.269   .     S
C335   C365    1.418   .     A
C335   C852    1.402   .     S
C336   C366    1.418   .     A
C336   C97     1.402   1_655 S
C337   C350    1.402   .     A
C337   C368    1.418   .     A
C338   C360    1.418   .     A
C338   C851    1.402   .     S
C339   C348    1.402   .     A
C339   C361    1.418   .     A
C340   C349    1.402   .     A
C340   C362    1.418   .     A
C341   C363    1.418   .     A
C341   C98     1.402   1_655 S
C344   C835    1.402   1_545 A
C345   C350    1.465   .     S
C345   O426    1.269   .     S
C345   O430    1.269   .     S
C346   C832    1.402   1_545 S
C347   C356    1.465   .     S
C347   C842    1.402   1_545 S
C348   C367    1.465   .     S
C348   C839    1.402   1_545 S
C351   C369    1.423   .     A
C351   C377    1.422   .     A
C352   C379    1.422   .     A
C352   C370    1.423   .     A
C353   C380    1.422   .     A
C353   C371    1.423   .     A
C354   C381    1.422   .     A
C354   C372    1.423   .     A
C355   C382    1.422   .     A
C355   C117    1.423   1_655 S
C356   O427    1.269   .     S
C356   O431    1.269   .     S
C357   C383    1.422   .     A
C358   C384    1.422   .     A
C358   C875    1.423   1_545 S
C359   C385    1.422   .     A
C359   C876    1.423   .     S
C360   C386    1.422   .     A
C360   C877    1.423   .     S
C361   C387    1.422   .     A
C361   C374    1.423   .     A
C362   C388    1.422   .     A
C362   C375    1.423   .     A
C363   C124    1.423   1_655 S
C364   C373    1.423   .     A
C365   C878    1.423   .     S
C366   C123    1.423   1_655 S
C367   O433    1.269   .     A
C367   O428    1.269   .     A
C368   C376    1.423   .     A
C370   C105    1.423   1_655 S
C370   C117    1.413   1_655 S
C371   C862    1.423   .     S
C371   C876    1.413   .     S
C372   C863    1.423   1_545 S
C372   C875    1.413   1_545 S
C373   C864    1.423   1_545 S
C373   C374    1.413   1_556 S
C374   C869    1.423   1_545 S
C374   C373    1.413   1_554 S
C375   C376    1.413   1_556 S
C376   C375    1.413   1_554 S
C377   C383    1.413   .     A
C378   O462    1.277   .     A
C378   O434    1.277   .     A
C379   C382    1.413   .     A
C380   C385    1.413   .     A
C381   C384    1.413   .     A
C386   C257    1.413   1_556 S
C387   C256    1.413   1_554 S
C388   C259    1.413   1_556 S
H389   C26     1.085   1_655 S
H398   C784    1.085   1_545 S
H399   C785    1.085   .     S
H401   C31     1.085   1_655 S
H402   C788    1.086   .     S
H403   C789    1.085   1_545 S
O421   Zn489   1.936   .     S
O421   Zn1000  1.936   1_545 S
O421   Zn500   1.936   .     S
O421   Zn492   1.936   .     S
O422   Zn491   1.951   .     S
O422   C805    1.269   .     S
O423   Zn494   1.951   .     S
O423   C60     1.269   1_655 S
O424   Zn493   1.951   .     S
O425   Zn503   1.951   .     S
O426   Zn502   1.951   .     S
O427   Zn497   1.951   .     S
O428   Zn489   1.951   .     S
O429   Zn499   1.951   .     S
O430   Zn498   1.951   .     S
O431   Zn501   1.951   .     S
O432   Zn497   1.936   .     S
O432   Zn995   1.936   1_545 S
O432   Zn501   1.936   .     S
O432   Zn495   1.936   .     S
O433   Zn500   1.951   .     S
O434   Zn492   1.916   .     S
O435   Zn491   1.916   .     S
O436   Zn494   1.915   .     S
O437   Zn493   1.915   .     S
O438   Zn496   1.916   .     S
O439   Zn495   1.916   .     S
O440   Zn490   1.915   .     S
O441   Zn504   1.915   .     S
O442   Zn491   1.915   .     S
O443   Zn498   1.936   .     S
O443   Zn490   1.936   .     S
O443   Zn502   1.936   .     S
O444   Zn492   1.915   .     S
O445   Zn504   1.916   .     S
O446   Zn490   1.916   .     S
O447   Zn495   1.915   .     S
O448   Zn496   1.915   .     S
O449   Zn493   1.916   .     S
O450   Zn494   1.916   .     S
O451   Zn247   1.916   1_655 S
O452   Zn498   1.916   .     S
O453   Zn1005  1.915   .     S
O454   Zn503   1.936   .     S
O454   Zn493   1.936   .     S
O454   Zn499   1.936   .     S
O455   Zn500   1.915   .     S
O456   Zn503   1.916   .     S
O457   Zn250   1.916   1_655 S
O458   Zn497   1.915   .     S
O459   Zn993   1.915   .     S
O460   Zn246   1.915   1_655 S
O461   Zn499   1.915   .     S
O462   Zn489   1.916   .     S
O463   Zn1001  1.916   .     S
O464   Zn502   1.915   .     S
O465   C757    1.269   .     A
O465   Zn496   1.951   .     S
O466   Zn251   1.915   1_655 S
O467   Zn1004  1.916   .     S
O468   Zn501   1.916   .     S
O476   Zn495   1.951   .     S
O486   Zn490   1.951   .     S
O487   C71     1.269   1_655 A
O487   Zn504   1.951   .     S
O488   Zn492   1.951   .     S
Zn489  O963    1.915   1_545 S
Zn491  O936    1.936   .     S
Zn494  O191    1.936   1_655 S
Zn496  O925    1.936   .     S
Zn497  O967    1.916   1_545 S
Zn500  O971    1.916   1_545 S
Zn501  O957    1.915   1_545 S
Zn504  O202    1.936   1_655 S
C505   C596    1.465   .     S
C505   O740    1.269   .     S
C506   O715    1.277   .     A
C506   C572    1.423   .     S
C506   O687    1.277   .     A
C507   C542    1.488   .     S
C507   C615    1.422   .     A
C507   C510    1.413   1_554 S
C508   C543    1.488   .     S
C508   C616    1.422   .     A
C508   C639    1.413   1_556 S
C509   C617    1.422   .     A
C509   C544    1.488   .     S
C509   C638    1.413   1_554 S
C510   C618    1.422   .     A
C510   C545    1.488   .     S
C510   C507    1.413   1_556 S
C511   C620    1.422   .     A
C511   C546    1.488   .     S
C511   C640    1.413   1_554 S
C512   N657    1.158   .     T
C512   C577    1.454   .     S
C513   N665    1.158   .     T
C513   C578    1.454   .     S
C514   N666    1.158   .     T
C514   C579    1.454   .     S
C515   C580    1.454   .     S
C515   N667    1.158   .     T
C516   N668    1.158   .     T
C516   C581    1.454   .     S
C517   O712    1.277   .     A
C517   C571    1.423   .     S
C517   O688    1.277   .     A
C518   C582    1.454   .     S
C518   N669    1.158   .     T
C519   C583    1.454   .     S
C519   N670    1.158   .     T
C520   C584    1.454   .     S
C520   N671    1.158   .     T
C521   N672    1.158   .     T
C521   C585    1.454   .     S
C522   N658    1.158   .     T
C522   C587    1.454   .     S
C523   N659    1.158   .     T
C523   C588    1.454   .     S
C524   N660    1.158   .     T
C524   C589    1.454   .     S
C525   C590    1.454   .     S
C525   N661    1.158   .     T
C526   C591    1.454   .     S
C526   N662    1.158   .     T
C527   N663    1.158   .     T
C527   C592    1.454   .     S
C528   O689    1.277   .     A
C528   O713    1.277   .     A
C528   C570    1.423   .     S
C529   N664    1.158   .     T
C529   C593    1.454   .     S
C530   O721    1.220   .     D
C530   C629    1.488   .     S
C530   H893    1.085   1_455 S
C531   O722    1.220   .     D
C531   C631    1.488   .     S
C531   H901    1.085   .     S
C532   O723    1.220   .     D
C532   C632    1.488   .     S
C532   H146    1.085   1_565 S
C533   C633    1.488   .     S
C533   O724    1.220   .     D
C534   O725    1.220   .     D
C534   C634    1.488   .     S
C534   H904    1.085   .     S
C535   C635    1.488   .     S
C535   O726    1.220   .     D
C535   H905    1.085   1_455 S
C536   C636    1.489   .     S
C536   O727    1.220   .     D
C537   C637    1.488   .     S
C537   O729    1.220   .     D
C537   H151    1.085   1_565 S
C538   O730    1.220   .     D
C538   C638    1.488   .     S
C538   H656    1.085   .     S
C539   C569    1.423   .     S
C539   O719    1.277   .     A
C539   O690    1.277   .     A
C540   C639    1.488   .     S
C540   O731    1.220   .     D
C540   H642    1.085   .     S
C541   O732    1.220   .     D
C541   H643    1.085   .     S
C541   C640    1.488   .     S
C542   O733    1.220   .     D
C542   H644    1.085   .     S
C543   H645    1.085   .     S
C543   O734    1.220   .     D
C544   H646    1.085   .     S
C544   O735    1.220   .     D
C545   H647    1.085   .     S
C545   O736    1.220   .     D
C546   O737    1.220   .     D
C546   H648    1.086   .     S
C547   O720    1.277   .     A
C547   C568    1.423   .     S
C547   O691    1.277   .     A
C548   C576    1.423   .     S
C548   O692    1.277   .     A
C548   O716    1.277   .     A
C549   O718    1.277   .     A
C549   O693    1.277   .     A
C549   C574    1.423   .     S
C550   O705    1.277   .     A
C550   O694    1.277   .     A
C550   C565    1.423   .     S
C551   O696    1.277   .     A
C551   O707    1.277   .     A
C551   C563    1.423   .     S
C552   O697    1.277   .     A
C552   O703    1.277   .     A
C552   C562    1.423   .     S
C553   C598    1.465   .     S
C553   O728    1.269   .     A
C554   C561    1.423   .     S
C554   O698    1.277   .     A
C554   O704    1.277   .     A
C555   O710    1.277   .     A
C555   C560    1.423   .     S
C555   O699    1.277   .     A
C556   O700    1.277   .     A
C556   O711    1.277   .     A
C556   C559    1.423   .     S
C557   O708    1.277   .     A
C557   O701    1.277   .     A
C557   C567    1.423   .     S
C558   C566    1.423   .     S
C558   O709    1.277   .     A
C558   O702    1.277   .     A
C559   C576    1.199   .     T
C560   C574    1.199   .     T
C561   C573    1.199   .     T
C562   C572    1.199   .     T
C563   C571    1.198   .     T
C564   O738    1.269   .     A
C564   C594    1.465   .     S
C564   O927    1.269   1_455 S
C565   C570    1.198   .     T
C566   C569    1.199   .     T
C567   C568    1.199   .     T
C573   C630    1.423   .     S
C575   C595    1.465   .     S
C575   O991    1.269   1_455 A
C575   O676    1.270   .     S
C577   C607    1.418   .     A
C577   C846    1.402   .     S
C578   C609    1.418   .     A
C578   C595    1.402   .     S
C579   C610    1.418   .     A
C579   C596    1.402   .     S
C580   C611    1.418   .     A
C580   C94     1.402   1_565 S
C581   C594    1.402   .     A
C581   C603    1.419   .     A
C582   C847    1.402   .     A
C582   C604    1.418   .     A
C583   C92     1.402   1_565 A
C583   C605    1.419   .     A
C584   C606    1.419   .     A
C584   C598    1.402   .     A
C585   C616    1.419   .     A
C585   C599    1.402   .     A
C586   C601    1.465   .     S
C586   O677    1.269   .     S
C586   O681    1.269   .     S
C587   C617    1.418   .     A
C587   C96     1.402   1_565 S
C588   C618    1.418   .     A
C588   C853    1.402   .     S
C589   C602    1.402   .     A
C589   C620    1.418   .     A
C590   C612    1.418   .     A
C590   C95     1.402   1_565 S
C591   C600    1.402   .     A
C591   C613    1.418   .     A
C592   C601    1.402   .     A
C592   C614    1.418   .     A
C593   C615    1.418   .     A
C593   C854    1.402   .     S
C594   C829    1.402   1_455 S
C595   C834    1.402   1_455 A
C597   C602    1.465   .     S
C597   O678    1.269   .     S
C597   O682    1.269   .     S
C599   C608    1.465   .     S
C600   C619    1.465   .     S
C601   C840    1.402   1_455 S
C602   C845    1.402   1_455 S
C603   C621    1.423   .     A
C603   C629    1.422   .     A
C604   C631    1.422   .     A
C604   C622    1.423   .     A
C605   C632    1.422   .     A
C605   C623    1.423   .     A
C606   C633    1.422   .     A
C606   C624    1.423   .     A
C607   C634    1.422   .     A
C607   C873    1.423   .     S
C608   O679    1.269   .     S
C608   O683    1.269   .     S
C609   C635    1.422   .     A
C609   C874    1.423   1_455 S
C610   C636    1.422   .     A
C611   C637    1.422   .     A
C611   C120    1.423   1_565 S
C612   C638    1.422   .     A
C612   C121    1.423   1_565 S
C613   C639    1.422   .     A
C613   C626    1.423   .     A
C614   C640    1.422   .     A
C614   C627    1.423   .     A
C615   C880    1.423   .     S
C616   C625    1.423   .     A
C617   C122    1.423   1_565 S
C618   C879    1.423   .     S
C619   O685    1.269   .     A
C619   O680    1.269   .     A
C620   C628    1.423   .     A
C621   C859    1.423   1_455 S
C621   C874    1.413   1_455 S
C622   C861    1.423   .     S
C622   C873    1.413   .     S
C623   C106    1.423   1_565 S
C623   C120    1.413   1_565 S
C625   C626    1.413   1_556 S
C626   C625    1.413   1_554 S
C627   C870    1.423   1_455 S
C627   C628    1.413   1_556 S
C628   C867    1.423   1_455 S
C628   C627    1.413   1_554 S
C629   C635    1.413   .     A
C630   O714    1.277   .     A
C630   O686    1.277   .     A
C631   C634    1.413   .     A
C632   C637    1.413   .     A
C633   C636    1.413   .     A
C638   C509    1.413   1_556 S
C639   C508    1.413   1_554 S
C640   C511    1.413   1_556 S
H641   C782    1.085   .     S
H649   C783    1.085   1_455 S
H651   C29     1.085   1_565 S
H652   C786    1.085   1_455 S
H653   C787    1.085   .     S
H654   C32     1.086   1_565 S
O673   Zn741   1.936   .     S
O673   Zn752   1.936   .     S
O673   Zn744   1.936   .     S
O674   Zn743   1.951   .     S
O674   C49     1.269   1_565 S
O675   Zn746   1.951   .     S
O675   C816    1.269   .     S
O676   Zn745   1.951   .     S
O677   Zn755   1.951   .     S
O678   Zn754   1.951   .     S
O679   Zn749   1.951   .     S
O680   Zn741   1.951   .     S
O681   Zn751   1.951   .     S
O682   Zn750   1.951   .     S
O683   Zn753   1.951   .     S
O684   Zn749   1.936   .     S
O684   Zn753   1.936   .     S
O684   Zn747   1.936   .     S
O685   Zn752   1.951   .     S
O686   Zn744   1.916   .     S
O687   Zn743   1.916   .     S
O688   Zn746   1.915   .     S
O689   Zn745   1.915   .     S
O690   Zn748   1.916   .     S
O691   Zn747   1.916   .     S
O692   Zn742   1.915   .     S
O693   Zn756   1.915   .     S
O694   Zn743   1.915   .     S
O695   Zn998   1.936   1_455 S
O695   Zn750   1.936   .     S
O695   Zn742   1.936   .     S
O695   Zn754   1.936   .     S
O696   Zn744   1.915   .     S
O697   Zn756   1.916   .     S
O698   Zn742   1.916   .     S
O699   Zn747   1.915   .     S
O700   Zn748   1.915   .     S
O701   Zn745   1.916   .     S
O702   Zn746   1.916   .     S
O703   Zn1003  1.916   .     S
O704   Zn750   1.916   .     S
O705   Zn249   1.915   1_565 S
O706   Zn755   1.936   .     S
O706   Zn745   1.936   .     S
O706   Zn751   1.936   .     S
O706   Zn1008  1.936   1_455 S
O707   Zn752   1.915   .     S
O708   Zn755   1.916   .     S
O709   Zn1006  1.916   .     S
O710   Zn749   1.915   .     S
O711   Zn237   1.915   1_565 S
O712   Zn1002  1.915   .     S
O713   Zn751   1.915   .     S
O714   Zn741   1.916   .     S
O715   Zn245   1.916   1_565 S
O716   Zn754   1.915   .     S
O717   C1      1.269   1_565 A
O717   Zn748   1.951   .     S
O718   Zn1007  1.915   .     S
O719   Zn248   1.916   1_565 S
O720   Zn753   1.916   .     S
O728   Zn747   1.951   .     S
O738   Zn742   1.951   .     S
O739   C827    1.269   .     A
O739   Zn756   1.951   .     S
O740   Zn744   1.951   .     S
Zn743  O180    1.936   1_565 S
Zn746  O947    1.936   .     S
Zn748  O169    1.936   1_565 S
Zn750  O964    1.915   1_455 S
Zn751  O955    1.916   1_455 S
Zn754  O961    1.916   1_455 S
Zn755  O970    1.915   1_455 S
Zn756  O958    1.936   .     S
C757   C848    1.465   .     S
C757   O992    1.269   .     S
C758   O967    1.277   .     A
C758   C824    1.423   .     S
C758   O939    1.277   .     A
C759   C794    1.488   .     S
C759   C867    1.422   .     A
C759   C762    1.413   1_554 S
C760   C795    1.488   .     S
C760   C868    1.422   .     A
C760   C891    1.413   1_556 S
C761   C869    1.422   .     A
C761   C796    1.488   .     S
C761   C890    1.413   1_554 S
C762   C870    1.422   .     A
C762   C797    1.488   .     S
C762   C759    1.413   1_556 S
C763   C872    1.422   .     A
C763   C798    1.488   .     S
C763   C892    1.413   1_554 S
C764   N909    1.158   .     T
C764   C829    1.454   .     S
C765   N917    1.158   .     T
C765   C830    1.454   .     S
C766   N918    1.158   .     T
C766   C831    1.454   .     S
C767   C832    1.454   .     S
C767   N919    1.158   .     T
C768   N920    1.158   .     T
C768   C833    1.454   .     S
C769   O964    1.277   .     A
C769   C823    1.423   .     S
C769   O940    1.277   .     A
C770   C834    1.454   .     S
C770   N921    1.158   .     T
C771   C835    1.454   .     S
C771   N922    1.158   .     T
C772   C836    1.454   .     S
C772   N923    1.158   .     T
C773   N924    1.158   .     T
C773   C837    1.454   .     S
C774   N910    1.158   .     T
C774   C839    1.454   .     S
C775   N911    1.158   .     T
C775   C840    1.454   .     S
C776   N912    1.158   .     T
C776   C841    1.454   .     S
C777   C842    1.454   .     S
C777   N913    1.158   .     T
C778   C843    1.454   .     S
C778   N914    1.158   .     T
C779   N915    1.158   .     T
C779   C844    1.454   .     S
C780   O941    1.277   .     A
C780   O965    1.277   .     A
C780   C822    1.423   .     S
C781   N916    1.158   .     T
C781   C845    1.454   .     S
C782   O973    1.220   .     D
C782   C881    1.488   .     S
C783   O974    1.220   .     D
C783   C883    1.488   .     S
C783   H649    1.085   1_655 S
C784   O975    1.220   .     D
C784   C884    1.488   .     S
C784   H398    1.085   1_565 S
C785   C885    1.488   .     S
C785   O976    1.220   .     D
C786   O977    1.220   .     D
C786   C886    1.488   .     S
C786   H652    1.085   1_655 S
C787   C887    1.488   .     S
C787   O978    1.220   .     D
C788   C888    1.489   .     S
C788   O979    1.220   .     D
C789   C889    1.488   .     S
C789   O981    1.220   .     D
C789   H403    1.085   1_565 S
C790   O982    1.220   .     D
C790   C890    1.488   .     S
C790   H908    1.085   .     S
C791   C821    1.423   .     S
C791   O971    1.277   .     A
C791   O942    1.277   .     A
C792   C891    1.488   .     S
C792   O983    1.220   .     D
C792   H894    1.085   .     S
C793   O984    1.220   .     D
C793   H895    1.085   .     S
C793   C892    1.488   .     S
C794   O985    1.220   .     D
C794   H896    1.085   .     S
C795   H897    1.085   .     S
C795   O986    1.220   .     D
C796   H898    1.085   .     S
C796   O987    1.220   .     D
C797   H899    1.085   .     S
C797   O988    1.220   .     D
C798   O989    1.220   .     D
C798   H900    1.086   .     S
C799   O972    1.277   .     A
C799   C820    1.423   .     S
C799   O943    1.277   .     A
C800   C828    1.423   .     S
C800   O944    1.277   .     A
C800   O968    1.277   .     A
C801   O970    1.277   .     A
C801   O945    1.277   .     A
C801   C826    1.423   .     S
C802   O957    1.277   .     A
C802   O946    1.277   .     A
C802   C817    1.423   .     S
C803   O948    1.277   .     A
C803   O959    1.277   .     A
C803   C815    1.423   .     S
C804   O949    1.277   .     A
C804   O955    1.277   .     A
C804   C814    1.423   .     S
C805   C850    1.465   .     S
C805   O980    1.269   .     A
C806   C813    1.423   .     S
C806   O950    1.277   .     A
C806   O956    1.277   .     A
C807   O962    1.277   .     A
C807   C812    1.423   .     S
C807   O951    1.277   .     A
C808   O952    1.277   .     A
C808   O963    1.277   .     A
C808   C811    1.423   .     S
C809   O960    1.277   .     A
C809   O953    1.277   .     A
C809   C819    1.423   .     S
C810   C818    1.423   .     S
C810   O961    1.277   .     A
C810   O954    1.277   .     A
C811   C828    1.199   .     T
C812   C826    1.199   .     T
C813   C825    1.199   .     T
C814   C824    1.199   .     T
C815   C823    1.198   .     T
C816   O990    1.269   .     A
C816   C846    1.465   .     S
C817   C822    1.198   .     T
C818   C821    1.199   .     T
C819   C820    1.199   .     T
C825   C882    1.423   .     S
C827   C847    1.465   .     S
C827   O928    1.270   .     S
C829   C859    1.418   .     A
C829   C594    1.402   1_655 S
C830   C861    1.418   .     A
C830   C847    1.402   .     S
C831   C862    1.418   .     A
C831   C848    1.402   .     S
C832   C863    1.418   .     A
C832   C346    1.402   1_565 S
C833   C846    1.402   .     A
C833   C855    1.419   .     A
C834   C595    1.402   1_655 A
C834   C856    1.418   .     A
C835   C344    1.402   1_565 A
C835   C857    1.419   .     A
C836   C858    1.419   .     A
C836   C850    1.402   .     A
C837   C868    1.419   .     A
C837   C851    1.402   .     A
C838   C853    1.465   .     S
C838   O929    1.269   .     S
C838   O933    1.269   .     S
C839   C869    1.418   .     A
C839   C348    1.402   1_565 S
C840   C870    1.418   .     A
C840   C601    1.402   1_655 S
C841   C854    1.402   .     A
C841   C872    1.418   .     A
C842   C864    1.418   .     A
C842   C347    1.402   1_565 S
C843   C852    1.402   .     A
C843   C865    1.418   .     A
C844   C853    1.402   .     A
C844   C866    1.418   .     A
C845   C867    1.418   .     A
C845   C602    1.402   1_655 S
C849   C854    1.465   .     S
C849   O930    1.269   .     S
C849   O934    1.269   .     S
C851   C860    1.465   .     S
C852   C871    1.465   .     S
C855   C873    1.423   .     A
C855   C881    1.422   .     A
C856   C883    1.422   .     A
C856   C874    1.423   .     A
C857   C884    1.422   .     A
C857   C875    1.423   .     A
C858   C885    1.422   .     A
C858   C876    1.423   .     A
C859   C886    1.422   .     A
C859   C621    1.423   1_655 S
C860   O931    1.269   .     S
C860   O935    1.269   .     S
C861   C887    1.422   .     A
C862   C888    1.422   .     A
C863   C889    1.422   .     A
C863   C372    1.423   1_565 S
C864   C890    1.422   .     A
C864   C373    1.423   1_565 S
C865   C891    1.422   .     A
C865   C878    1.423   .     A
C866   C892    1.422   .     A
C866   C879    1.423   .     A
C867   C628    1.423   1_655 S
C868   C877    1.423   .     A
C869   C374    1.423   1_565 S
C870   C627    1.423   1_655 S
C871   O937    1.269   .     A
C871   O932    1.269   .     A
C872   C880    1.423   .     A
C874   C609    1.423   1_655 S
C874   C621    1.413   1_655 S
C875   C358    1.423   1_565 S
C875   C372    1.413   1_565 S
C877   C878    1.413   1_556 S
C878   C877    1.413   1_554 S
C879   C880    1.413   1_556 S
C880   C879    1.413   1_554 S
C881   C887    1.413   .     A
C882   O966    1.277   .     A
C882   O938    1.277   .     A
C883   C886    1.413   .     A
C884   C889    1.413   .     A
C885   C888    1.413   .     A
C890   C761    1.413   1_556 S
C891   C760    1.413   1_554 S
C892   C763    1.413   1_556 S
H893   C530    1.085   1_655 S
H903   C281    1.085   1_565 S
H905   C535    1.085   1_655 S
H906   C284    1.086   1_565 S
O925   Zn993   1.936   .     S
O925   Zn1004  1.936   .     S
O925   Zn996   1.936   .     S
O926   Zn995   1.951   .     S
O926   C301    1.269   1_565 S
O927   Zn998   1.951   .     S
O927   C564    1.269   1_655 S
O928   Zn997   1.951   .     S
O929   Zn1007  1.951   .     S
O930   Zn1006  1.951   .     S
O931   Zn1001  1.951   .     S
O932   Zn993   1.951   .     S
O933   Zn1003  1.951   .     S
O934   Zn1002  1.951   .     S
O935   Zn1005  1.951   .     S
O936   Zn1001  1.936   .     S
O936   Zn1005  1.936   .     S
O936   Zn999   1.936   .     S
O937   Zn1004  1.951   .     S
O938   Zn996   1.916   .     S
O939   Zn995   1.916   .     S
O940   Zn998   1.915   .     S
O941   Zn997   1.915   .     S
O942   Zn1000  1.916   .     S
O943   Zn999   1.916   .     S
O944   Zn994   1.915   .     S
O945   Zn1008  1.915   .     S
O946   Zn995   1.915   .     S
O947   Zn1002  1.936   .     S
O947   Zn994   1.936   .     S
O947   Zn1006  1.936   .     S
O948   Zn996   1.915   .     S
O949   Zn1008  1.916   .     S
O950   Zn994   1.916   .     S
O951   Zn999   1.915   .     S
O952   Zn1000  1.915   .     S
O953   Zn997   1.916   .     S
O954   Zn998   1.916   .     S
O955   Zn751   1.916   1_655 S
O956   Zn1002  1.916   .     S
O957   Zn501   1.915   1_565 S
O958   Zn1007  1.936   .     S
O958   Zn997   1.936   .     S
O958   Zn1003  1.936   .     S
O959   Zn1004  1.915   .     S
O960   Zn1007  1.916   .     S
O961   Zn754   1.916   1_655 S
O962   Zn1001  1.915   .     S
O963   Zn489   1.915   1_565 S
O964   Zn750   1.915   1_655 S
O965   Zn1003  1.915   .     S
O966   Zn993   1.916   .     S
O967   Zn497   1.916   1_565 S
O968   Zn1006  1.915   .     S
O969   C253    1.269   1_565 A
O969   Zn1000  1.951   .     S
O970   Zn755   1.915   1_655 S
O971   Zn500   1.916   1_565 S
O972   Zn1005  1.916   .     S
O980   Zn999   1.951   .     S
O990   Zn994   1.951   .     S
O991   C575    1.269   1_655 A
O991   Zn1008  1.951   .     S
O992   Zn996   1.951   .     S
Zn995  O432    1.936   1_565 S
Zn998  O695    1.936   1_655 S
Zn1000 O421    1.936   1_565 S
Zn1008 O706    1.936   1_655 S
