data_str_m3_o1_o16_pcu_sym.114
_audit_creation_date              2020-01-03
_audit_creation_method            'Materials Studio'
_symmetry_space_group_name_H-M    'P1'
_symmetry_Int_Tables_number       1
_symmetry_cell_setting            triclinic
loop_
_symmetry_equiv_pos_as_xyz
  x,y,z
_cell_length_a                    29.5656
_cell_length_b                    31.9093
_cell_length_c                    26.2367
_cell_angle_alpha                 89.9668
_cell_angle_beta                  71.1428
_cell_angle_gamma                 89.9499
loop_
_atom_site_label
_atom_site_type_symbol
_atom_site_fract_x
_atom_site_fract_y
_atom_site_fract_z
_atom_site_U_iso_or_equiv
_atom_site_adp_type
_atom_site_occupancy
C1     C     0.16663   0.24653   0.25011   0.00000  Uiso   1.00
C2     C     0.14522   0.14377   0.49163   0.00000  Uiso   1.00
C3     C     0.15737   0.13975   0.43528   0.00000  Uiso   1.00
C4     C     0.18122   0.13673   0.01547   0.00000  Uiso   1.00
C5     C     0.22944   0.13280   0.48261   0.00000  Uiso   1.00
C6     C     0.23948   0.12254   0.42858   0.00000  Uiso   1.00
C7     C     0.20278   0.12283   0.40620   0.00000  Uiso   1.00
C8     C     0.17128   0.13580   0.07108   0.00000  Uiso   1.00
C9     C     0.25464   0.15102   0.05872   0.00000  Uiso   1.00
C10    C     0.12499   0.15507   0.40969   0.00000  Uiso   1.00
C11    C     0.20057   0.31118   0.20850   0.00000  Uiso   1.00
C12    C     0.14070   0.16295   0.35168   0.00000  Uiso   1.00
C13    C     0.20062   0.02104   0.20732   0.00000  Uiso   1.00
C14    C     0.16668   0.04245   0.24977   0.00000  Uiso   1.00
C15    C     0.13257   0.02122   0.29223   0.00000  Uiso   1.00
C16    C     0.13257   0.31134   0.29135   0.00000  Uiso   1.00
C17    C     0.16660   0.29047   0.25002   0.00000  Uiso   1.00
C18    C     0.31408   0.13210   0.23388   0.00000  Uiso   1.00
C19    C     0.02856   0.13205   0.23405   0.00000  Uiso   1.00
C20    C     0.01914   0.20112   0.26661   0.00000  Uiso   1.00
C21    C     0.30456   0.20110   0.26665   0.00000  Uiso   1.00
C22    C     0.16673   0.08673   0.24976   0.00000  Uiso   1.00
C23    C     0.19256   0.16277   0.14847   0.00000  Uiso   1.00
C24    C     0.26620   0.13908   0.00478   0.00000  Uiso   1.00
C25    C     0.20673   0.15033   0.09198   0.00000  Uiso   1.00
C26    C     0.07886   0.16771   0.44062   0.00000  Uiso   1.00
C27    C     0.06622   0.16962   0.49623   0.00000  Uiso   1.00
C28    C     0.09952   0.15951   0.02140   0.00000  Uiso   1.00
H29    H     0.28285   0.15937   0.07478   0.00000  Uiso   1.00
H30    H     0.10687   0.29379   0.32317   0.00000  Uiso   1.00
H31    H     0.05021   0.10426   0.22134   0.00000  Uiso   1.00
H32    H     0.03327   0.22871   0.28002   0.00000  Uiso   1.00
H33    H     0.27552   0.11472   0.40363   0.00000  Uiso   1.00
H34    H     0.30336   0.13725   0.47985   0.00000  Uiso   1.00
H35    H     0.08972   0.16658   0.06371   0.00000  Uiso   1.00
H36    H     0.21133   0.11163   0.36533   0.00000  Uiso   1.00
H37    H     0.22619   0.29351   0.17675   0.00000  Uiso   1.00
N38    N     0.04760   0.16668   0.25001   0.00000  Uiso   1.00
N39    N     0.28573   0.16665   0.25000   0.00000  Uiso   1.00
O40    O     0.12846   0.22775   0.25000   0.00000  Uiso   1.00
O41    O     0.20490   0.22774   0.25000   0.00000  Uiso   1.00
O42    O     0.10947   0.16666   0.32681   0.00000  Uiso   1.00
O43    O     0.18591   0.16665   0.32681   0.00000  Uiso   1.00
O44    O     0.12843   0.10559   0.24999   0.00000  Uiso   1.00
O45    O     0.20488   0.10558   0.24999   0.00000  Uiso   1.00
O46    O     0.14742   0.16668   0.17319   0.00000  Uiso   1.00
O47    O     0.22387   0.16667   0.17319   0.00000  Uiso   1.00
Zn48   Zn    0.11562   0.16667   0.25000   0.00000  Uiso   1.00
Zn49   Zn    0.21771   0.16666   0.25000   0.00000  Uiso   1.00
C50    C     0.23580   0.04338   0.16028   0.00000  Uiso   1.00
H51    H     0.21657   0.06491   0.14118   0.00000  Uiso   1.00
H52    H     0.26158   0.06150   0.17408   0.00000  Uiso   1.00
H53    H     0.25659   0.02106   0.12896   0.00000  Uiso   1.00
C54    C     0.09730   0.04386   0.33896   0.00000  Uiso   1.00
H55    H     0.07174   0.06214   0.32475   0.00000  Uiso   1.00
H56    H     0.07623   0.02169   0.37031   0.00000  Uiso   1.00
H57    H     0.11664   0.06529   0.35810   0.00000  Uiso   1.00
H58    H     0.29990   0.10439   0.22098   0.00000  Uiso   1.00
H59    H     0.28266   0.22865   0.28011   0.00000  Uiso   1.00
C60    C     0.12956   0.10945   0.10518   0.00000  Uiso   1.00
H61    H     0.14130   0.08873   0.13251   0.00000  Uiso   1.00
H62    H     0.09965   0.12919   0.12971   0.00000  Uiso   1.00
H63    H     0.11572   0.08865   0.07966   0.00000  Uiso   1.00
H64    H     0.05350   0.17876   0.42168   0.00000  Uiso   1.00
H65    H     0.03150   0.18163   0.01967   0.00000  Uiso   1.00
C66    C     0.49996   0.24653   0.25011   0.00000  Uiso   1.00
C67    C     0.47855   0.14377   0.49163   0.00000  Uiso   1.00
C68    C     0.49070   0.13975   0.43528   0.00000  Uiso   1.00
C69    C     0.51455   0.13673   0.01547   0.00000  Uiso   1.00
C70    C     0.56277   0.13280   0.48261   0.00000  Uiso   1.00
C71    C     0.57282   0.12254   0.42858   0.00000  Uiso   1.00
C72    C     0.53611   0.12283   0.40620   0.00000  Uiso   1.00
C73    C     0.50461   0.13580   0.07108   0.00000  Uiso   1.00
C74    C     0.58797   0.15102   0.05872   0.00000  Uiso   1.00
C75    C     0.45833   0.15507   0.40969   0.00000  Uiso   1.00
C76    C     0.53390   0.31118   0.20850   0.00000  Uiso   1.00
C77    C     0.47403   0.16295   0.35168   0.00000  Uiso   1.00
C78    C     0.53396   0.02104   0.20732   0.00000  Uiso   1.00
C79    C     0.50002   0.04245   0.24977   0.00000  Uiso   1.00
C80    C     0.46591   0.02122   0.29223   0.00000  Uiso   1.00
C81    C     0.46590   0.31134   0.29135   0.00000  Uiso   1.00
C82    C     0.49993   0.29047   0.25002   0.00000  Uiso   1.00
C83    C     0.64741   0.13210   0.23388   0.00000  Uiso   1.00
C84    C     0.36189   0.13205   0.23405   0.00000  Uiso   1.00
C85    C     0.35247   0.20112   0.26661   0.00000  Uiso   1.00
C86    C     0.63790   0.20110   0.26665   0.00000  Uiso   1.00
C87    C     0.50006   0.08673   0.24976   0.00000  Uiso   1.00
C88    C     0.52589   0.16277   0.14847   0.00000  Uiso   1.00
C89    C     0.59953   0.13908   0.00478   0.00000  Uiso   1.00
C90    C     0.54007   0.15033   0.09198   0.00000  Uiso   1.00
C91    C     0.41220   0.16771   0.44062   0.00000  Uiso   1.00
C92    C     0.39955   0.16962   0.49623   0.00000  Uiso   1.00
C93    C     0.43285   0.15951   0.02140   0.00000  Uiso   1.00
H94    H     0.61618   0.15937   0.07478   0.00000  Uiso   1.00
H95    H     0.44021   0.29379   0.32317   0.00000  Uiso   1.00
H96    H     0.38355   0.10426   0.22134   0.00000  Uiso   1.00
H97    H     0.36661   0.22871   0.28002   0.00000  Uiso   1.00
H98    H     0.60885   0.11472   0.40363   0.00000  Uiso   1.00
H99    H     0.63669   0.13725   0.47985   0.00000  Uiso   1.00
H100   H     0.42306   0.16658   0.06371   0.00000  Uiso   1.00
H101   H     0.54467   0.11163   0.36533   0.00000  Uiso   1.00
H102   H     0.55952   0.29351   0.17675   0.00000  Uiso   1.00
N103   N     0.38093   0.16668   0.25001   0.00000  Uiso   1.00
N104   N     0.61906   0.16665   0.25000   0.00000  Uiso   1.00
O105   O     0.46179   0.22775   0.25000   0.00000  Uiso   1.00
O106   O     0.53823   0.22774   0.25000   0.00000  Uiso   1.00
O107   O     0.44280   0.16666   0.32681   0.00000  Uiso   1.00
O108   O     0.51924   0.16665   0.32681   0.00000  Uiso   1.00
O109   O     0.46177   0.10559   0.24999   0.00000  Uiso   1.00
O110   O     0.53821   0.10558   0.24999   0.00000  Uiso   1.00
O111   O     0.48076   0.16668   0.17319   0.00000  Uiso   1.00
O112   O     0.55720   0.16667   0.17319   0.00000  Uiso   1.00
Zn113  Zn    0.44896   0.16667   0.25000   0.00000  Uiso   1.00
Zn114  Zn    0.55104   0.16666   0.25000   0.00000  Uiso   1.00
C115   C     0.56913   0.04338   0.16028   0.00000  Uiso   1.00
H116   H     0.54990   0.06491   0.14118   0.00000  Uiso   1.00
H117   H     0.59491   0.06150   0.17408   0.00000  Uiso   1.00
H118   H     0.58992   0.02106   0.12896   0.00000  Uiso   1.00
C119   C     0.43064   0.04386   0.33896   0.00000  Uiso   1.00
H120   H     0.40508   0.06214   0.32475   0.00000  Uiso   1.00
H121   H     0.40956   0.02169   0.37031   0.00000  Uiso   1.00
H122   H     0.44998   0.06529   0.35810   0.00000  Uiso   1.00
H123   H     0.63323   0.10439   0.22098   0.00000  Uiso   1.00
H124   H     0.61599   0.22865   0.28011   0.00000  Uiso   1.00
C125   C     0.46289   0.10945   0.10518   0.00000  Uiso   1.00
H126   H     0.47463   0.08873   0.13251   0.00000  Uiso   1.00
H127   H     0.43299   0.12919   0.12971   0.00000  Uiso   1.00
H128   H     0.44905   0.08865   0.07966   0.00000  Uiso   1.00
H129   H     0.38684   0.17876   0.42168   0.00000  Uiso   1.00
H130   H     0.36483   0.18163   0.01967   0.00000  Uiso   1.00
C131   C     0.83329   0.24653   0.25011   0.00000  Uiso   1.00
C132   C     0.81188   0.14377   0.49163   0.00000  Uiso   1.00
C133   C     0.82403   0.13975   0.43528   0.00000  Uiso   1.00
C134   C     0.84788   0.13673   0.01547   0.00000  Uiso   1.00
C135   C     0.89611   0.13280   0.48261   0.00000  Uiso   1.00
C136   C     0.90615   0.12254   0.42858   0.00000  Uiso   1.00
C137   C     0.86945   0.12283   0.40620   0.00000  Uiso   1.00
C138   C     0.83794   0.13580   0.07108   0.00000  Uiso   1.00
C139   C     0.92131   0.15102   0.05872   0.00000  Uiso   1.00
C140   C     0.79166   0.15507   0.40969   0.00000  Uiso   1.00
C141   C     0.86724   0.31118   0.20850   0.00000  Uiso   1.00
C142   C     0.80736   0.16295   0.35168   0.00000  Uiso   1.00
C143   C     0.86729   0.02104   0.20732   0.00000  Uiso   1.00
C144   C     0.83335   0.04245   0.24977   0.00000  Uiso   1.00
C145   C     0.79924   0.02122   0.29223   0.00000  Uiso   1.00
C146   C     0.79923   0.31134   0.29135   0.00000  Uiso   1.00
C147   C     0.83327   0.29047   0.25002   0.00000  Uiso   1.00
C148   C     0.98075   0.13210   0.23388   0.00000  Uiso   1.00
C149   C     0.69522   0.13205   0.23405   0.00000  Uiso   1.00
C150   C     0.68581   0.20112   0.26661   0.00000  Uiso   1.00
C151   C     0.97123   0.20110   0.26665   0.00000  Uiso   1.00
C152   C     0.83340   0.08673   0.24976   0.00000  Uiso   1.00
C153   C     0.85922   0.16277   0.14847   0.00000  Uiso   1.00
C154   C     0.93286   0.13908   0.00478   0.00000  Uiso   1.00
C155   C     0.87340   0.15033   0.09198   0.00000  Uiso   1.00
C156   C     0.74553   0.16771   0.44062   0.00000  Uiso   1.00
C157   C     0.73289   0.16962   0.49623   0.00000  Uiso   1.00
C158   C     0.76618   0.15951   0.02140   0.00000  Uiso   1.00
H159   H     0.94952   0.15937   0.07478   0.00000  Uiso   1.00
H160   H     0.77354   0.29379   0.32317   0.00000  Uiso   1.00
H161   H     0.71688   0.10426   0.22134   0.00000  Uiso   1.00
H162   H     0.69994   0.22871   0.28002   0.00000  Uiso   1.00
H163   H     0.94219   0.11472   0.40363   0.00000  Uiso   1.00
H164   H     0.97002   0.13725   0.47985   0.00000  Uiso   1.00
H165   H     0.75639   0.16658   0.06371   0.00000  Uiso   1.00
H166   H     0.87800   0.11163   0.36533   0.00000  Uiso   1.00
H167   H     0.89286   0.29351   0.17675   0.00000  Uiso   1.00
N168   N     0.71426   0.16668   0.25001   0.00000  Uiso   1.00
N169   N     0.95239   0.16665   0.25000   0.00000  Uiso   1.00
O170   O     0.79512   0.22775   0.25000   0.00000  Uiso   1.00
O171   O     0.87157   0.22774   0.25000   0.00000  Uiso   1.00
O172   O     0.77613   0.16666   0.32681   0.00000  Uiso   1.00
O173   O     0.85258   0.16665   0.32681   0.00000  Uiso   1.00
O174   O     0.79510   0.10559   0.24999   0.00000  Uiso   1.00
O175   O     0.87154   0.10558   0.24999   0.00000  Uiso   1.00
O176   O     0.81409   0.16668   0.17319   0.00000  Uiso   1.00
O177   O     0.89053   0.16667   0.17319   0.00000  Uiso   1.00
Zn178  Zn    0.78229   0.16667   0.25000   0.00000  Uiso   1.00
Zn179  Zn    0.88438   0.16666   0.25000   0.00000  Uiso   1.00
C180   C     0.90247   0.04338   0.16028   0.00000  Uiso   1.00
H181   H     0.88324   0.06491   0.14118   0.00000  Uiso   1.00
H182   H     0.92825   0.06150   0.17408   0.00000  Uiso   1.00
H183   H     0.92325   0.02106   0.12896   0.00000  Uiso   1.00
C184   C     0.76397   0.04386   0.33896   0.00000  Uiso   1.00
H185   H     0.73841   0.06214   0.32475   0.00000  Uiso   1.00
H186   H     0.74289   0.02169   0.37031   0.00000  Uiso   1.00
H187   H     0.78331   0.06529   0.35810   0.00000  Uiso   1.00
H188   H     0.96656   0.10439   0.22098   0.00000  Uiso   1.00
H189   H     0.94932   0.22865   0.28011   0.00000  Uiso   1.00
C190   C     0.79623   0.10945   0.10518   0.00000  Uiso   1.00
H191   H     0.80797   0.08873   0.13251   0.00000  Uiso   1.00
H192   H     0.76632   0.12919   0.12971   0.00000  Uiso   1.00
H193   H     0.78239   0.08865   0.07966   0.00000  Uiso   1.00
H194   H     0.72017   0.17876   0.42168   0.00000  Uiso   1.00
H195   H     0.69817   0.18163   0.01967   0.00000  Uiso   1.00
C196   C     0.16663   0.57986   0.25011   0.00000  Uiso   1.00
C197   C     0.14522   0.47710   0.49163   0.00000  Uiso   1.00
C198   C     0.15737   0.47309   0.43528   0.00000  Uiso   1.00
C199   C     0.18122   0.47007   0.01547   0.00000  Uiso   1.00
C200   C     0.22944   0.46613   0.48261   0.00000  Uiso   1.00
C201   C     0.23948   0.45587   0.42858   0.00000  Uiso   1.00
C202   C     0.20278   0.45616   0.40620   0.00000  Uiso   1.00
C203   C     0.17128   0.46913   0.07108   0.00000  Uiso   1.00
C204   C     0.25464   0.48435   0.05872   0.00000  Uiso   1.00
C205   C     0.12499   0.48840   0.40969   0.00000  Uiso   1.00
C206   C     0.20057   0.64451   0.20850   0.00000  Uiso   1.00
C207   C     0.14070   0.49629   0.35168   0.00000  Uiso   1.00
C208   C     0.20062   0.35438   0.20732   0.00000  Uiso   1.00
C209   C     0.16668   0.37578   0.24977   0.00000  Uiso   1.00
C210   C     0.13257   0.35455   0.29223   0.00000  Uiso   1.00
C211   C     0.13257   0.64467   0.29135   0.00000  Uiso   1.00
C212   C     0.16660   0.62380   0.25002   0.00000  Uiso   1.00
C213   C     0.31408   0.46543   0.23388   0.00000  Uiso   1.00
C214   C     0.02856   0.46539   0.23405   0.00000  Uiso   1.00
C215   C     0.01914   0.53446   0.26661   0.00000  Uiso   1.00
C216   C     0.30456   0.53443   0.26665   0.00000  Uiso   1.00
C217   C     0.16673   0.42007   0.24976   0.00000  Uiso   1.00
C218   C     0.19256   0.49611   0.14847   0.00000  Uiso   1.00
C219   C     0.26620   0.47241   0.00478   0.00000  Uiso   1.00
C220   C     0.20673   0.48366   0.09198   0.00000  Uiso   1.00
C221   C     0.07886   0.50105   0.44062   0.00000  Uiso   1.00
C222   C     0.06622   0.50295   0.49623   0.00000  Uiso   1.00
C223   C     0.09952   0.49284   0.02140   0.00000  Uiso   1.00
H224   H     0.28285   0.49270   0.07478   0.00000  Uiso   1.00
H225   H     0.10687   0.62713   0.32317   0.00000  Uiso   1.00
H226   H     0.05021   0.43760   0.22134   0.00000  Uiso   1.00
H227   H     0.03327   0.56204   0.28002   0.00000  Uiso   1.00
H228   H     0.27552   0.44805   0.40363   0.00000  Uiso   1.00
H229   H     0.30336   0.47058   0.47985   0.00000  Uiso   1.00
H230   H     0.08972   0.49991   0.06371   0.00000  Uiso   1.00
H231   H     0.21133   0.44496   0.36533   0.00000  Uiso   1.00
H232   H     0.22619   0.62684   0.17675   0.00000  Uiso   1.00
N233   N     0.04760   0.50001   0.25001   0.00000  Uiso   1.00
N234   N     0.28573   0.49998   0.25000   0.00000  Uiso   1.00
O235   O     0.12846   0.56108   0.25000   0.00000  Uiso   1.00
O236   O     0.20490   0.56107   0.25000   0.00000  Uiso   1.00
O237   O     0.10947   0.50000   0.32681   0.00000  Uiso   1.00
O238   O     0.18591   0.49999   0.32681   0.00000  Uiso   1.00
O239   O     0.12843   0.43893   0.24999   0.00000  Uiso   1.00
O240   O     0.20488   0.43892   0.24999   0.00000  Uiso   1.00
O241   O     0.14742   0.50001   0.17319   0.00000  Uiso   1.00
O242   O     0.22387   0.50000   0.17319   0.00000  Uiso   1.00
Zn243  Zn    0.11562   0.50001   0.25000   0.00000  Uiso   1.00
Zn244  Zn    0.21771   0.49999   0.25000   0.00000  Uiso   1.00
C245   C     0.23580   0.37672   0.16028   0.00000  Uiso   1.00
H246   H     0.21657   0.39824   0.14118   0.00000  Uiso   1.00
H247   H     0.26158   0.39483   0.17408   0.00000  Uiso   1.00
H248   H     0.25659   0.35439   0.12896   0.00000  Uiso   1.00
C249   C     0.09730   0.37719   0.33896   0.00000  Uiso   1.00
H250   H     0.07174   0.39547   0.32475   0.00000  Uiso   1.00
H251   H     0.07623   0.35502   0.37031   0.00000  Uiso   1.00
H252   H     0.11664   0.39862   0.35810   0.00000  Uiso   1.00
H253   H     0.29990   0.43773   0.22098   0.00000  Uiso   1.00
H254   H     0.28266   0.56199   0.28011   0.00000  Uiso   1.00
C255   C     0.12956   0.44279   0.10518   0.00000  Uiso   1.00
H256   H     0.14130   0.42206   0.13251   0.00000  Uiso   1.00
H257   H     0.09965   0.46253   0.12971   0.00000  Uiso   1.00
H258   H     0.11572   0.42198   0.07966   0.00000  Uiso   1.00
H259   H     0.05350   0.51209   0.42168   0.00000  Uiso   1.00
H260   H     0.03150   0.51497   0.01967   0.00000  Uiso   1.00
C261   C     0.49996   0.57986   0.25011   0.00000  Uiso   1.00
C262   C     0.47855   0.47710   0.49163   0.00000  Uiso   1.00
C263   C     0.49070   0.47309   0.43528   0.00000  Uiso   1.00
C264   C     0.51455   0.47007   0.01547   0.00000  Uiso   1.00
C265   C     0.56277   0.46613   0.48261   0.00000  Uiso   1.00
C266   C     0.57282   0.45587   0.42858   0.00000  Uiso   1.00
C267   C     0.53611   0.45616   0.40620   0.00000  Uiso   1.00
C268   C     0.50461   0.46913   0.07108   0.00000  Uiso   1.00
C269   C     0.58797   0.48435   0.05872   0.00000  Uiso   1.00
C270   C     0.45833   0.48840   0.40969   0.00000  Uiso   1.00
C271   C     0.53390   0.64451   0.20850   0.00000  Uiso   1.00
C272   C     0.47403   0.49629   0.35168   0.00000  Uiso   1.00
C273   C     0.53396   0.35438   0.20732   0.00000  Uiso   1.00
C274   C     0.50002   0.37578   0.24977   0.00000  Uiso   1.00
C275   C     0.46591   0.35455   0.29223   0.00000  Uiso   1.00
C276   C     0.46590   0.64467   0.29135   0.00000  Uiso   1.00
C277   C     0.49993   0.62380   0.25002   0.00000  Uiso   1.00
C278   C     0.64741   0.46543   0.23388   0.00000  Uiso   1.00
C279   C     0.36189   0.46539   0.23405   0.00000  Uiso   1.00
C280   C     0.35247   0.53446   0.26661   0.00000  Uiso   1.00
C281   C     0.63790   0.53443   0.26665   0.00000  Uiso   1.00
C282   C     0.50006   0.42007   0.24976   0.00000  Uiso   1.00
C283   C     0.52589   0.49611   0.14847   0.00000  Uiso   1.00
C284   C     0.59953   0.47241   0.00478   0.00000  Uiso   1.00
C285   C     0.54007   0.48366   0.09198   0.00000  Uiso   1.00
C286   C     0.41220   0.50105   0.44062   0.00000  Uiso   1.00
C287   C     0.39955   0.50295   0.49623   0.00000  Uiso   1.00
C288   C     0.43285   0.49284   0.02140   0.00000  Uiso   1.00
H289   H     0.61618   0.49270   0.07478   0.00000  Uiso   1.00
H290   H     0.44021   0.62713   0.32317   0.00000  Uiso   1.00
H291   H     0.38355   0.43760   0.22134   0.00000  Uiso   1.00
H292   H     0.36661   0.56204   0.28002   0.00000  Uiso   1.00
H293   H     0.60885   0.44805   0.40363   0.00000  Uiso   1.00
H294   H     0.63669   0.47058   0.47985   0.00000  Uiso   1.00
H295   H     0.42306   0.49991   0.06371   0.00000  Uiso   1.00
H296   H     0.54467   0.44496   0.36533   0.00000  Uiso   1.00
H297   H     0.55952   0.62684   0.17675   0.00000  Uiso   1.00
N298   N     0.38093   0.50001   0.25001   0.00000  Uiso   1.00
N299   N     0.61906   0.49998   0.25000   0.00000  Uiso   1.00
O300   O     0.46179   0.56108   0.25000   0.00000  Uiso   1.00
O301   O     0.53823   0.56107   0.25000   0.00000  Uiso   1.00
O302   O     0.44280   0.50000   0.32681   0.00000  Uiso   1.00
O303   O     0.51924   0.49999   0.32681   0.00000  Uiso   1.00
O304   O     0.46177   0.43893   0.24999   0.00000  Uiso   1.00
O305   O     0.53821   0.43892   0.24999   0.00000  Uiso   1.00
O306   O     0.48076   0.50001   0.17319   0.00000  Uiso   1.00
O307   O     0.55720   0.50000   0.17319   0.00000  Uiso   1.00
Zn308  Zn    0.44896   0.50001   0.25000   0.00000  Uiso   1.00
Zn309  Zn    0.55104   0.49999   0.25000   0.00000  Uiso   1.00
C310   C     0.56913   0.37672   0.16028   0.00000  Uiso   1.00
H311   H     0.54990   0.39824   0.14118   0.00000  Uiso   1.00
H312   H     0.59491   0.39483   0.17408   0.00000  Uiso   1.00
H313   H     0.58992   0.35439   0.12896   0.00000  Uiso   1.00
C314   C     0.43064   0.37719   0.33896   0.00000  Uiso   1.00
H315   H     0.40508   0.39547   0.32475   0.00000  Uiso   1.00
H316   H     0.40956   0.35502   0.37031   0.00000  Uiso   1.00
H317   H     0.44998   0.39862   0.35810   0.00000  Uiso   1.00
H318   H     0.63323   0.43773   0.22098   0.00000  Uiso   1.00
H319   H     0.61599   0.56199   0.28011   0.00000  Uiso   1.00
C320   C     0.46289   0.44279   0.10518   0.00000  Uiso   1.00
H321   H     0.47463   0.42206   0.13251   0.00000  Uiso   1.00
H322   H     0.43299   0.46253   0.12971   0.00000  Uiso   1.00
H323   H     0.44905   0.42198   0.07966   0.00000  Uiso   1.00
H324   H     0.38684   0.51209   0.42168   0.00000  Uiso   1.00
H325   H     0.36483   0.51497   0.01967   0.00000  Uiso   1.00
C326   C     0.83329   0.57986   0.25011   0.00000  Uiso   1.00
C327   C     0.81188   0.47710   0.49163   0.00000  Uiso   1.00
C328   C     0.82403   0.47309   0.43528   0.00000  Uiso   1.00
C329   C     0.84788   0.47007   0.01547   0.00000  Uiso   1.00
C330   C     0.89611   0.46613   0.48261   0.00000  Uiso   1.00
C331   C     0.90615   0.45587   0.42858   0.00000  Uiso   1.00
C332   C     0.86945   0.45616   0.40620   0.00000  Uiso   1.00
C333   C     0.83794   0.46913   0.07108   0.00000  Uiso   1.00
C334   C     0.92131   0.48435   0.05872   0.00000  Uiso   1.00
C335   C     0.79166   0.48840   0.40969   0.00000  Uiso   1.00
C336   C     0.86724   0.64451   0.20850   0.00000  Uiso   1.00
C337   C     0.80736   0.49629   0.35168   0.00000  Uiso   1.00
C338   C     0.86729   0.35438   0.20732   0.00000  Uiso   1.00
C339   C     0.83335   0.37578   0.24977   0.00000  Uiso   1.00
C340   C     0.79924   0.35455   0.29223   0.00000  Uiso   1.00
C341   C     0.79923   0.64467   0.29135   0.00000  Uiso   1.00
C342   C     0.83327   0.62380   0.25002   0.00000  Uiso   1.00
C343   C     0.98075   0.46543   0.23388   0.00000  Uiso   1.00
C344   C     0.69522   0.46539   0.23405   0.00000  Uiso   1.00
C345   C     0.68581   0.53446   0.26661   0.00000  Uiso   1.00
C346   C     0.97123   0.53443   0.26665   0.00000  Uiso   1.00
C347   C     0.83340   0.42007   0.24976   0.00000  Uiso   1.00
C348   C     0.85922   0.49611   0.14847   0.00000  Uiso   1.00
C349   C     0.93286   0.47241   0.00478   0.00000  Uiso   1.00
C350   C     0.87340   0.48366   0.09198   0.00000  Uiso   1.00
C351   C     0.74553   0.50105   0.44062   0.00000  Uiso   1.00
C352   C     0.73289   0.50295   0.49623   0.00000  Uiso   1.00
C353   C     0.76618   0.49284   0.02140   0.00000  Uiso   1.00
H354   H     0.94952   0.49270   0.07478   0.00000  Uiso   1.00
H355   H     0.77354   0.62713   0.32317   0.00000  Uiso   1.00
H356   H     0.71688   0.43760   0.22134   0.00000  Uiso   1.00
H357   H     0.69994   0.56204   0.28002   0.00000  Uiso   1.00
H358   H     0.94219   0.44805   0.40363   0.00000  Uiso   1.00
H359   H     0.97002   0.47058   0.47985   0.00000  Uiso   1.00
H360   H     0.75639   0.49991   0.06371   0.00000  Uiso   1.00
H361   H     0.87800   0.44496   0.36533   0.00000  Uiso   1.00
H362   H     0.89286   0.62684   0.17675   0.00000  Uiso   1.00
N363   N     0.71426   0.50001   0.25001   0.00000  Uiso   1.00
N364   N     0.95239   0.49998   0.25000   0.00000  Uiso   1.00
O365   O     0.79512   0.56108   0.25000   0.00000  Uiso   1.00
O366   O     0.87157   0.56107   0.25000   0.00000  Uiso   1.00
O367   O     0.77613   0.50000   0.32681   0.00000  Uiso   1.00
O368   O     0.85258   0.49999   0.32681   0.00000  Uiso   1.00
O369   O     0.79510   0.43893   0.24999   0.00000  Uiso   1.00
O370   O     0.87154   0.43892   0.24999   0.00000  Uiso   1.00
O371   O     0.81409   0.50001   0.17319   0.00000  Uiso   1.00
O372   O     0.89053   0.50000   0.17319   0.00000  Uiso   1.00
Zn373  Zn    0.78229   0.50001   0.25000   0.00000  Uiso   1.00
Zn374  Zn    0.88438   0.49999   0.25000   0.00000  Uiso   1.00
C375   C     0.90247   0.37672   0.16028   0.00000  Uiso   1.00
H376   H     0.88324   0.39824   0.14118   0.00000  Uiso   1.00
H377   H     0.92825   0.39483   0.17408   0.00000  Uiso   1.00
H378   H     0.92325   0.35439   0.12896   0.00000  Uiso   1.00
C379   C     0.76397   0.37719   0.33896   0.00000  Uiso   1.00
H380   H     0.73841   0.39547   0.32475   0.00000  Uiso   1.00
H381   H     0.74289   0.35502   0.37031   0.00000  Uiso   1.00
H382   H     0.78331   0.39862   0.35810   0.00000  Uiso   1.00
H383   H     0.96656   0.43773   0.22098   0.00000  Uiso   1.00
H384   H     0.94932   0.56199   0.28011   0.00000  Uiso   1.00
C385   C     0.79623   0.44279   0.10518   0.00000  Uiso   1.00
H386   H     0.80797   0.42206   0.13251   0.00000  Uiso   1.00
H387   H     0.76632   0.46253   0.12971   0.00000  Uiso   1.00
H388   H     0.78239   0.42198   0.07966   0.00000  Uiso   1.00
H389   H     0.72017   0.51209   0.42168   0.00000  Uiso   1.00
H390   H     0.69817   0.51497   0.01967   0.00000  Uiso   1.00
C391   C     0.16663   0.91320   0.25011   0.00000  Uiso   1.00
C392   C     0.14522   0.81043   0.49163   0.00000  Uiso   1.00
C393   C     0.15737   0.80642   0.43528   0.00000  Uiso   1.00
C394   C     0.18122   0.80340   0.01547   0.00000  Uiso   1.00
C395   C     0.22944   0.79947   0.48261   0.00000  Uiso   1.00
C396   C     0.23948   0.78921   0.42858   0.00000  Uiso   1.00
C397   C     0.20278   0.78949   0.40620   0.00000  Uiso   1.00
C398   C     0.17128   0.80246   0.07108   0.00000  Uiso   1.00
C399   C     0.25464   0.81768   0.05872   0.00000  Uiso   1.00
C400   C     0.12499   0.82174   0.40969   0.00000  Uiso   1.00
C401   C     0.20057   0.97785   0.20850   0.00000  Uiso   1.00
C402   C     0.14070   0.82962   0.35168   0.00000  Uiso   1.00
C403   C     0.20062   0.68771   0.20732   0.00000  Uiso   1.00
C404   C     0.16668   0.70911   0.24977   0.00000  Uiso   1.00
C405   C     0.13257   0.68789   0.29223   0.00000  Uiso   1.00
C406   C     0.13257   0.97801   0.29135   0.00000  Uiso   1.00
C407   C     0.16660   0.95714   0.25002   0.00000  Uiso   1.00
C408   C     0.31408   0.79876   0.23388   0.00000  Uiso   1.00
C409   C     0.02856   0.79872   0.23405   0.00000  Uiso   1.00
C410   C     0.01914   0.86779   0.26661   0.00000  Uiso   1.00
C411   C     0.30456   0.86776   0.26665   0.00000  Uiso   1.00
C412   C     0.16673   0.75340   0.24976   0.00000  Uiso   1.00
C413   C     0.19256   0.82944   0.14847   0.00000  Uiso   1.00
C414   C     0.26620   0.80574   0.00478   0.00000  Uiso   1.00
C415   C     0.20673   0.81699   0.09198   0.00000  Uiso   1.00
C416   C     0.07886   0.83438   0.44062   0.00000  Uiso   1.00
C417   C     0.06622   0.83629   0.49623   0.00000  Uiso   1.00
C418   C     0.09952   0.82618   0.02140   0.00000  Uiso   1.00
H419   H     0.28285   0.82603   0.07478   0.00000  Uiso   1.00
H420   H     0.10687   0.96046   0.32317   0.00000  Uiso   1.00
H421   H     0.05021   0.77093   0.22134   0.00000  Uiso   1.00
H422   H     0.03327   0.89538   0.28002   0.00000  Uiso   1.00
H423   H     0.27552   0.78138   0.40363   0.00000  Uiso   1.00
H424   H     0.30336   0.80392   0.47985   0.00000  Uiso   1.00
H425   H     0.08972   0.83325   0.06371   0.00000  Uiso   1.00
H426   H     0.21133   0.77830   0.36533   0.00000  Uiso   1.00
H427   H     0.22619   0.96017   0.17675   0.00000  Uiso   1.00
N428   N     0.04760   0.83334   0.25001   0.00000  Uiso   1.00
N429   N     0.28573   0.83331   0.25000   0.00000  Uiso   1.00
O430   O     0.12846   0.89442   0.25000   0.00000  Uiso   1.00
O431   O     0.20490   0.89441   0.25000   0.00000  Uiso   1.00
O432   O     0.10947   0.83333   0.32681   0.00000  Uiso   1.00
O433   O     0.18591   0.83332   0.32681   0.00000  Uiso   1.00
O434   O     0.12843   0.77226   0.24999   0.00000  Uiso   1.00
O435   O     0.20488   0.77225   0.24999   0.00000  Uiso   1.00
O436   O     0.14742   0.83335   0.17319   0.00000  Uiso   1.00
O437   O     0.22387   0.83334   0.17319   0.00000  Uiso   1.00
Zn438  Zn    0.11562   0.83334   0.25000   0.00000  Uiso   1.00
Zn439  Zn    0.21771   0.83333   0.25000   0.00000  Uiso   1.00
C440   C     0.23580   0.71005   0.16028   0.00000  Uiso   1.00
H441   H     0.21657   0.73158   0.14118   0.00000  Uiso   1.00
H442   H     0.26158   0.72817   0.17408   0.00000  Uiso   1.00
H443   H     0.25659   0.68772   0.12896   0.00000  Uiso   1.00
C444   C     0.09730   0.71052   0.33896   0.00000  Uiso   1.00
H445   H     0.07174   0.72880   0.32475   0.00000  Uiso   1.00
H446   H     0.07623   0.68835   0.37031   0.00000  Uiso   1.00
H447   H     0.11664   0.73195   0.35810   0.00000  Uiso   1.00
H448   H     0.29990   0.77106   0.22098   0.00000  Uiso   1.00
H449   H     0.28266   0.89532   0.28011   0.00000  Uiso   1.00
C450   C     0.12956   0.77612   0.10518   0.00000  Uiso   1.00
H451   H     0.14130   0.75539   0.13251   0.00000  Uiso   1.00
H452   H     0.09965   0.79586   0.12971   0.00000  Uiso   1.00
H453   H     0.11572   0.75532   0.07966   0.00000  Uiso   1.00
H454   H     0.05350   0.84543   0.42168   0.00000  Uiso   1.00
H455   H     0.03150   0.84830   0.01967   0.00000  Uiso   1.00
C456   C     0.49996   0.91320   0.25011   0.00000  Uiso   1.00
C457   C     0.47855   0.81043   0.49163   0.00000  Uiso   1.00
C458   C     0.49070   0.80642   0.43528   0.00000  Uiso   1.00
C459   C     0.51455   0.80340   0.01547   0.00000  Uiso   1.00
C460   C     0.56277   0.79947   0.48261   0.00000  Uiso   1.00
C461   C     0.57282   0.78921   0.42858   0.00000  Uiso   1.00
C462   C     0.53611   0.78949   0.40620   0.00000  Uiso   1.00
C463   C     0.50461   0.80246   0.07108   0.00000  Uiso   1.00
C464   C     0.58797   0.81768   0.05872   0.00000  Uiso   1.00
C465   C     0.45833   0.82174   0.40969   0.00000  Uiso   1.00
C466   C     0.53390   0.97785   0.20850   0.00000  Uiso   1.00
C467   C     0.47403   0.82962   0.35168   0.00000  Uiso   1.00
C468   C     0.53396   0.68771   0.20732   0.00000  Uiso   1.00
C469   C     0.50002   0.70911   0.24977   0.00000  Uiso   1.00
C470   C     0.46591   0.68789   0.29223   0.00000  Uiso   1.00
C471   C     0.46590   0.97801   0.29135   0.00000  Uiso   1.00
C472   C     0.49993   0.95714   0.25002   0.00000  Uiso   1.00
C473   C     0.64741   0.79876   0.23388   0.00000  Uiso   1.00
C474   C     0.36189   0.79872   0.23405   0.00000  Uiso   1.00
C475   C     0.35247   0.86779   0.26661   0.00000  Uiso   1.00
C476   C     0.63790   0.86776   0.26665   0.00000  Uiso   1.00
C477   C     0.50006   0.75340   0.24976   0.00000  Uiso   1.00
C478   C     0.52589   0.82944   0.14847   0.00000  Uiso   1.00
C479   C     0.59953   0.80574   0.00478   0.00000  Uiso   1.00
C480   C     0.54007   0.81699   0.09198   0.00000  Uiso   1.00
C481   C     0.41220   0.83438   0.44062   0.00000  Uiso   1.00
C482   C     0.39955   0.83629   0.49623   0.00000  Uiso   1.00
C483   C     0.43285   0.82618   0.02140   0.00000  Uiso   1.00
H484   H     0.61618   0.82603   0.07478   0.00000  Uiso   1.00
H485   H     0.44021   0.96046   0.32317   0.00000  Uiso   1.00
H486   H     0.38355   0.77093   0.22134   0.00000  Uiso   1.00
H487   H     0.36661   0.89538   0.28002   0.00000  Uiso   1.00
H488   H     0.60885   0.78138   0.40363   0.00000  Uiso   1.00
H489   H     0.63669   0.80392   0.47985   0.00000  Uiso   1.00
H490   H     0.42306   0.83325   0.06371   0.00000  Uiso   1.00
H491   H     0.54467   0.77830   0.36533   0.00000  Uiso   1.00
H492   H     0.55952   0.96017   0.17675   0.00000  Uiso   1.00
N493   N     0.38093   0.83334   0.25001   0.00000  Uiso   1.00
N494   N     0.61906   0.83331   0.25000   0.00000  Uiso   1.00
O495   O     0.46179   0.89442   0.25000   0.00000  Uiso   1.00
O496   O     0.53823   0.89441   0.25000   0.00000  Uiso   1.00
O497   O     0.44280   0.83333   0.32681   0.00000  Uiso   1.00
O498   O     0.51924   0.83332   0.32681   0.00000  Uiso   1.00
O499   O     0.46177   0.77226   0.24999   0.00000  Uiso   1.00
O500   O     0.53821   0.77225   0.24999   0.00000  Uiso   1.00
O501   O     0.48076   0.83335   0.17319   0.00000  Uiso   1.00
O502   O     0.55720   0.83334   0.17319   0.00000  Uiso   1.00
Zn503  Zn    0.44896   0.83334   0.25000   0.00000  Uiso   1.00
Zn504  Zn    0.55104   0.83333   0.25000   0.00000  Uiso   1.00
C505   C     0.56913   0.71005   0.16028   0.00000  Uiso   1.00
H506   H     0.54990   0.73158   0.14118   0.00000  Uiso   1.00
H507   H     0.59491   0.72817   0.17408   0.00000  Uiso   1.00
H508   H     0.58992   0.68772   0.12896   0.00000  Uiso   1.00
C509   C     0.43064   0.71052   0.33896   0.00000  Uiso   1.00
H510   H     0.40508   0.72880   0.32475   0.00000  Uiso   1.00
H511   H     0.40956   0.68835   0.37031   0.00000  Uiso   1.00
H512   H     0.44998   0.73195   0.35810   0.00000  Uiso   1.00
H513   H     0.63323   0.77106   0.22098   0.00000  Uiso   1.00
H514   H     0.61599   0.89532   0.28011   0.00000  Uiso   1.00
C515   C     0.46289   0.77612   0.10518   0.00000  Uiso   1.00
H516   H     0.47463   0.75539   0.13251   0.00000  Uiso   1.00
H517   H     0.43299   0.79586   0.12971   0.00000  Uiso   1.00
H518   H     0.44905   0.75532   0.07966   0.00000  Uiso   1.00
H519   H     0.38684   0.84543   0.42168   0.00000  Uiso   1.00
H520   H     0.36483   0.84830   0.01967   0.00000  Uiso   1.00
C521   C     0.83329   0.91320   0.25011   0.00000  Uiso   1.00
C522   C     0.81188   0.81043   0.49163   0.00000  Uiso   1.00
C523   C     0.82403   0.80642   0.43528   0.00000  Uiso   1.00
C524   C     0.84788   0.80340   0.01547   0.00000  Uiso   1.00
C525   C     0.89611   0.79947   0.48261   0.00000  Uiso   1.00
C526   C     0.90615   0.78921   0.42858   0.00000  Uiso   1.00
C527   C     0.86945   0.78949   0.40620   0.00000  Uiso   1.00
C528   C     0.83794   0.80246   0.07108   0.00000  Uiso   1.00
C529   C     0.92131   0.81768   0.05872   0.00000  Uiso   1.00
C530   C     0.79166   0.82174   0.40969   0.00000  Uiso   1.00
C531   C     0.86724   0.97785   0.20850   0.00000  Uiso   1.00
C532   C     0.80736   0.82962   0.35168   0.00000  Uiso   1.00
C533   C     0.86729   0.68771   0.20732   0.00000  Uiso   1.00
C534   C     0.83335   0.70911   0.24977   0.00000  Uiso   1.00
C535   C     0.79924   0.68789   0.29223   0.00000  Uiso   1.00
C536   C     0.79923   0.97801   0.29135   0.00000  Uiso   1.00
C537   C     0.83327   0.95714   0.25002   0.00000  Uiso   1.00
C538   C     0.98075   0.79876   0.23388   0.00000  Uiso   1.00
C539   C     0.69522   0.79872   0.23405   0.00000  Uiso   1.00
C540   C     0.68581   0.86779   0.26661   0.00000  Uiso   1.00
C541   C     0.97123   0.86776   0.26665   0.00000  Uiso   1.00
C542   C     0.83340   0.75340   0.24976   0.00000  Uiso   1.00
C543   C     0.85922   0.82944   0.14847   0.00000  Uiso   1.00
C544   C     0.93286   0.80574   0.00478   0.00000  Uiso   1.00
C545   C     0.87340   0.81699   0.09198   0.00000  Uiso   1.00
C546   C     0.74553   0.83438   0.44062   0.00000  Uiso   1.00
C547   C     0.73289   0.83629   0.49623   0.00000  Uiso   1.00
C548   C     0.76618   0.82618   0.02140   0.00000  Uiso   1.00
H549   H     0.94952   0.82603   0.07478   0.00000  Uiso   1.00
H550   H     0.77354   0.96046   0.32317   0.00000  Uiso   1.00
H551   H     0.71688   0.77093   0.22134   0.00000  Uiso   1.00
H552   H     0.69994   0.89538   0.28002   0.00000  Uiso   1.00
H553   H     0.94219   0.78138   0.40363   0.00000  Uiso   1.00
H554   H     0.97002   0.80392   0.47985   0.00000  Uiso   1.00
H555   H     0.75639   0.83325   0.06371   0.00000  Uiso   1.00
H556   H     0.87800   0.77830   0.36533   0.00000  Uiso   1.00
H557   H     0.89286   0.96017   0.17675   0.00000  Uiso   1.00
N558   N     0.71426   0.83334   0.25001   0.00000  Uiso   1.00
N559   N     0.95239   0.83331   0.25000   0.00000  Uiso   1.00
O560   O     0.79512   0.89442   0.25000   0.00000  Uiso   1.00
O561   O     0.87157   0.89441   0.25000   0.00000  Uiso   1.00
O562   O     0.77613   0.83333   0.32681   0.00000  Uiso   1.00
O563   O     0.85258   0.83332   0.32681   0.00000  Uiso   1.00
O564   O     0.79510   0.77226   0.24999   0.00000  Uiso   1.00
O565   O     0.87154   0.77225   0.24999   0.00000  Uiso   1.00
O566   O     0.81409   0.83335   0.17319   0.00000  Uiso   1.00
O567   O     0.89053   0.83334   0.17319   0.00000  Uiso   1.00
Zn568  Zn    0.78229   0.83334   0.25000   0.00000  Uiso   1.00
Zn569  Zn    0.88438   0.83333   0.25000   0.00000  Uiso   1.00
C570   C     0.90247   0.71005   0.16028   0.00000  Uiso   1.00
H571   H     0.88324   0.73158   0.14118   0.00000  Uiso   1.00
H572   H     0.92825   0.72817   0.17408   0.00000  Uiso   1.00
H573   H     0.92325   0.68772   0.12896   0.00000  Uiso   1.00
C574   C     0.76397   0.71052   0.33896   0.00000  Uiso   1.00
H575   H     0.73841   0.72880   0.32475   0.00000  Uiso   1.00
H576   H     0.74289   0.68835   0.37031   0.00000  Uiso   1.00
H577   H     0.78331   0.73195   0.35810   0.00000  Uiso   1.00
H578   H     0.96656   0.77106   0.22098   0.00000  Uiso   1.00
H579   H     0.94932   0.89532   0.28011   0.00000  Uiso   1.00
C580   C     0.79623   0.77612   0.10518   0.00000  Uiso   1.00
H581   H     0.80797   0.75539   0.13251   0.00000  Uiso   1.00
H582   H     0.76632   0.79586   0.12971   0.00000  Uiso   1.00
H583   H     0.78239   0.75532   0.07966   0.00000  Uiso   1.00
H584   H     0.72017   0.84543   0.42168   0.00000  Uiso   1.00
H585   H     0.69817   0.84830   0.01967   0.00000  Uiso   1.00
C586   C     0.16663   0.24653   0.75011   0.00000  Uiso   1.00
C587   C     0.14522   0.14377   0.99163   0.00000  Uiso   1.00
C588   C     0.15737   0.13975   0.93528   0.00000  Uiso   1.00
C589   C     0.18122   0.13673   0.51547   0.00000  Uiso   1.00
C590   C     0.22944   0.13280   0.98261   0.00000  Uiso   1.00
C591   C     0.23948   0.12254   0.92858   0.00000  Uiso   1.00
C592   C     0.20278   0.12283   0.90620   0.00000  Uiso   1.00
C593   C     0.17128   0.13580   0.57108   0.00000  Uiso   1.00
C594   C     0.25464   0.15102   0.55872   0.00000  Uiso   1.00
C595   C     0.12499   0.15507   0.90969   0.00000  Uiso   1.00
C596   C     0.20057   0.31118   0.70850   0.00000  Uiso   1.00
C597   C     0.14070   0.16295   0.85168   0.00000  Uiso   1.00
C598   C     0.20062   0.02104   0.70732   0.00000  Uiso   1.00
C599   C     0.16668   0.04245   0.74977   0.00000  Uiso   1.00
C600   C     0.13257   0.02122   0.79223   0.00000  Uiso   1.00
C601   C     0.13257   0.31134   0.79135   0.00000  Uiso   1.00
C602   C     0.16660   0.29047   0.75002   0.00000  Uiso   1.00
C603   C     0.31408   0.13210   0.73388   0.00000  Uiso   1.00
C604   C     0.02856   0.13205   0.73405   0.00000  Uiso   1.00
C605   C     0.01914   0.20112   0.76661   0.00000  Uiso   1.00
C606   C     0.30456   0.20110   0.76665   0.00000  Uiso   1.00
C607   C     0.16673   0.08673   0.74976   0.00000  Uiso   1.00
C608   C     0.19256   0.16277   0.64847   0.00000  Uiso   1.00
C609   C     0.26620   0.13908   0.50478   0.00000  Uiso   1.00
C610   C     0.20673   0.15033   0.59198   0.00000  Uiso   1.00
C611   C     0.07886   0.16771   0.94062   0.00000  Uiso   1.00
C612   C     0.06622   0.16962   0.99623   0.00000  Uiso   1.00
C613   C     0.09952   0.15951   0.52140   0.00000  Uiso   1.00
H614   H     0.28285   0.15937   0.57478   0.00000  Uiso   1.00
H615   H     0.10687   0.29379   0.82317   0.00000  Uiso   1.00
H616   H     0.05021   0.10426   0.72134   0.00000  Uiso   1.00
H617   H     0.03327   0.22871   0.78002   0.00000  Uiso   1.00
H618   H     0.27552   0.11472   0.90363   0.00000  Uiso   1.00
H619   H     0.30336   0.13725   0.97985   0.00000  Uiso   1.00
H620   H     0.08972   0.16658   0.56371   0.00000  Uiso   1.00
H621   H     0.21133   0.11163   0.86533   0.00000  Uiso   1.00
H622   H     0.22619   0.29351   0.67675   0.00000  Uiso   1.00
N623   N     0.04760   0.16668   0.75001   0.00000  Uiso   1.00
N624   N     0.28573   0.16665   0.75000   0.00000  Uiso   1.00
O625   O     0.12846   0.22775   0.75000   0.00000  Uiso   1.00
O626   O     0.20490   0.22774   0.75000   0.00000  Uiso   1.00
O627   O     0.10947   0.16666   0.82681   0.00000  Uiso   1.00
O628   O     0.18591   0.16665   0.82681   0.00000  Uiso   1.00
O629   O     0.12843   0.10559   0.74999   0.00000  Uiso   1.00
O630   O     0.20488   0.10558   0.74999   0.00000  Uiso   1.00
O631   O     0.14742   0.16668   0.67319   0.00000  Uiso   1.00
O632   O     0.22387   0.16667   0.67319   0.00000  Uiso   1.00
Zn633  Zn    0.11562   0.16667   0.75000   0.00000  Uiso   1.00
Zn634  Zn    0.21771   0.16666   0.75000   0.00000  Uiso   1.00
C635   C     0.23580   0.04338   0.66028   0.00000  Uiso   1.00
H636   H     0.21657   0.06491   0.64118   0.00000  Uiso   1.00
H637   H     0.26158   0.06150   0.67408   0.00000  Uiso   1.00
H638   H     0.25659   0.02106   0.62896   0.00000  Uiso   1.00
C639   C     0.09730   0.04386   0.83896   0.00000  Uiso   1.00
H640   H     0.07174   0.06214   0.82475   0.00000  Uiso   1.00
H641   H     0.07623   0.02169   0.87031   0.00000  Uiso   1.00
H642   H     0.11664   0.06529   0.85810   0.00000  Uiso   1.00
H643   H     0.29990   0.10439   0.72098   0.00000  Uiso   1.00
H644   H     0.28266   0.22865   0.78011   0.00000  Uiso   1.00
C645   C     0.12956   0.10945   0.60518   0.00000  Uiso   1.00
H646   H     0.14130   0.08873   0.63251   0.00000  Uiso   1.00
H647   H     0.09965   0.12919   0.62971   0.00000  Uiso   1.00
H648   H     0.11572   0.08865   0.57966   0.00000  Uiso   1.00
H649   H     0.05350   0.17876   0.92168   0.00000  Uiso   1.00
H650   H     0.03150   0.18163   0.51967   0.00000  Uiso   1.00
C651   C     0.49996   0.24653   0.75011   0.00000  Uiso   1.00
C652   C     0.47855   0.14377   0.99163   0.00000  Uiso   1.00
C653   C     0.49070   0.13975   0.93528   0.00000  Uiso   1.00
C654   C     0.51455   0.13673   0.51547   0.00000  Uiso   1.00
C655   C     0.56277   0.13280   0.98261   0.00000  Uiso   1.00
C656   C     0.57282   0.12254   0.92858   0.00000  Uiso   1.00
C657   C     0.53611   0.12283   0.90620   0.00000  Uiso   1.00
C658   C     0.50461   0.13580   0.57108   0.00000  Uiso   1.00
C659   C     0.58797   0.15102   0.55872   0.00000  Uiso   1.00
C660   C     0.45833   0.15507   0.90969   0.00000  Uiso   1.00
C661   C     0.53390   0.31118   0.70850   0.00000  Uiso   1.00
C662   C     0.47403   0.16295   0.85168   0.00000  Uiso   1.00
C663   C     0.53396   0.02104   0.70732   0.00000  Uiso   1.00
C664   C     0.50002   0.04245   0.74977   0.00000  Uiso   1.00
C665   C     0.46591   0.02122   0.79223   0.00000  Uiso   1.00
C666   C     0.46590   0.31134   0.79135   0.00000  Uiso   1.00
C667   C     0.49993   0.29047   0.75002   0.00000  Uiso   1.00
C668   C     0.64741   0.13210   0.73388   0.00000  Uiso   1.00
C669   C     0.36189   0.13205   0.73405   0.00000  Uiso   1.00
C670   C     0.35247   0.20112   0.76661   0.00000  Uiso   1.00
C671   C     0.63790   0.20110   0.76665   0.00000  Uiso   1.00
C672   C     0.50006   0.08673   0.74976   0.00000  Uiso   1.00
C673   C     0.52589   0.16277   0.64847   0.00000  Uiso   1.00
C674   C     0.59953   0.13908   0.50478   0.00000  Uiso   1.00
C675   C     0.54007   0.15033   0.59198   0.00000  Uiso   1.00
C676   C     0.41220   0.16771   0.94062   0.00000  Uiso   1.00
C677   C     0.39955   0.16962   0.99623   0.00000  Uiso   1.00
C678   C     0.43285   0.15951   0.52140   0.00000  Uiso   1.00
H679   H     0.61618   0.15937   0.57478   0.00000  Uiso   1.00
H680   H     0.44021   0.29379   0.82317   0.00000  Uiso   1.00
H681   H     0.38355   0.10426   0.72134   0.00000  Uiso   1.00
H682   H     0.36661   0.22871   0.78002   0.00000  Uiso   1.00
H683   H     0.60885   0.11472   0.90363   0.00000  Uiso   1.00
H684   H     0.63669   0.13725   0.97985   0.00000  Uiso   1.00
H685   H     0.42306   0.16658   0.56371   0.00000  Uiso   1.00
H686   H     0.54467   0.11163   0.86533   0.00000  Uiso   1.00
H687   H     0.55952   0.29351   0.67675   0.00000  Uiso   1.00
N688   N     0.38093   0.16668   0.75001   0.00000  Uiso   1.00
N689   N     0.61906   0.16665   0.75000   0.00000  Uiso   1.00
O690   O     0.46179   0.22775   0.75000   0.00000  Uiso   1.00
O691   O     0.53823   0.22774   0.75000   0.00000  Uiso   1.00
O692   O     0.44280   0.16666   0.82681   0.00000  Uiso   1.00
O693   O     0.51924   0.16665   0.82681   0.00000  Uiso   1.00
O694   O     0.46177   0.10559   0.74999   0.00000  Uiso   1.00
O695   O     0.53821   0.10558   0.74999   0.00000  Uiso   1.00
O696   O     0.48076   0.16668   0.67319   0.00000  Uiso   1.00
O697   O     0.55720   0.16667   0.67319   0.00000  Uiso   1.00
Zn698  Zn    0.44896   0.16667   0.75000   0.00000  Uiso   1.00
Zn699  Zn    0.55104   0.16666   0.75000   0.00000  Uiso   1.00
C700   C     0.56913   0.04338   0.66028   0.00000  Uiso   1.00
H701   H     0.54990   0.06491   0.64118   0.00000  Uiso   1.00
H702   H     0.59491   0.06150   0.67408   0.00000  Uiso   1.00
H703   H     0.58992   0.02106   0.62896   0.00000  Uiso   1.00
C704   C     0.43064   0.04386   0.83896   0.00000  Uiso   1.00
H705   H     0.40508   0.06214   0.82475   0.00000  Uiso   1.00
H706   H     0.40956   0.02169   0.87031   0.00000  Uiso   1.00
H707   H     0.44998   0.06529   0.85810   0.00000  Uiso   1.00
H708   H     0.63323   0.10439   0.72098   0.00000  Uiso   1.00
H709   H     0.61599   0.22865   0.78011   0.00000  Uiso   1.00
C710   C     0.46289   0.10945   0.60518   0.00000  Uiso   1.00
H711   H     0.47463   0.08873   0.63251   0.00000  Uiso   1.00
H712   H     0.43299   0.12919   0.62971   0.00000  Uiso   1.00
H713   H     0.44905   0.08865   0.57966   0.00000  Uiso   1.00
H714   H     0.38684   0.17876   0.92168   0.00000  Uiso   1.00
H715   H     0.36483   0.18163   0.51967   0.00000  Uiso   1.00
C716   C     0.83329   0.24653   0.75011   0.00000  Uiso   1.00
C717   C     0.81188   0.14377   0.99163   0.00000  Uiso   1.00
C718   C     0.82403   0.13975   0.93528   0.00000  Uiso   1.00
C719   C     0.84788   0.13673   0.51547   0.00000  Uiso   1.00
C720   C     0.89611   0.13280   0.98261   0.00000  Uiso   1.00
C721   C     0.90615   0.12254   0.92858   0.00000  Uiso   1.00
C722   C     0.86945   0.12283   0.90620   0.00000  Uiso   1.00
C723   C     0.83794   0.13580   0.57108   0.00000  Uiso   1.00
C724   C     0.92131   0.15102   0.55872   0.00000  Uiso   1.00
C725   C     0.79166   0.15507   0.90969   0.00000  Uiso   1.00
C726   C     0.86724   0.31118   0.70850   0.00000  Uiso   1.00
C727   C     0.80736   0.16295   0.85168   0.00000  Uiso   1.00
C728   C     0.86729   0.02104   0.70732   0.00000  Uiso   1.00
C729   C     0.83335   0.04245   0.74977   0.00000  Uiso   1.00
C730   C     0.79924   0.02122   0.79223   0.00000  Uiso   1.00
C731   C     0.79923   0.31134   0.79135   0.00000  Uiso   1.00
C732   C     0.83327   0.29047   0.75002   0.00000  Uiso   1.00
C733   C     0.98075   0.13210   0.73388   0.00000  Uiso   1.00
C734   C     0.69522   0.13205   0.73405   0.00000  Uiso   1.00
C735   C     0.68581   0.20112   0.76661   0.00000  Uiso   1.00
C736   C     0.97123   0.20110   0.76665   0.00000  Uiso   1.00
C737   C     0.83340   0.08673   0.74976   0.00000  Uiso   1.00
C738   C     0.85922   0.16277   0.64847   0.00000  Uiso   1.00
C739   C     0.93286   0.13908   0.50478   0.00000  Uiso   1.00
C740   C     0.87340   0.15033   0.59198   0.00000  Uiso   1.00
C741   C     0.74553   0.16771   0.94062   0.00000  Uiso   1.00
C742   C     0.73289   0.16962   0.99623   0.00000  Uiso   1.00
C743   C     0.76618   0.15951   0.52140   0.00000  Uiso   1.00
H744   H     0.94952   0.15937   0.57478   0.00000  Uiso   1.00
H745   H     0.77354   0.29379   0.82317   0.00000  Uiso   1.00
H746   H     0.71688   0.10426   0.72134   0.00000  Uiso   1.00
H747   H     0.69994   0.22871   0.78002   0.00000  Uiso   1.00
H748   H     0.94219   0.11472   0.90363   0.00000  Uiso   1.00
H749   H     0.97002   0.13725   0.97985   0.00000  Uiso   1.00
H750   H     0.75639   0.16658   0.56371   0.00000  Uiso   1.00
H751   H     0.87800   0.11163   0.86533   0.00000  Uiso   1.00
H752   H     0.89286   0.29351   0.67675   0.00000  Uiso   1.00
N753   N     0.71426   0.16668   0.75001   0.00000  Uiso   1.00
N754   N     0.95239   0.16665   0.75000   0.00000  Uiso   1.00
O755   O     0.79512   0.22775   0.75000   0.00000  Uiso   1.00
O756   O     0.87157   0.22774   0.75000   0.00000  Uiso   1.00
O757   O     0.77613   0.16666   0.82681   0.00000  Uiso   1.00
O758   O     0.85258   0.16665   0.82681   0.00000  Uiso   1.00
O759   O     0.79510   0.10559   0.74999   0.00000  Uiso   1.00
O760   O     0.87154   0.10558   0.74999   0.00000  Uiso   1.00
O761   O     0.81409   0.16668   0.67319   0.00000  Uiso   1.00
O762   O     0.89053   0.16667   0.67319   0.00000  Uiso   1.00
Zn763  Zn    0.78229   0.16667   0.75000   0.00000  Uiso   1.00
Zn764  Zn    0.88438   0.16666   0.75000   0.00000  Uiso   1.00
C765   C     0.90247   0.04338   0.66028   0.00000  Uiso   1.00
H766   H     0.88324   0.06491   0.64118   0.00000  Uiso   1.00
H767   H     0.92825   0.06150   0.67408   0.00000  Uiso   1.00
H768   H     0.92325   0.02106   0.62896   0.00000  Uiso   1.00
C769   C     0.76397   0.04386   0.83896   0.00000  Uiso   1.00
H770   H     0.73841   0.06214   0.82475   0.00000  Uiso   1.00
H771   H     0.74289   0.02169   0.87031   0.00000  Uiso   1.00
H772   H     0.78331   0.06529   0.85810   0.00000  Uiso   1.00
H773   H     0.96656   0.10439   0.72098   0.00000  Uiso   1.00
H774   H     0.94932   0.22865   0.78011   0.00000  Uiso   1.00
C775   C     0.79623   0.10945   0.60518   0.00000  Uiso   1.00
H776   H     0.80797   0.08873   0.63251   0.00000  Uiso   1.00
H777   H     0.76632   0.12919   0.62971   0.00000  Uiso   1.00
H778   H     0.78239   0.08865   0.57966   0.00000  Uiso   1.00
H779   H     0.72017   0.17876   0.92168   0.00000  Uiso   1.00
H780   H     0.69817   0.18163   0.51967   0.00000  Uiso   1.00
C781   C     0.16663   0.57986   0.75011   0.00000  Uiso   1.00
C782   C     0.14522   0.47710   0.99163   0.00000  Uiso   1.00
C783   C     0.15737   0.47309   0.93528   0.00000  Uiso   1.00
C784   C     0.18122   0.47007   0.51547   0.00000  Uiso   1.00
C785   C     0.22944   0.46613   0.98261   0.00000  Uiso   1.00
C786   C     0.23948   0.45587   0.92858   0.00000  Uiso   1.00
C787   C     0.20278   0.45616   0.90620   0.00000  Uiso   1.00
C788   C     0.17128   0.46913   0.57108   0.00000  Uiso   1.00
C789   C     0.25464   0.48435   0.55872   0.00000  Uiso   1.00
C790   C     0.12499   0.48840   0.90969   0.00000  Uiso   1.00
C791   C     0.20057   0.64451   0.70850   0.00000  Uiso   1.00
C792   C     0.14070   0.49629   0.85168   0.00000  Uiso   1.00
C793   C     0.20062   0.35438   0.70732   0.00000  Uiso   1.00
C794   C     0.16668   0.37578   0.74977   0.00000  Uiso   1.00
C795   C     0.13257   0.35455   0.79223   0.00000  Uiso   1.00
C796   C     0.13257   0.64467   0.79135   0.00000  Uiso   1.00
C797   C     0.16660   0.62380   0.75002   0.00000  Uiso   1.00
C798   C     0.31408   0.46543   0.73388   0.00000  Uiso   1.00
C799   C     0.02856   0.46539   0.73405   0.00000  Uiso   1.00
C800   C     0.01914   0.53446   0.76661   0.00000  Uiso   1.00
C801   C     0.30456   0.53443   0.76665   0.00000  Uiso   1.00
C802   C     0.16673   0.42007   0.74976   0.00000  Uiso   1.00
C803   C     0.19256   0.49611   0.64847   0.00000  Uiso   1.00
C804   C     0.26620   0.47241   0.50478   0.00000  Uiso   1.00
C805   C     0.20673   0.48366   0.59198   0.00000  Uiso   1.00
C806   C     0.07886   0.50105   0.94062   0.00000  Uiso   1.00
C807   C     0.06622   0.50295   0.99623   0.00000  Uiso   1.00
C808   C     0.09952   0.49284   0.52140   0.00000  Uiso   1.00
H809   H     0.28285   0.49270   0.57478   0.00000  Uiso   1.00
H810   H     0.10687   0.62713   0.82317   0.00000  Uiso   1.00
H811   H     0.05021   0.43760   0.72134   0.00000  Uiso   1.00
H812   H     0.03327   0.56204   0.78002   0.00000  Uiso   1.00
H813   H     0.27552   0.44805   0.90363   0.00000  Uiso   1.00
H814   H     0.30336   0.47058   0.97985   0.00000  Uiso   1.00
H815   H     0.08972   0.49991   0.56371   0.00000  Uiso   1.00
H816   H     0.21133   0.44496   0.86533   0.00000  Uiso   1.00
H817   H     0.22619   0.62684   0.67675   0.00000  Uiso   1.00
N818   N     0.04760   0.50001   0.75001   0.00000  Uiso   1.00
N819   N     0.28573   0.49998   0.75000   0.00000  Uiso   1.00
O820   O     0.12846   0.56108   0.75000   0.00000  Uiso   1.00
O821   O     0.20490   0.56107   0.75000   0.00000  Uiso   1.00
O822   O     0.10947   0.50000   0.82681   0.00000  Uiso   1.00
O823   O     0.18591   0.49999   0.82681   0.00000  Uiso   1.00
O824   O     0.12843   0.43893   0.74999   0.00000  Uiso   1.00
O825   O     0.20488   0.43892   0.74999   0.00000  Uiso   1.00
O826   O     0.14742   0.50001   0.67319   0.00000  Uiso   1.00
O827   O     0.22387   0.50000   0.67319   0.00000  Uiso   1.00
Zn828  Zn    0.11562   0.50001   0.75000   0.00000  Uiso   1.00
Zn829  Zn    0.21771   0.49999   0.75000   0.00000  Uiso   1.00
C830   C     0.23580   0.37672   0.66028   0.00000  Uiso   1.00
H831   H     0.21657   0.39824   0.64118   0.00000  Uiso   1.00
H832   H     0.26158   0.39483   0.67408   0.00000  Uiso   1.00
H833   H     0.25659   0.35439   0.62896   0.00000  Uiso   1.00
C834   C     0.09730   0.37719   0.83896   0.00000  Uiso   1.00
H835   H     0.07174   0.39547   0.82475   0.00000  Uiso   1.00
H836   H     0.07623   0.35502   0.87031   0.00000  Uiso   1.00
H837   H     0.11664   0.39862   0.85810   0.00000  Uiso   1.00
H838   H     0.29990   0.43773   0.72098   0.00000  Uiso   1.00
H839   H     0.28266   0.56199   0.78011   0.00000  Uiso   1.00
C840   C     0.12956   0.44279   0.60518   0.00000  Uiso   1.00
H841   H     0.14130   0.42206   0.63251   0.00000  Uiso   1.00
H842   H     0.09965   0.46253   0.62971   0.00000  Uiso   1.00
H843   H     0.11572   0.42198   0.57966   0.00000  Uiso   1.00
H844   H     0.05350   0.51209   0.92168   0.00000  Uiso   1.00
H845   H     0.03150   0.51497   0.51967   0.00000  Uiso   1.00
C846   C     0.49996   0.57986   0.75011   0.00000  Uiso   1.00
C847   C     0.47855   0.47710   0.99163   0.00000  Uiso   1.00
C848   C     0.49070   0.47309   0.93528   0.00000  Uiso   1.00
C849   C     0.51455   0.47007   0.51547   0.00000  Uiso   1.00
C850   C     0.56277   0.46613   0.98261   0.00000  Uiso   1.00
C851   C     0.57282   0.45587   0.92858   0.00000  Uiso   1.00
C852   C     0.53611   0.45616   0.90620   0.00000  Uiso   1.00
C853   C     0.50461   0.46913   0.57108   0.00000  Uiso   1.00
C854   C     0.58797   0.48435   0.55872   0.00000  Uiso   1.00
C855   C     0.45833   0.48840   0.90969   0.00000  Uiso   1.00
C856   C     0.53390   0.64451   0.70850   0.00000  Uiso   1.00
C857   C     0.47403   0.49629   0.85168   0.00000  Uiso   1.00
C858   C     0.53396   0.35438   0.70732   0.00000  Uiso   1.00
C859   C     0.50002   0.37578   0.74977   0.00000  Uiso   1.00
C860   C     0.46591   0.35455   0.79223   0.00000  Uiso   1.00
C861   C     0.46590   0.64467   0.79135   0.00000  Uiso   1.00
C862   C     0.49993   0.62380   0.75002   0.00000  Uiso   1.00
C863   C     0.64741   0.46543   0.73388   0.00000  Uiso   1.00
C864   C     0.36189   0.46539   0.73405   0.00000  Uiso   1.00
C865   C     0.35247   0.53446   0.76661   0.00000  Uiso   1.00
C866   C     0.63790   0.53443   0.76665   0.00000  Uiso   1.00
C867   C     0.50006   0.42007   0.74976   0.00000  Uiso   1.00
C868   C     0.52589   0.49611   0.64847   0.00000  Uiso   1.00
C869   C     0.59953   0.47241   0.50478   0.00000  Uiso   1.00
C870   C     0.54007   0.48366   0.59198   0.00000  Uiso   1.00
C871   C     0.41220   0.50105   0.94062   0.00000  Uiso   1.00
C872   C     0.39955   0.50295   0.99623   0.00000  Uiso   1.00
C873   C     0.43285   0.49284   0.52140   0.00000  Uiso   1.00
H874   H     0.61618   0.49270   0.57478   0.00000  Uiso   1.00
H875   H     0.44021   0.62713   0.82317   0.00000  Uiso   1.00
H876   H     0.38355   0.43760   0.72134   0.00000  Uiso   1.00
H877   H     0.36661   0.56204   0.78002   0.00000  Uiso   1.00
H878   H     0.60885   0.44805   0.90363   0.00000  Uiso   1.00
H879   H     0.63669   0.47058   0.97985   0.00000  Uiso   1.00
H880   H     0.42306   0.49991   0.56371   0.00000  Uiso   1.00
H881   H     0.54467   0.44496   0.86533   0.00000  Uiso   1.00
H882   H     0.55952   0.62684   0.67675   0.00000  Uiso   1.00
N883   N     0.38093   0.50001   0.75001   0.00000  Uiso   1.00
N884   N     0.61906   0.49998   0.75000   0.00000  Uiso   1.00
O885   O     0.46179   0.56108   0.75000   0.00000  Uiso   1.00
O886   O     0.53823   0.56107   0.75000   0.00000  Uiso   1.00
O887   O     0.44280   0.50000   0.82681   0.00000  Uiso   1.00
O888   O     0.51924   0.49999   0.82681   0.00000  Uiso   1.00
O889   O     0.46177   0.43893   0.74999   0.00000  Uiso   1.00
O890   O     0.53821   0.43892   0.74999   0.00000  Uiso   1.00
O891   O     0.48076   0.50001   0.67319   0.00000  Uiso   1.00
O892   O     0.55720   0.50000   0.67319   0.00000  Uiso   1.00
Zn893  Zn    0.44896   0.50001   0.75000   0.00000  Uiso   1.00
Zn894  Zn    0.55104   0.49999   0.75000   0.00000  Uiso   1.00
C895   C     0.56913   0.37672   0.66028   0.00000  Uiso   1.00
H896   H     0.54990   0.39824   0.64118   0.00000  Uiso   1.00
H897   H     0.59491   0.39483   0.67408   0.00000  Uiso   1.00
H898   H     0.58992   0.35439   0.62896   0.00000  Uiso   1.00
C899   C     0.43064   0.37719   0.83896   0.00000  Uiso   1.00
H900   H     0.40508   0.39547   0.82475   0.00000  Uiso   1.00
H901   H     0.40956   0.35502   0.87031   0.00000  Uiso   1.00
H902   H     0.44998   0.39862   0.85810   0.00000  Uiso   1.00
H903   H     0.63323   0.43773   0.72098   0.00000  Uiso   1.00
H904   H     0.61599   0.56199   0.78011   0.00000  Uiso   1.00
C905   C     0.46289   0.44279   0.60518   0.00000  Uiso   1.00
H906   H     0.47463   0.42206   0.63251   0.00000  Uiso   1.00
H907   H     0.43299   0.46253   0.62971   0.00000  Uiso   1.00
H908   H     0.44905   0.42198   0.57966   0.00000  Uiso   1.00
H909   H     0.38684   0.51209   0.92168   0.00000  Uiso   1.00
H910   H     0.36483   0.51497   0.51967   0.00000  Uiso   1.00
C911   C     0.83329   0.57986   0.75011   0.00000  Uiso   1.00
C912   C     0.81188   0.47710   0.99163   0.00000  Uiso   1.00
C913   C     0.82403   0.47309   0.93528   0.00000  Uiso   1.00
C914   C     0.84788   0.47007   0.51547   0.00000  Uiso   1.00
C915   C     0.89611   0.46613   0.98261   0.00000  Uiso   1.00
C916   C     0.90615   0.45587   0.92858   0.00000  Uiso   1.00
C917   C     0.86945   0.45616   0.90620   0.00000  Uiso   1.00
C918   C     0.83794   0.46913   0.57108   0.00000  Uiso   1.00
C919   C     0.92131   0.48435   0.55872   0.00000  Uiso   1.00
C920   C     0.79166   0.48840   0.90969   0.00000  Uiso   1.00
C921   C     0.86724   0.64451   0.70850   0.00000  Uiso   1.00
C922   C     0.80736   0.49629   0.85168   0.00000  Uiso   1.00
C923   C     0.86729   0.35438   0.70732   0.00000  Uiso   1.00
C924   C     0.83335   0.37578   0.74977   0.00000  Uiso   1.00
C925   C     0.79924   0.35455   0.79223   0.00000  Uiso   1.00
C926   C     0.79923   0.64467   0.79135   0.00000  Uiso   1.00
C927   C     0.83327   0.62380   0.75002   0.00000  Uiso   1.00
C928   C     0.98075   0.46543   0.73388   0.00000  Uiso   1.00
C929   C     0.69522   0.46539   0.73405   0.00000  Uiso   1.00
C930   C     0.68581   0.53446   0.76661   0.00000  Uiso   1.00
C931   C     0.97123   0.53443   0.76665   0.00000  Uiso   1.00
C932   C     0.83340   0.42007   0.74976   0.00000  Uiso   1.00
C933   C     0.85922   0.49611   0.64847   0.00000  Uiso   1.00
C934   C     0.93286   0.47241   0.50478   0.00000  Uiso   1.00
C935   C     0.87340   0.48366   0.59198   0.00000  Uiso   1.00
C936   C     0.74553   0.50105   0.94062   0.00000  Uiso   1.00
C937   C     0.73289   0.50295   0.99623   0.00000  Uiso   1.00
C938   C     0.76618   0.49284   0.52140   0.00000  Uiso   1.00
H939   H     0.94952   0.49270   0.57478   0.00000  Uiso   1.00
H940   H     0.77354   0.62713   0.82317   0.00000  Uiso   1.00
H941   H     0.71688   0.43760   0.72134   0.00000  Uiso   1.00
H942   H     0.69994   0.56204   0.78002   0.00000  Uiso   1.00
H943   H     0.94219   0.44805   0.90363   0.00000  Uiso   1.00
H944   H     0.97002   0.47058   0.97985   0.00000  Uiso   1.00
H945   H     0.75639   0.49991   0.56371   0.00000  Uiso   1.00
H946   H     0.87800   0.44496   0.86533   0.00000  Uiso   1.00
H947   H     0.89286   0.62684   0.67675   0.00000  Uiso   1.00
N948   N     0.71426   0.50001   0.75001   0.00000  Uiso   1.00
N949   N     0.95239   0.49998   0.75000   0.00000  Uiso   1.00
O950   O     0.79512   0.56108   0.75000   0.00000  Uiso   1.00
O951   O     0.87157   0.56107   0.75000   0.00000  Uiso   1.00
O952   O     0.77613   0.50000   0.82681   0.00000  Uiso   1.00
O953   O     0.85258   0.49999   0.82681   0.00000  Uiso   1.00
O954   O     0.79510   0.43893   0.74999   0.00000  Uiso   1.00
O955   O     0.87154   0.43892   0.74999   0.00000  Uiso   1.00
O956   O     0.81409   0.50001   0.67319   0.00000  Uiso   1.00
O957   O     0.89053   0.50000   0.67319   0.00000  Uiso   1.00
Zn958  Zn    0.78229   0.50001   0.75000   0.00000  Uiso   1.00
Zn959  Zn    0.88438   0.49999   0.75000   0.00000  Uiso   1.00
C960   C     0.90247   0.37672   0.66028   0.00000  Uiso   1.00
H961   H     0.88324   0.39824   0.64118   0.00000  Uiso   1.00
H962   H     0.92825   0.39483   0.67408   0.00000  Uiso   1.00
H963   H     0.92325   0.35439   0.62896   0.00000  Uiso   1.00
C964   C     0.76397   0.37719   0.83896   0.00000  Uiso   1.00
H965   H     0.73841   0.39547   0.82475   0.00000  Uiso   1.00
H966   H     0.74289   0.35502   0.87031   0.00000  Uiso   1.00
H967   H     0.78331   0.39862   0.85810   0.00000  Uiso   1.00
H968   H     0.96656   0.43773   0.72098   0.00000  Uiso   1.00
H969   H     0.94932   0.56199   0.78011   0.00000  Uiso   1.00
C970   C     0.79623   0.44279   0.60518   0.00000  Uiso   1.00
H971   H     0.80797   0.42206   0.63251   0.00000  Uiso   1.00
H972   H     0.76632   0.46253   0.62971   0.00000  Uiso   1.00
H973   H     0.78239   0.42198   0.57966   0.00000  Uiso   1.00
H974   H     0.72017   0.51209   0.92168   0.00000  Uiso   1.00
H975   H     0.69817   0.51497   0.51967   0.00000  Uiso   1.00
C976   C     0.16663   0.91320   0.75011   0.00000  Uiso   1.00
C977   C     0.14522   0.81043   0.99163   0.00000  Uiso   1.00
C978   C     0.15737   0.80642   0.93528   0.00000  Uiso   1.00
C979   C     0.18122   0.80340   0.51547   0.00000  Uiso   1.00
C980   C     0.22944   0.79947   0.98261   0.00000  Uiso   1.00
C981   C     0.23948   0.78921   0.92858   0.00000  Uiso   1.00
C982   C     0.20278   0.78949   0.90620   0.00000  Uiso   1.00
C983   C     0.17128   0.80246   0.57108   0.00000  Uiso   1.00
C984   C     0.25464   0.81768   0.55872   0.00000  Uiso   1.00
C985   C     0.12499   0.82174   0.90969   0.00000  Uiso   1.00
C986   C     0.20057   0.97785   0.70850   0.00000  Uiso   1.00
C987   C     0.14070   0.82962   0.85168   0.00000  Uiso   1.00
C988   C     0.20062   0.68771   0.70732   0.00000  Uiso   1.00
C989   C     0.16668   0.70911   0.74977   0.00000  Uiso   1.00
C990   C     0.13257   0.68789   0.79223   0.00000  Uiso   1.00
C991   C     0.13257   0.97801   0.79135   0.00000  Uiso   1.00
C992   C     0.16660   0.95714   0.75002   0.00000  Uiso   1.00
C993   C     0.31408   0.79876   0.73388   0.00000  Uiso   1.00
C994   C     0.02856   0.79872   0.73405   0.00000  Uiso   1.00
C995   C     0.01914   0.86779   0.76661   0.00000  Uiso   1.00
C996   C     0.30456   0.86776   0.76665   0.00000  Uiso   1.00
C997   C     0.16673   0.75340   0.74976   0.00000  Uiso   1.00
C998   C     0.19256   0.82944   0.64847   0.00000  Uiso   1.00
C999   C     0.26620   0.80574   0.50478   0.00000  Uiso   1.00
C1000  C     0.20673   0.81699   0.59198   0.00000  Uiso   1.00
C1001  C     0.07886   0.83438   0.94062   0.00000  Uiso   1.00
C1002  C     0.06622   0.83629   0.99623   0.00000  Uiso   1.00
C1003  C     0.09952   0.82618   0.52140   0.00000  Uiso   1.00
H1004  H     0.28285   0.82603   0.57478   0.00000  Uiso   1.00
H1005  H     0.10687   0.96046   0.82317   0.00000  Uiso   1.00
H1006  H     0.05021   0.77093   0.72134   0.00000  Uiso   1.00
H1007  H     0.03327   0.89538   0.78002   0.00000  Uiso   1.00
H1008  H     0.27552   0.78138   0.90363   0.00000  Uiso   1.00
H1009  H     0.30336   0.80392   0.97985   0.00000  Uiso   1.00
H1010  H     0.08972   0.83325   0.56371   0.00000  Uiso   1.00
H1011  H     0.21133   0.77830   0.86533   0.00000  Uiso   1.00
H1012  H     0.22619   0.96017   0.67675   0.00000  Uiso   1.00
N1013  N     0.04760   0.83334   0.75001   0.00000  Uiso   1.00
N1014  N     0.28573   0.83331   0.75000   0.00000  Uiso   1.00
O1015  O     0.12846   0.89442   0.75000   0.00000  Uiso   1.00
O1016  O     0.20490   0.89441   0.75000   0.00000  Uiso   1.00
O1017  O     0.10947   0.83333   0.82681   0.00000  Uiso   1.00
O1018  O     0.18591   0.83332   0.82681   0.00000  Uiso   1.00
O1019  O     0.12843   0.77226   0.74999   0.00000  Uiso   1.00
O1020  O     0.20488   0.77225   0.74999   0.00000  Uiso   1.00
O1021  O     0.14742   0.83335   0.67319   0.00000  Uiso   1.00
O1022  O     0.22387   0.83334   0.67319   0.00000  Uiso   1.00
Zn1023 Zn    0.11562   0.83334   0.75000   0.00000  Uiso   1.00
Zn1024 Zn    0.21771   0.83333   0.75000   0.00000  Uiso   1.00
C1025  C     0.23580   0.71005   0.66028   0.00000  Uiso   1.00
H1026  H     0.21657   0.73158   0.64118   0.00000  Uiso   1.00
H1027  H     0.26158   0.72817   0.67408   0.00000  Uiso   1.00
H1028  H     0.25659   0.68772   0.62896   0.00000  Uiso   1.00
C1029  C     0.09730   0.71052   0.83896   0.00000  Uiso   1.00
H1030  H     0.07174   0.72880   0.82475   0.00000  Uiso   1.00
H1031  H     0.07623   0.68835   0.87031   0.00000  Uiso   1.00
H1032  H     0.11664   0.73195   0.85810   0.00000  Uiso   1.00
H1033  H     0.29990   0.77106   0.72098   0.00000  Uiso   1.00
H1034  H     0.28266   0.89532   0.78011   0.00000  Uiso   1.00
C1035  C     0.12956   0.77612   0.60518   0.00000  Uiso   1.00
H1036  H     0.14130   0.75539   0.63251   0.00000  Uiso   1.00
H1037  H     0.09965   0.79586   0.62971   0.00000  Uiso   1.00
H1038  H     0.11572   0.75532   0.57966   0.00000  Uiso   1.00
H1039  H     0.05350   0.84543   0.92168   0.00000  Uiso   1.00
H1040  H     0.03150   0.84830   0.51967   0.00000  Uiso   1.00
C1041  C     0.49996   0.91320   0.75011   0.00000  Uiso   1.00
C1042  C     0.47855   0.81043   0.99163   0.00000  Uiso   1.00
C1043  C     0.49070   0.80642   0.93528   0.00000  Uiso   1.00
C1044  C     0.51455   0.80340   0.51547   0.00000  Uiso   1.00
C1045  C     0.56277   0.79947   0.98261   0.00000  Uiso   1.00
C1046  C     0.57282   0.78921   0.92858   0.00000  Uiso   1.00
C1047  C     0.53611   0.78949   0.90620   0.00000  Uiso   1.00
C1048  C     0.50461   0.80246   0.57108   0.00000  Uiso   1.00
C1049  C     0.58797   0.81768   0.55872   0.00000  Uiso   1.00
C1050  C     0.45833   0.82174   0.90969   0.00000  Uiso   1.00
C1051  C     0.53390   0.97785   0.70850   0.00000  Uiso   1.00
C1052  C     0.47403   0.82962   0.85168   0.00000  Uiso   1.00
C1053  C     0.53396   0.68771   0.70732   0.00000  Uiso   1.00
C1054  C     0.50002   0.70911   0.74977   0.00000  Uiso   1.00
C1055  C     0.46591   0.68789   0.79223   0.00000  Uiso   1.00
C1056  C     0.46590   0.97801   0.79135   0.00000  Uiso   1.00
C1057  C     0.49993   0.95714   0.75002   0.00000  Uiso   1.00
C1058  C     0.64741   0.79876   0.73388   0.00000  Uiso   1.00
C1059  C     0.36189   0.79872   0.73405   0.00000  Uiso   1.00
C1060  C     0.35247   0.86779   0.76661   0.00000  Uiso   1.00
C1061  C     0.63790   0.86776   0.76665   0.00000  Uiso   1.00
C1062  C     0.50006   0.75340   0.74976   0.00000  Uiso   1.00
C1063  C     0.52589   0.82944   0.64847   0.00000  Uiso   1.00
C1064  C     0.59953   0.80574   0.50478   0.00000  Uiso   1.00
C1065  C     0.54007   0.81699   0.59198   0.00000  Uiso   1.00
C1066  C     0.41220   0.83438   0.94062   0.00000  Uiso   1.00
C1067  C     0.39955   0.83629   0.99623   0.00000  Uiso   1.00
C1068  C     0.43285   0.82618   0.52140   0.00000  Uiso   1.00
H1069  H     0.61618   0.82603   0.57478   0.00000  Uiso   1.00
H1070  H     0.44021   0.96046   0.82317   0.00000  Uiso   1.00
H1071  H     0.38355   0.77093   0.72134   0.00000  Uiso   1.00
H1072  H     0.36661   0.89538   0.78002   0.00000  Uiso   1.00
H1073  H     0.60885   0.78138   0.90363   0.00000  Uiso   1.00
H1074  H     0.63669   0.80392   0.97985   0.00000  Uiso   1.00
H1075  H     0.42306   0.83325   0.56371   0.00000  Uiso   1.00
H1076  H     0.54467   0.77830   0.86533   0.00000  Uiso   1.00
H1077  H     0.55952   0.96017   0.67675   0.00000  Uiso   1.00
N1078  N     0.38093   0.83334   0.75001   0.00000  Uiso   1.00
N1079  N     0.61906   0.83331   0.75000   0.00000  Uiso   1.00
O1080  O     0.46179   0.89442   0.75000   0.00000  Uiso   1.00
O1081  O     0.53823   0.89441   0.75000   0.00000  Uiso   1.00
O1082  O     0.44280   0.83333   0.82681   0.00000  Uiso   1.00
O1083  O     0.51924   0.83332   0.82681   0.00000  Uiso   1.00
O1084  O     0.46177   0.77226   0.74999   0.00000  Uiso   1.00
O1085  O     0.53821   0.77225   0.74999   0.00000  Uiso   1.00
O1086  O     0.48076   0.83335   0.67319   0.00000  Uiso   1.00
O1087  O     0.55720   0.83334   0.67319   0.00000  Uiso   1.00
Zn1088 Zn    0.44896   0.83334   0.75000   0.00000  Uiso   1.00
Zn1089 Zn    0.55104   0.83333   0.75000   0.00000  Uiso   1.00
C1090  C     0.56913   0.71005   0.66028   0.00000  Uiso   1.00
H1091  H     0.54990   0.73158   0.64118   0.00000  Uiso   1.00
H1092  H     0.59491   0.72817   0.67408   0.00000  Uiso   1.00
H1093  H     0.58992   0.68772   0.62896   0.00000  Uiso   1.00
C1094  C     0.43064   0.71052   0.83896   0.00000  Uiso   1.00
H1095  H     0.40508   0.72880   0.82475   0.00000  Uiso   1.00
H1096  H     0.40956   0.68835   0.87031   0.00000  Uiso   1.00
H1097  H     0.44998   0.73195   0.85810   0.00000  Uiso   1.00
H1098  H     0.63323   0.77106   0.72098   0.00000  Uiso   1.00
H1099  H     0.61599   0.89532   0.78011   0.00000  Uiso   1.00
C1100  C     0.46289   0.77612   0.60518   0.00000  Uiso   1.00
H1101  H     0.47463   0.75539   0.63251   0.00000  Uiso   1.00
H1102  H     0.43299   0.79586   0.62971   0.00000  Uiso   1.00
H1103  H     0.44905   0.75532   0.57966   0.00000  Uiso   1.00
H1104  H     0.38684   0.84543   0.92168   0.00000  Uiso   1.00
H1105  H     0.36483   0.84830   0.51967   0.00000  Uiso   1.00
C1106  C     0.83329   0.91320   0.75011   0.00000  Uiso   1.00
C1107  C     0.81188   0.81043   0.99163   0.00000  Uiso   1.00
C1108  C     0.82403   0.80642   0.93528   0.00000  Uiso   1.00
C1109  C     0.84788   0.80340   0.51547   0.00000  Uiso   1.00
C1110  C     0.89611   0.79947   0.98261   0.00000  Uiso   1.00
C1111  C     0.90615   0.78921   0.92858   0.00000  Uiso   1.00
C1112  C     0.86945   0.78949   0.90620   0.00000  Uiso   1.00
C1113  C     0.83794   0.80246   0.57108   0.00000  Uiso   1.00
C1114  C     0.92131   0.81768   0.55872   0.00000  Uiso   1.00
C1115  C     0.79166   0.82174   0.90969   0.00000  Uiso   1.00
C1116  C     0.86724   0.97785   0.70850   0.00000  Uiso   1.00
C1117  C     0.80736   0.82962   0.85168   0.00000  Uiso   1.00
C1118  C     0.86729   0.68771   0.70732   0.00000  Uiso   1.00
C1119  C     0.83335   0.70911   0.74977   0.00000  Uiso   1.00
C1120  C     0.79924   0.68789   0.79223   0.00000  Uiso   1.00
C1121  C     0.79923   0.97801   0.79135   0.00000  Uiso   1.00
C1122  C     0.83327   0.95714   0.75002   0.00000  Uiso   1.00
C1123  C     0.98075   0.79876   0.73388   0.00000  Uiso   1.00
C1124  C     0.69522   0.79872   0.73405   0.00000  Uiso   1.00
C1125  C     0.68581   0.86779   0.76661   0.00000  Uiso   1.00
C1126  C     0.97123   0.86776   0.76665   0.00000  Uiso   1.00
C1127  C     0.83340   0.75340   0.74976   0.00000  Uiso   1.00
C1128  C     0.85922   0.82944   0.64847   0.00000  Uiso   1.00
C1129  C     0.93286   0.80574   0.50478   0.00000  Uiso   1.00
C1130  C     0.87340   0.81699   0.59198   0.00000  Uiso   1.00
C1131  C     0.74553   0.83438   0.94062   0.00000  Uiso   1.00
C1132  C     0.73289   0.83629   0.99623   0.00000  Uiso   1.00
C1133  C     0.76618   0.82618   0.52140   0.00000  Uiso   1.00
H1134  H     0.94952   0.82603   0.57478   0.00000  Uiso   1.00
H1135  H     0.77354   0.96046   0.82317   0.00000  Uiso   1.00
H1136  H     0.71688   0.77093   0.72134   0.00000  Uiso   1.00
H1137  H     0.69994   0.89538   0.78002   0.00000  Uiso   1.00
H1138  H     0.94219   0.78138   0.90363   0.00000  Uiso   1.00
H1139  H     0.97002   0.80392   0.97985   0.00000  Uiso   1.00
H1140  H     0.75639   0.83325   0.56371   0.00000  Uiso   1.00
H1141  H     0.87800   0.77830   0.86533   0.00000  Uiso   1.00
H1142  H     0.89286   0.96017   0.67675   0.00000  Uiso   1.00
N1143  N     0.71426   0.83334   0.75001   0.00000  Uiso   1.00
N1144  N     0.95239   0.83331   0.75000   0.00000  Uiso   1.00
O1145  O     0.79512   0.89442   0.75000   0.00000  Uiso   1.00
O1146  O     0.87157   0.89441   0.75000   0.00000  Uiso   1.00
O1147  O     0.77613   0.83333   0.82681   0.00000  Uiso   1.00
O1148  O     0.85258   0.83332   0.82681   0.00000  Uiso   1.00
O1149  O     0.79510   0.77226   0.74999   0.00000  Uiso   1.00
O1150  O     0.87154   0.77225   0.74999   0.00000  Uiso   1.00
O1151  O     0.81409   0.83335   0.67319   0.00000  Uiso   1.00
O1152  O     0.89053   0.83334   0.67319   0.00000  Uiso   1.00
Zn1153 Zn    0.78229   0.83334   0.75000   0.00000  Uiso   1.00
Zn1154 Zn    0.88438   0.83333   0.75000   0.00000  Uiso   1.00
C1155  C     0.90247   0.71005   0.66028   0.00000  Uiso   1.00
H1156  H     0.88324   0.73158   0.64118   0.00000  Uiso   1.00
H1157  H     0.92825   0.72817   0.67408   0.00000  Uiso   1.00
H1158  H     0.92325   0.68772   0.62896   0.00000  Uiso   1.00
C1159  C     0.76397   0.71052   0.83896   0.00000  Uiso   1.00
H1160  H     0.73841   0.72880   0.82475   0.00000  Uiso   1.00
H1161  H     0.74289   0.68835   0.87031   0.00000  Uiso   1.00
H1162  H     0.78331   0.73195   0.85810   0.00000  Uiso   1.00
H1163  H     0.96656   0.77106   0.72098   0.00000  Uiso   1.00
H1164  H     0.94932   0.89532   0.78011   0.00000  Uiso   1.00
C1165  C     0.79623   0.77612   0.60518   0.00000  Uiso   1.00
H1166  H     0.80797   0.75539   0.63251   0.00000  Uiso   1.00
H1167  H     0.76632   0.79586   0.62971   0.00000  Uiso   1.00
H1168  H     0.78239   0.75532   0.57966   0.00000  Uiso   1.00
H1169  H     0.72017   0.84543   0.92168   0.00000  Uiso   1.00
H1170  H     0.69817   0.84830   0.51967   0.00000  Uiso   1.00
loop_
_geom_bond_atom_site_label_1
_geom_bond_atom_site_label_2
_geom_bond_distance
_geom_bond_site_symmetry_2
_ccdc_geom_bond_type
C1     O41     1.279   .     A
C1     O40     1.279   .     A
C1     C17     1.402   .     S
C2     C3      1.410   .     A
C2     C589    1.416   .     S
C2     C613    1.416   .     S
C3     C10     1.421   .     A
C3     C7      1.419   .     A
C4     C8      1.392   .     A
C4     C587    1.416   1_554 S
C4     C590    1.413   1_554 S
C5     C6      1.390   .     A
C5     C589    1.413   .     S
C5     C609    1.403   .     S
C6     C7      1.391   .     A
C6     H33     1.084   .     S
C7     H36     1.080   .     S
C8     C60     1.522   .     S
C8     C25     1.410   .     A
C9     C24     1.397   .     A
C9     H29     1.082   .     S
C9     C25     1.403   .     A
C10    C26     1.402   .     A
C10    C12     1.462   .     S
C11    H37     1.085   .     S
C11    C17     1.388   .     A
C11    C208    1.379   .     S
C12    O43     1.290   .     A
C12    O42     1.297   .     A
C13    C14     1.411   .     A
C13    C50     1.511   .     S
C13    C401    1.379   1_545 S
C14    C22     1.413   .     S
C14    C15     1.411   .     A
C15    C54     1.512   .     S
C15    C406    1.379   1_545 S
C16    H30     1.085   .     S
C16    C17     1.388   .     A
C16    C210    1.379   .     S
C18    N39     1.366   .     A
C18    H58     1.079   .     S
C18    C84     1.415   .     S
C19    N38     1.366   .     A
C19    H31     1.081   .     S
C19    C148    1.415   1_455 S
C20    N38     1.367   .     A
C20    H32     1.081   .     S
C20    C151    1.416   1_455 S
C21    N39     1.367   .     A
C21    H59     1.081   .     S
C21    C85     1.416   .     S
C22    O45     1.280   .     A
C22    O44     1.280   .     A
C23    C25     1.459   .     S
C23    O47     1.297   .     A
C23    O46     1.287   .     A
C24    C590    1.403   1_554 S
C24    H619    1.083   1_554 S
C26    C27     1.385   .     A
C26    H64     1.083   .     S
C27    C613    1.389   .     S
C27    H650    1.082   .     S
C28    H35     1.077   .     S
C28    C587    1.416   1_554 S
C28    C612    1.389   1_554 S
H34    C609    1.083   .     S
N38    Zn48    2.011   .     S
N39    Zn49    2.011   .     S
O40    Zn48    1.986   .     S
O41    Zn49    1.985   .     S
O42    Zn48    1.964   .     S
O43    Zn49    1.929   .     S
O44    Zn48    1.985   .     S
O45    Zn49    1.986   .     S
O46    Zn48    1.929   .     S
O47    Zn49    1.964   .     S
C50    H52     1.107   .     S
C50    H53     1.111   .     S
C50    H51     1.109   .     S
C54    H56     1.111   .     S
C54    H55     1.110   .     S
C54    H57     1.111   .     S
C60    H61     1.110   .     S
C60    H63     1.111   .     S
C60    H62     1.107   .     S
H65    C612    1.082   1_554 S
C66    O106    1.279   .     A
C66    O105    1.279   .     A
C66    C82     1.402   .     S
C67    C68     1.410   .     A
C67    C654    1.416   .     S
C67    C678    1.416   .     S
C68    C75     1.421   .     A
C68    C72     1.419   .     A
C69    C73     1.392   .     A
C69    C652    1.416   1_554 S
C69    C655    1.413   1_554 S
C70    C71     1.390   .     A
C70    C654    1.413   .     S
C70    C674    1.403   .     S
C71    C72     1.391   .     A
C71    H98     1.084   .     S
C72    H101    1.080   .     S
C73    C125    1.522   .     S
C73    C90     1.410   .     A
C74    C89     1.397   .     A
C74    H94     1.082   .     S
C74    C90     1.403   .     A
C75    C91     1.402   .     A
C75    C77     1.462   .     S
C76    H102    1.085   .     S
C76    C82     1.388   .     A
C76    C273    1.379   .     S
C77    O108    1.290   .     A
C77    O107    1.297   .     A
C78    C79     1.411   .     A
C78    C115    1.511   .     S
C78    C466    1.379   1_545 S
C79    C87     1.413   .     S
C79    C80     1.411   .     A
C80    C119    1.512   .     S
C80    C471    1.379   1_545 S
C81    H95     1.085   .     S
C81    C82     1.388   .     A
C81    C275    1.379   .     S
C83    N104    1.366   .     A
C83    H123    1.079   .     S
C83    C149    1.415   .     S
C84    N103    1.366   .     A
C84    H96     1.081   .     S
C85    N103    1.367   .     A
C85    H97     1.081   .     S
C86    N104    1.367   .     A
C86    H124    1.081   .     S
C86    C150    1.416   .     S
C87    O110    1.280   .     A
C87    O109    1.280   .     A
C88    C90     1.459   .     S
C88    O112    1.297   .     A
C88    O111    1.287   .     A
C89    C655    1.403   1_554 S
C89    H684    1.083   1_554 S
C91    C92     1.385   .     A
C91    H129    1.083   .     S
C92    C678    1.389   .     S
C92    H715    1.082   .     S
C93    H100    1.077   .     S
C93    C652    1.416   1_554 S
C93    C677    1.389   1_554 S
H99    C674    1.083   .     S
N103   Zn113   2.011   .     S
N104   Zn114   2.011   .     S
O105   Zn113   1.986   .     S
O106   Zn114   1.985   .     S
O107   Zn113   1.964   .     S
O108   Zn114   1.929   .     S
O109   Zn113   1.985   .     S
O110   Zn114   1.986   .     S
O111   Zn113   1.929   .     S
O112   Zn114   1.964   .     S
C115   H117    1.107   .     S
C115   H118    1.111   .     S
C115   H116    1.109   .     S
C119   H121    1.111   .     S
C119   H120    1.110   .     S
C119   H122    1.111   .     S
C125   H126    1.110   .     S
C125   H128    1.111   .     S
C125   H127    1.107   .     S
H130   C677    1.082   1_554 S
C131   O171    1.279   .     A
C131   O170    1.279   .     A
C131   C147    1.402   .     S
C132   C133    1.410   .     A
C132   C719    1.416   .     S
C132   C743    1.416   .     S
C133   C140    1.421   .     A
C133   C137    1.419   .     A
C134   C138    1.392   .     A
C134   C717    1.416   1_554 S
C134   C720    1.413   1_554 S
C135   C136    1.390   .     A
C135   C719    1.413   .     S
C135   C739    1.403   .     S
C136   C137    1.391   .     A
C136   H163    1.084   .     S
C137   H166    1.080   .     S
C138   C190    1.522   .     S
C138   C155    1.410   .     A
C139   C154    1.397   .     A
C139   H159    1.082   .     S
C139   C155    1.403   .     A
C140   C156    1.402   .     A
C140   C142    1.462   .     S
C141   H167    1.085   .     S
C141   C147    1.388   .     A
C141   C338    1.379   .     S
C142   O173    1.290   .     A
C142   O172    1.297   .     A
C143   C144    1.411   .     A
C143   C180    1.511   .     S
C143   C531    1.379   1_545 S
C144   C152    1.413   .     S
C144   C145    1.411   .     A
C145   C184    1.512   .     S
C145   C536    1.379   1_545 S
C146   H160    1.085   .     S
C146   C147    1.388   .     A
C146   C340    1.379   .     S
C148   N169    1.366   .     A
C148   H188    1.079   .     S
C148   C19     1.415   1_655 S
C149   N168    1.366   .     A
C149   H161    1.081   .     S
C150   N168    1.367   .     A
C150   H162    1.081   .     S
C151   N169    1.367   .     A
C151   H189    1.081   .     S
C151   C20     1.416   1_655 S
C152   O175    1.280   .     A
C152   O174    1.280   .     A
C153   C155    1.459   .     S
C153   O177    1.297   .     A
C153   O176    1.287   .     A
C154   C720    1.403   1_554 S
C154   H749    1.083   1_554 S
C156   C157    1.385   .     A
C156   H194    1.083   .     S
C157   C743    1.389   .     S
C157   H780    1.082   .     S
C158   H165    1.077   .     S
C158   C717    1.416   1_554 S
C158   C742    1.389   1_554 S
H164   C739    1.083   .     S
N168   Zn178   2.011   .     S
N169   Zn179   2.011   .     S
O170   Zn178   1.986   .     S
O171   Zn179   1.985   .     S
O172   Zn178   1.964   .     S
O173   Zn179   1.929   .     S
O174   Zn178   1.985   .     S
O175   Zn179   1.986   .     S
O176   Zn178   1.929   .     S
O177   Zn179   1.964   .     S
C180   H182    1.107   .     S
C180   H183    1.111   .     S
C180   H181    1.109   .     S
C184   H186    1.111   .     S
C184   H185    1.110   .     S
C184   H187    1.111   .     S
C190   H191    1.110   .     S
C190   H193    1.111   .     S
C190   H192    1.107   .     S
H195   C742    1.082   1_554 S
C196   O236    1.279   .     A
C196   O235    1.279   .     A
C196   C212    1.402   .     S
C197   C198    1.410   .     A
C197   C784    1.416   .     S
C197   C808    1.416   .     S
C198   C205    1.421   .     A
C198   C202    1.419   .     A
C199   C203    1.392   .     A
C199   C782    1.416   1_554 S
C199   C785    1.413   1_554 S
C200   C201    1.390   .     A
C200   C784    1.413   .     S
C200   C804    1.403   .     S
C201   C202    1.391   .     A
C201   H228    1.084   .     S
C202   H231    1.080   .     S
C203   C255    1.522   .     S
C203   C220    1.410   .     A
C204   C219    1.397   .     A
C204   H224    1.082   .     S
C204   C220    1.403   .     A
C205   C221    1.402   .     A
C205   C207    1.462   .     S
C206   H232    1.085   .     S
C206   C212    1.388   .     A
C206   C403    1.379   .     S
C207   O238    1.290   .     A
C207   O237    1.297   .     A
C208   C209    1.411   .     A
C208   C245    1.511   .     S
C209   C217    1.413   .     S
C209   C210    1.411   .     A
C210   C249    1.512   .     S
C211   H225    1.085   .     S
C211   C212    1.388   .     A
C211   C405    1.379   .     S
C213   N234    1.366   .     A
C213   H253    1.079   .     S
C213   C279    1.415   .     S
C214   N233    1.366   .     A
C214   H226    1.081   .     S
C214   C343    1.415   1_455 S
C215   N233    1.367   .     A
C215   H227    1.081   .     S
C215   C346    1.416   1_455 S
C216   N234    1.367   .     A
C216   H254    1.081   .     S
C216   C280    1.416   .     S
C217   O240    1.280   .     A
C217   O239    1.280   .     A
C218   C220    1.459   .     S
C218   O242    1.297   .     A
C218   O241    1.287   .     A
C219   C785    1.403   1_554 S
C219   H814    1.083   1_554 S
C221   C222    1.385   .     A
C221   H259    1.083   .     S
C222   C808    1.389   .     S
C222   H845    1.082   .     S
C223   H230    1.077   .     S
C223   C782    1.416   1_554 S
C223   C807    1.389   1_554 S
H229   C804    1.083   .     S
N233   Zn243   2.011   .     S
N234   Zn244   2.011   .     S
O235   Zn243   1.986   .     S
O236   Zn244   1.985   .     S
O237   Zn243   1.964   .     S
O238   Zn244   1.929   .     S
O239   Zn243   1.985   .     S
O240   Zn244   1.986   .     S
O241   Zn243   1.929   .     S
O242   Zn244   1.964   .     S
C245   H247    1.107   .     S
C245   H248    1.111   .     S
C245   H246    1.109   .     S
C249   H251    1.111   .     S
C249   H250    1.110   .     S
C249   H252    1.111   .     S
C255   H256    1.110   .     S
C255   H258    1.111   .     S
C255   H257    1.107   .     S
H260   C807    1.082   1_554 S
C261   O301    1.279   .     A
C261   O300    1.279   .     A
C261   C277    1.402   .     S
C262   C263    1.410   .     A
C262   C849    1.416   .     S
C262   C873    1.416   .     S
C263   C270    1.421   .     A
C263   C267    1.419   .     A
C264   C268    1.392   .     A
C264   C847    1.416   1_554 S
C264   C850    1.413   1_554 S
C265   C266    1.390   .     A
C265   C849    1.413   .     S
C265   C869    1.403   .     S
C266   C267    1.391   .     A
C266   H293    1.084   .     S
C267   H296    1.080   .     S
C268   C320    1.522   .     S
C268   C285    1.410   .     A
C269   C284    1.397   .     A
C269   H289    1.082   .     S
C269   C285    1.403   .     A
C270   C286    1.402   .     A
C270   C272    1.462   .     S
C271   H297    1.085   .     S
C271   C277    1.388   .     A
C271   C468    1.379   .     S
C272   O303    1.290   .     A
C272   O302    1.297   .     A
C273   C274    1.411   .     A
C273   C310    1.511   .     S
C274   C282    1.413   .     S
C274   C275    1.411   .     A
C275   C314    1.512   .     S
C276   H290    1.085   .     S
C276   C277    1.388   .     A
C276   C470    1.379   .     S
C278   N299    1.366   .     A
C278   H318    1.079   .     S
C278   C344    1.415   .     S
C279   N298    1.366   .     A
C279   H291    1.081   .     S
C280   N298    1.367   .     A
C280   H292    1.081   .     S
C281   N299    1.367   .     A
C281   H319    1.081   .     S
C281   C345    1.416   .     S
C282   O305    1.280   .     A
C282   O304    1.280   .     A
C283   C285    1.459   .     S
C283   O307    1.297   .     A
C283   O306    1.287   .     A
C284   C850    1.403   1_554 S
C284   H879    1.083   1_554 S
C286   C287    1.385   .     A
C286   H324    1.083   .     S
C287   C873    1.389   .     S
C287   H910    1.082   .     S
C288   H295    1.077   .     S
C288   C847    1.416   1_554 S
C288   C872    1.389   1_554 S
H294   C869    1.083   .     S
N298   Zn308   2.011   .     S
N299   Zn309   2.011   .     S
O300   Zn308   1.986   .     S
O301   Zn309   1.985   .     S
O302   Zn308   1.964   .     S
O303   Zn309   1.929   .     S
O304   Zn308   1.985   .     S
O305   Zn309   1.986   .     S
O306   Zn308   1.929   .     S
O307   Zn309   1.964   .     S
C310   H312    1.107   .     S
C310   H313    1.111   .     S
C310   H311    1.109   .     S
C314   H316    1.111   .     S
C314   H315    1.110   .     S
C314   H317    1.111   .     S
C320   H321    1.110   .     S
C320   H323    1.111   .     S
C320   H322    1.107   .     S
H325   C872    1.082   1_554 S
C326   O366    1.279   .     A
C326   O365    1.279   .     A
C326   C342    1.402   .     S
C327   C328    1.410   .     A
C327   C914    1.416   .     S
C327   C938    1.416   .     S
C328   C335    1.421   .     A
C328   C332    1.419   .     A
C329   C333    1.392   .     A
C329   C912    1.416   1_554 S
C329   C915    1.413   1_554 S
C330   C331    1.390   .     A
C330   C914    1.413   .     S
C330   C934    1.403   .     S
C331   C332    1.391   .     A
C331   H358    1.084   .     S
C332   H361    1.080   .     S
C333   C385    1.522   .     S
C333   C350    1.410   .     A
C334   C349    1.397   .     A
C334   H354    1.082   .     S
C334   C350    1.403   .     A
C335   C351    1.402   .     A
C335   C337    1.462   .     S
C336   H362    1.085   .     S
C336   C342    1.388   .     A
C336   C533    1.379   .     S
C337   O368    1.290   .     A
C337   O367    1.297   .     A
C338   C339    1.411   .     A
C338   C375    1.511   .     S
C339   C347    1.413   .     S
C339   C340    1.411   .     A
C340   C379    1.512   .     S
C341   H355    1.085   .     S
C341   C342    1.388   .     A
C341   C535    1.379   .     S
C343   N364    1.366   .     A
C343   H383    1.079   .     S
C343   C214    1.415   1_655 S
C344   N363    1.366   .     A
C344   H356    1.081   .     S
C345   N363    1.367   .     A
C345   H357    1.081   .     S
C346   N364    1.367   .     A
C346   H384    1.081   .     S
C346   C215    1.416   1_655 S
C347   O370    1.280   .     A
C347   O369    1.280   .     A
C348   C350    1.459   .     S
C348   O372    1.297   .     A
C348   O371    1.287   .     A
C349   C915    1.403   1_554 S
C349   H944    1.083   1_554 S
C351   C352    1.385   .     A
C351   H389    1.083   .     S
C352   C938    1.389   .     S
C352   H975    1.082   .     S
C353   H360    1.077   .     S
C353   C912    1.416   1_554 S
C353   C937    1.389   1_554 S
H359   C934    1.083   .     S
N363   Zn373   2.011   .     S
N364   Zn374   2.011   .     S
O365   Zn373   1.986   .     S
O366   Zn374   1.985   .     S
O367   Zn373   1.964   .     S
O368   Zn374   1.929   .     S
O369   Zn373   1.985   .     S
O370   Zn374   1.986   .     S
O371   Zn373   1.929   .     S
O372   Zn374   1.964   .     S
C375   H377    1.107   .     S
C375   H378    1.111   .     S
C375   H376    1.109   .     S
C379   H381    1.111   .     S
C379   H380    1.110   .     S
C379   H382    1.111   .     S
C385   H386    1.110   .     S
C385   H388    1.111   .     S
C385   H387    1.107   .     S
H390   C937    1.082   1_554 S
C391   O431    1.279   .     A
C391   O430    1.279   .     A
C391   C407    1.402   .     S
C392   C393    1.410   .     A
C392   C979    1.416   .     S
C392   C1003   1.416   .     S
C393   C400    1.421   .     A
C393   C397    1.419   .     A
C394   C398    1.392   .     A
C394   C977    1.416   1_554 S
C394   C980    1.413   1_554 S
C395   C396    1.390   .     A
C395   C979    1.413   .     S
C395   C999    1.403   .     S
C396   C397    1.391   .     A
C396   H423    1.084   .     S
C397   H426    1.080   .     S
C398   C450    1.522   .     S
C398   C415    1.410   .     A
C399   C414    1.397   .     A
C399   H419    1.082   .     S
C399   C415    1.403   .     A
C400   C416    1.402   .     A
C400   C402    1.462   .     S
C401   H427    1.085   .     S
C401   C407    1.388   .     A
C401   C13     1.379   1_565 S
C402   O433    1.290   .     A
C402   O432    1.297   .     A
C403   C404    1.411   .     A
C403   C440    1.511   .     S
C404   C412    1.413   .     S
C404   C405    1.411   .     A
C405   C444    1.512   .     S
C406   H420    1.085   .     S
C406   C407    1.388   .     A
C406   C15     1.379   1_565 S
C408   N429    1.366   .     A
C408   H448    1.079   .     S
C408   C474    1.415   .     S
C409   N428    1.366   .     A
C409   H421    1.081   .     S
C409   C538    1.415   1_455 S
C410   N428    1.367   .     A
C410   H422    1.081   .     S
C410   C541    1.416   1_455 S
C411   N429    1.367   .     A
C411   H449    1.081   .     S
C411   C475    1.416   .     S
C412   O435    1.280   .     A
C412   O434    1.280   .     A
C413   C415    1.459   .     S
C413   O437    1.297   .     A
C413   O436    1.287   .     A
C414   C980    1.403   1_554 S
C414   H1009   1.083   1_554 S
C416   C417    1.385   .     A
C416   H454    1.083   .     S
C417   C1003   1.389   .     S
C417   H1040   1.082   .     S
C418   H425    1.077   .     S
C418   C977    1.416   1_554 S
C418   C1002   1.389   1_554 S
H424   C999    1.083   .     S
N428   Zn438   2.011   .     S
N429   Zn439   2.011   .     S
O430   Zn438   1.986   .     S
O431   Zn439   1.985   .     S
O432   Zn438   1.964   .     S
O433   Zn439   1.929   .     S
O434   Zn438   1.985   .     S
O435   Zn439   1.986   .     S
O436   Zn438   1.929   .     S
O437   Zn439   1.964   .     S
C440   H442    1.107   .     S
C440   H443    1.111   .     S
C440   H441    1.109   .     S
C444   H446    1.111   .     S
C444   H445    1.110   .     S
C444   H447    1.111   .     S
C450   H451    1.110   .     S
C450   H453    1.111   .     S
C450   H452    1.107   .     S
H455   C1002   1.082   1_554 S
C456   O496    1.279   .     A
C456   O495    1.279   .     A
C456   C472    1.402   .     S
C457   C458    1.410   .     A
C457   C1044   1.416   .     S
C457   C1068   1.416   .     S
C458   C465    1.421   .     A
C458   C462    1.419   .     A
C459   C463    1.392   .     A
C459   C1042   1.416   1_554 S
C459   C1045   1.413   1_554 S
C460   C461    1.390   .     A
C460   C1044   1.413   .     S
C460   C1064   1.403   .     S
C461   C462    1.391   .     A
C461   H488    1.084   .     S
C462   H491    1.080   .     S
C463   C515    1.522   .     S
C463   C480    1.410   .     A
C464   C479    1.397   .     A
C464   H484    1.082   .     S
C464   C480    1.403   .     A
C465   C481    1.402   .     A
C465   C467    1.462   .     S
C466   H492    1.085   .     S
C466   C472    1.388   .     A
C466   C78     1.379   1_565 S
C467   O498    1.290   .     A
C467   O497    1.297   .     A
C468   C469    1.411   .     A
C468   C505    1.511   .     S
C469   C477    1.413   .     S
C469   C470    1.411   .     A
C470   C509    1.512   .     S
C471   H485    1.085   .     S
C471   C472    1.388   .     A
C471   C80     1.379   1_565 S
C473   N494    1.366   .     A
C473   H513    1.079   .     S
C473   C539    1.415   .     S
C474   N493    1.366   .     A
C474   H486    1.081   .     S
C475   N493    1.367   .     A
C475   H487    1.081   .     S
C476   N494    1.367   .     A
C476   H514    1.081   .     S
C476   C540    1.416   .     S
C477   O500    1.280   .     A
C477   O499    1.280   .     A
C478   C480    1.459   .     S
C478   O502    1.297   .     A
C478   O501    1.287   .     A
C479   C1045   1.403   1_554 S
C479   H1074   1.083   1_554 S
C481   C482    1.385   .     A
C481   H519    1.083   .     S
C482   C1068   1.389   .     S
C482   H1105   1.082   .     S
C483   H490    1.077   .     S
C483   C1042   1.416   1_554 S
C483   C1067   1.389   1_554 S
H489   C1064   1.083   .     S
N493   Zn503   2.011   .     S
N494   Zn504   2.011   .     S
O495   Zn503   1.986   .     S
O496   Zn504   1.985   .     S
O497   Zn503   1.964   .     S
O498   Zn504   1.929   .     S
O499   Zn503   1.985   .     S
O500   Zn504   1.986   .     S
O501   Zn503   1.929   .     S
O502   Zn504   1.964   .     S
C505   H507    1.107   .     S
C505   H508    1.111   .     S
C505   H506    1.109   .     S
C509   H511    1.111   .     S
C509   H510    1.110   .     S
C509   H512    1.111   .     S
C515   H516    1.110   .     S
C515   H518    1.111   .     S
C515   H517    1.107   .     S
H520   C1067   1.082   1_554 S
C521   O561    1.279   .     A
C521   O560    1.279   .     A
C521   C537    1.402   .     S
C522   C523    1.410   .     A
C522   C1109   1.416   .     S
C522   C1133   1.416   .     S
C523   C530    1.421   .     A
C523   C527    1.419   .     A
C524   C528    1.392   .     A
C524   C1107   1.416   1_554 S
C524   C1110   1.413   1_554 S
C525   C526    1.390   .     A
C525   C1109   1.413   .     S
C525   C1129   1.403   .     S
C526   C527    1.391   .     A
C526   H553    1.084   .     S
C527   H556    1.080   .     S
C528   C580    1.522   .     S
C528   C545    1.410   .     A
C529   C544    1.397   .     A
C529   H549    1.082   .     S
C529   C545    1.403   .     A
C530   C546    1.402   .     A
C530   C532    1.462   .     S
C531   H557    1.085   .     S
C531   C537    1.388   .     A
C531   C143    1.379   1_565 S
C532   O563    1.290   .     A
C532   O562    1.297   .     A
C533   C534    1.411   .     A
C533   C570    1.511   .     S
C534   C542    1.413   .     S
C534   C535    1.411   .     A
C535   C574    1.512   .     S
C536   H550    1.085   .     S
C536   C537    1.388   .     A
C536   C145    1.379   1_565 S
C538   N559    1.366   .     A
C538   H578    1.079   .     S
C538   C409    1.415   1_655 S
C539   N558    1.366   .     A
C539   H551    1.081   .     S
C540   N558    1.367   .     A
C540   H552    1.081   .     S
C541   N559    1.367   .     A
C541   H579    1.081   .     S
C541   C410    1.416   1_655 S
C542   O565    1.280   .     A
C542   O564    1.280   .     A
C543   C545    1.459   .     S
C543   O567    1.297   .     A
C543   O566    1.287   .     A
C544   C1110   1.403   1_554 S
C544   H1139   1.083   1_554 S
C546   C547    1.385   .     A
C546   H584    1.083   .     S
C547   C1133   1.389   .     S
C547   H1170   1.082   .     S
C548   H555    1.077   .     S
C548   C1107   1.416   1_554 S
C548   C1132   1.389   1_554 S
H554   C1129   1.083   .     S
N558   Zn568   2.011   .     S
N559   Zn569   2.011   .     S
O560   Zn568   1.986   .     S
O561   Zn569   1.985   .     S
O562   Zn568   1.964   .     S
O563   Zn569   1.929   .     S
O564   Zn568   1.985   .     S
O565   Zn569   1.986   .     S
O566   Zn568   1.929   .     S
O567   Zn569   1.964   .     S
C570   H572    1.107   .     S
C570   H573    1.111   .     S
C570   H571    1.109   .     S
C574   H576    1.111   .     S
C574   H575    1.110   .     S
C574   H577    1.111   .     S
C580   H581    1.110   .     S
C580   H583    1.111   .     S
C580   H582    1.107   .     S
H585   C1132   1.082   1_554 S
C586   O626    1.279   .     A
C586   O625    1.279   .     A
C586   C602    1.402   .     S
C587   C588    1.410   .     A
C587   C4      1.416   1_556 S
C587   C28     1.416   1_556 S
C588   C595    1.421   .     A
C588   C592    1.419   .     A
C589   C593    1.392   .     A
C590   C591    1.390   .     A
C590   C4      1.413   1_556 S
C590   C24     1.403   1_556 S
C591   C592    1.391   .     A
C591   H618    1.084   .     S
C592   H621    1.080   .     S
C593   C645    1.522   .     S
C593   C610    1.410   .     A
C594   C609    1.397   .     A
C594   H614    1.082   .     S
C594   C610    1.403   .     A
C595   C611    1.402   .     A
C595   C597    1.462   .     S
C596   H622    1.085   .     S
C596   C602    1.388   .     A
C596   C793    1.379   .     S
C597   O628    1.290   .     A
C597   O627    1.297   .     A
C598   C599    1.411   .     A
C598   C635    1.511   .     S
C598   C986    1.379   1_545 S
C599   C607    1.413   .     S
C599   C600    1.411   .     A
C600   C639    1.512   .     S
C600   C991    1.379   1_545 S
C601   H615    1.085   .     S
C601   C602    1.388   .     A
C601   C795    1.379   .     S
C603   N624    1.366   .     A
C603   H643    1.079   .     S
C603   C669    1.415   .     S
C604   N623    1.366   .     A
C604   H616    1.081   .     S
C604   C733    1.415   1_455 S
C605   N623    1.367   .     A
C605   H617    1.081   .     S
C605   C736    1.416   1_455 S
C606   N624    1.367   .     A
C606   H644    1.081   .     S
C606   C670    1.416   .     S
C607   O630    1.280   .     A
C607   O629    1.280   .     A
C608   C610    1.459   .     S
C608   O632    1.297   .     A
C608   O631    1.287   .     A
C611   C612    1.385   .     A
C611   H649    1.083   .     S
C612   C28     1.389   1_556 S
C612   H65     1.082   1_556 S
C613   H620    1.077   .     S
H619   C24     1.083   1_556 S
N623   Zn633   2.011   .     S
N624   Zn634   2.011   .     S
O625   Zn633   1.986   .     S
O626   Zn634   1.985   .     S
O627   Zn633   1.964   .     S
O628   Zn634   1.929   .     S
O629   Zn633   1.985   .     S
O630   Zn634   1.986   .     S
O631   Zn633   1.929   .     S
O632   Zn634   1.964   .     S
C635   H637    1.107   .     S
C635   H638    1.111   .     S
C635   H636    1.109   .     S
C639   H641    1.111   .     S
C639   H640    1.110   .     S
C639   H642    1.111   .     S
C645   H646    1.110   .     S
C645   H648    1.111   .     S
C645   H647    1.107   .     S
C651   O691    1.279   .     A
C651   O690    1.279   .     A
C651   C667    1.402   .     S
C652   C653    1.410   .     A
C652   C69     1.416   1_556 S
C652   C93     1.416   1_556 S
C653   C660    1.421   .     A
C653   C657    1.419   .     A
C654   C658    1.392   .     A
C655   C656    1.390   .     A
C655   C69     1.413   1_556 S
C655   C89     1.403   1_556 S
C656   C657    1.391   .     A
C656   H683    1.084   .     S
C657   H686    1.080   .     S
C658   C710    1.522   .     S
C658   C675    1.410   .     A
C659   C674    1.397   .     A
C659   H679    1.082   .     S
C659   C675    1.403   .     A
C660   C676    1.402   .     A
C660   C662    1.462   .     S
C661   H687    1.085   .     S
C661   C667    1.388   .     A
C661   C858    1.379   .     S
C662   O693    1.290   .     A
C662   O692    1.297   .     A
C663   C664    1.411   .     A
C663   C700    1.511   .     S
C663   C1051   1.379   1_545 S
C664   C672    1.413   .     S
C664   C665    1.411   .     A
C665   C704    1.512   .     S
C665   C1056   1.379   1_545 S
C666   H680    1.085   .     S
C666   C667    1.388   .     A
C666   C860    1.379   .     S
C668   N689    1.366   .     A
C668   H708    1.079   .     S
C668   C734    1.415   .     S
C669   N688    1.366   .     A
C669   H681    1.081   .     S
C670   N688    1.367   .     A
C670   H682    1.081   .     S
C671   N689    1.367   .     A
C671   H709    1.081   .     S
C671   C735    1.416   .     S
C672   O695    1.280   .     A
C672   O694    1.280   .     A
C673   C675    1.459   .     S
C673   O697    1.297   .     A
C673   O696    1.287   .     A
C676   C677    1.385   .     A
C676   H714    1.083   .     S
C677   C93     1.389   1_556 S
C677   H130    1.082   1_556 S
C678   H685    1.077   .     S
H684   C89     1.083   1_556 S
N688   Zn698   2.011   .     S
N689   Zn699   2.011   .     S
O690   Zn698   1.986   .     S
O691   Zn699   1.985   .     S
O692   Zn698   1.964   .     S
O693   Zn699   1.929   .     S
O694   Zn698   1.985   .     S
O695   Zn699   1.986   .     S
O696   Zn698   1.929   .     S
O697   Zn699   1.964   .     S
C700   H702    1.107   .     S
C700   H703    1.111   .     S
C700   H701    1.109   .     S
C704   H706    1.111   .     S
C704   H705    1.110   .     S
C704   H707    1.111   .     S
C710   H711    1.110   .     S
C710   H713    1.111   .     S
C710   H712    1.107   .     S
C716   O756    1.279   .     A
C716   O755    1.279   .     A
C716   C732    1.402   .     S
C717   C718    1.410   .     A
C717   C134    1.416   1_556 S
C717   C158    1.416   1_556 S
C718   C725    1.421   .     A
C718   C722    1.419   .     A
C719   C723    1.392   .     A
C720   C721    1.390   .     A
C720   C134    1.413   1_556 S
C720   C154    1.403   1_556 S
C721   C722    1.391   .     A
C721   H748    1.084   .     S
C722   H751    1.080   .     S
C723   C775    1.522   .     S
C723   C740    1.410   .     A
C724   C739    1.397   .     A
C724   H744    1.082   .     S
C724   C740    1.403   .     A
C725   C741    1.402   .     A
C725   C727    1.462   .     S
C726   H752    1.085   .     S
C726   C732    1.388   .     A
C726   C923    1.379   .     S
C727   O758    1.290   .     A
C727   O757    1.297   .     A
C728   C729    1.411   .     A
C728   C765    1.511   .     S
C728   C1116   1.379   1_545 S
C729   C737    1.413   .     S
C729   C730    1.411   .     A
C730   C769    1.512   .     S
C730   C1121   1.379   1_545 S
C731   H745    1.085   .     S
C731   C732    1.388   .     A
C731   C925    1.379   .     S
C733   N754    1.366   .     A
C733   H773    1.079   .     S
C733   C604    1.415   1_655 S
C734   N753    1.366   .     A
C734   H746    1.081   .     S
C735   N753    1.367   .     A
C735   H747    1.081   .     S
C736   N754    1.367   .     A
C736   H774    1.081   .     S
C736   C605    1.416   1_655 S
C737   O760    1.280   .     A
C737   O759    1.280   .     A
C738   C740    1.459   .     S
C738   O762    1.297   .     A
C738   O761    1.287   .     A
C741   C742    1.385   .     A
C741   H779    1.083   .     S
C742   C158    1.389   1_556 S
C742   H195    1.082   1_556 S
C743   H750    1.077   .     S
H749   C154    1.083   1_556 S
N753   Zn763   2.011   .     S
N754   Zn764   2.011   .     S
O755   Zn763   1.986   .     S
O756   Zn764   1.985   .     S
O757   Zn763   1.964   .     S
O758   Zn764   1.929   .     S
O759   Zn763   1.985   .     S
O760   Zn764   1.986   .     S
O761   Zn763   1.929   .     S
O762   Zn764   1.964   .     S
C765   H767    1.107   .     S
C765   H768    1.111   .     S
C765   H766    1.109   .     S
C769   H771    1.111   .     S
C769   H770    1.110   .     S
C769   H772    1.111   .     S
C775   H776    1.110   .     S
C775   H778    1.111   .     S
C775   H777    1.107   .     S
C781   O821    1.279   .     A
C781   O820    1.279   .     A
C781   C797    1.402   .     S
C782   C783    1.410   .     A
C782   C199    1.416   1_556 S
C782   C223    1.416   1_556 S
C783   C790    1.421   .     A
C783   C787    1.419   .     A
C784   C788    1.392   .     A
C785   C786    1.390   .     A
C785   C199    1.413   1_556 S
C785   C219    1.403   1_556 S
C786   C787    1.391   .     A
C786   H813    1.084   .     S
C787   H816    1.080   .     S
C788   C840    1.522   .     S
C788   C805    1.410   .     A
C789   C804    1.397   .     A
C789   H809    1.082   .     S
C789   C805    1.403   .     A
C790   C806    1.402   .     A
C790   C792    1.462   .     S
C791   H817    1.085   .     S
C791   C797    1.388   .     A
C791   C988    1.379   .     S
C792   O823    1.290   .     A
C792   O822    1.297   .     A
C793   C794    1.411   .     A
C793   C830    1.511   .     S
C794   C802    1.413   .     S
C794   C795    1.411   .     A
C795   C834    1.512   .     S
C796   H810    1.085   .     S
C796   C797    1.388   .     A
C796   C990    1.379   .     S
C798   N819    1.366   .     A
C798   H838    1.079   .     S
C798   C864    1.415   .     S
C799   N818    1.366   .     A
C799   H811    1.081   .     S
C799   C928    1.415   1_455 S
C800   N818    1.367   .     A
C800   H812    1.081   .     S
C800   C931    1.416   1_455 S
C801   N819    1.367   .     A
C801   H839    1.081   .     S
C801   C865    1.416   .     S
C802   O825    1.280   .     A
C802   O824    1.280   .     A
C803   C805    1.459   .     S
C803   O827    1.297   .     A
C803   O826    1.287   .     A
C806   C807    1.385   .     A
C806   H844    1.083   .     S
C807   C223    1.389   1_556 S
C807   H260    1.082   1_556 S
C808   H815    1.077   .     S
H814   C219    1.083   1_556 S
N818   Zn828   2.011   .     S
N819   Zn829   2.011   .     S
O820   Zn828   1.986   .     S
O821   Zn829   1.985   .     S
O822   Zn828   1.964   .     S
O823   Zn829   1.929   .     S
O824   Zn828   1.985   .     S
O825   Zn829   1.986   .     S
O826   Zn828   1.929   .     S
O827   Zn829   1.964   .     S
C830   H832    1.107   .     S
C830   H833    1.111   .     S
C830   H831    1.109   .     S
C834   H836    1.111   .     S
C834   H835    1.110   .     S
C834   H837    1.111   .     S
C840   H841    1.110   .     S
C840   H843    1.111   .     S
C840   H842    1.107   .     S
C846   O886    1.279   .     A
C846   O885    1.279   .     A
C846   C862    1.402   .     S
C847   C848    1.410   .     A
C847   C264    1.416   1_556 S
C847   C288    1.416   1_556 S
C848   C855    1.421   .     A
C848   C852    1.419   .     A
C849   C853    1.392   .     A
C850   C851    1.390   .     A
C850   C264    1.413   1_556 S
C850   C284    1.403   1_556 S
C851   C852    1.391   .     A
C851   H878    1.084   .     S
C852   H881    1.080   .     S
C853   C905    1.522   .     S
C853   C870    1.410   .     A
C854   C869    1.397   .     A
C854   H874    1.082   .     S
C854   C870    1.403   .     A
C855   C871    1.402   .     A
C855   C857    1.462   .     S
C856   H882    1.085   .     S
C856   C862    1.388   .     A
C856   C1053   1.379   .     S
C857   O888    1.290   .     A
C857   O887    1.297   .     A
C858   C859    1.411   .     A
C858   C895    1.511   .     S
C859   C867    1.413   .     S
C859   C860    1.411   .     A
C860   C899    1.512   .     S
C861   H875    1.085   .     S
C861   C862    1.388   .     A
C861   C1055   1.379   .     S
C863   N884    1.366   .     A
C863   H903    1.079   .     S
C863   C929    1.415   .     S
C864   N883    1.366   .     A
C864   H876    1.081   .     S
C865   N883    1.367   .     A
C865   H877    1.081   .     S
C866   N884    1.367   .     A
C866   H904    1.081   .     S
C866   C930    1.416   .     S
C867   O890    1.280   .     A
C867   O889    1.280   .     A
C868   C870    1.459   .     S
C868   O892    1.297   .     A
C868   O891    1.287   .     A
C871   C872    1.385   .     A
C871   H909    1.083   .     S
C872   C288    1.389   1_556 S
C872   H325    1.082   1_556 S
C873   H880    1.077   .     S
H879   C284    1.083   1_556 S
N883   Zn893   2.011   .     S
N884   Zn894   2.011   .     S
O885   Zn893   1.986   .     S
O886   Zn894   1.985   .     S
O887   Zn893   1.964   .     S
O888   Zn894   1.929   .     S
O889   Zn893   1.985   .     S
O890   Zn894   1.986   .     S
O891   Zn893   1.929   .     S
O892   Zn894   1.964   .     S
C895   H897    1.107   .     S
C895   H898    1.111   .     S
C895   H896    1.109   .     S
C899   H901    1.111   .     S
C899   H900    1.110   .     S
C899   H902    1.111   .     S
C905   H906    1.110   .     S
C905   H908    1.111   .     S
C905   H907    1.107   .     S
C911   O951    1.279   .     A
C911   O950    1.279   .     A
C911   C927    1.402   .     S
C912   C913    1.410   .     A
C912   C329    1.416   1_556 S
C912   C353    1.416   1_556 S
C913   C920    1.421   .     A
C913   C917    1.419   .     A
C914   C918    1.392   .     A
C915   C916    1.390   .     A
C915   C329    1.413   1_556 S
C915   C349    1.403   1_556 S
C916   C917    1.391   .     A
C916   H943    1.084   .     S
C917   H946    1.080   .     S
C918   C970    1.522   .     S
C918   C935    1.410   .     A
C919   C934    1.397   .     A
C919   H939    1.082   .     S
C919   C935    1.403   .     A
C920   C936    1.402   .     A
C920   C922    1.462   .     S
C921   H947    1.085   .     S
C921   C927    1.388   .     A
C921   C1118   1.379   .     S
C922   O953    1.290   .     A
C922   O952    1.297   .     A
C923   C924    1.411   .     A
C923   C960    1.511   .     S
C924   C932    1.413   .     S
C924   C925    1.411   .     A
C925   C964    1.512   .     S
C926   H940    1.085   .     S
C926   C927    1.388   .     A
C926   C1120   1.379   .     S
C928   N949    1.366   .     A
C928   H968    1.079   .     S
C928   C799    1.415   1_655 S
C929   N948    1.366   .     A
C929   H941    1.081   .     S
C930   N948    1.367   .     A
C930   H942    1.081   .     S
C931   N949    1.367   .     A
C931   H969    1.081   .     S
C931   C800    1.416   1_655 S
C932   O955    1.280   .     A
C932   O954    1.280   .     A
C933   C935    1.459   .     S
C933   O957    1.297   .     A
C933   O956    1.287   .     A
C936   C937    1.385   .     A
C936   H974    1.083   .     S
C937   C353    1.389   1_556 S
C937   H390    1.082   1_556 S
C938   H945    1.077   .     S
H944   C349    1.083   1_556 S
N948   Zn958   2.011   .     S
N949   Zn959   2.011   .     S
O950   Zn958   1.986   .     S
O951   Zn959   1.985   .     S
O952   Zn958   1.964   .     S
O953   Zn959   1.929   .     S
O954   Zn958   1.985   .     S
O955   Zn959   1.986   .     S
O956   Zn958   1.929   .     S
O957   Zn959   1.964   .     S
C960   H962    1.107   .     S
C960   H963    1.111   .     S
C960   H961    1.109   .     S
C964   H966    1.111   .     S
C964   H965    1.110   .     S
C964   H967    1.111   .     S
C970   H971    1.110   .     S
C970   H973    1.111   .     S
C970   H972    1.107   .     S
C976   O1016   1.279   .     A
C976   O1015   1.279   .     A
C976   C992    1.402   .     S
C977   C978    1.410   .     A
C977   C394    1.416   1_556 S
C977   C418    1.416   1_556 S
C978   C985    1.421   .     A
C978   C982    1.419   .     A
C979   C983    1.392   .     A
C980   C981    1.390   .     A
C980   C394    1.413   1_556 S
C980   C414    1.403   1_556 S
C981   C982    1.391   .     A
C981   H1008   1.084   .     S
C982   H1011   1.080   .     S
C983   C1035   1.522   .     S
C983   C1000   1.410   .     A
C984   C999    1.397   .     A
C984   H1004   1.082   .     S
C984   C1000   1.403   .     A
C985   C1001   1.402   .     A
C985   C987    1.462   .     S
C986   H1012   1.085   .     S
C986   C992    1.388   .     A
C986   C598    1.379   1_565 S
C987   O1018   1.290   .     A
C987   O1017   1.297   .     A
C988   C989    1.411   .     A
C988   C1025   1.511   .     S
C989   C997    1.413   .     S
C989   C990    1.411   .     A
C990   C1029   1.512   .     S
C991   H1005   1.085   .     S
C991   C992    1.388   .     A
C991   C600    1.379   1_565 S
C993   N1014   1.366   .     A
C993   H1033   1.079   .     S
C993   C1059   1.415   .     S
C994   N1013   1.366   .     A
C994   H1006   1.081   .     S
C994   C1123   1.415   1_455 S
C995   N1013   1.367   .     A
C995   H1007   1.081   .     S
C995   C1126   1.416   1_455 S
C996   N1014   1.367   .     A
C996   H1034   1.081   .     S
C996   C1060   1.416   .     S
C997   O1020   1.280   .     A
C997   O1019   1.280   .     A
C998   C1000   1.459   .     S
C998   O1022   1.297   .     A
C998   O1021   1.287   .     A
C1001  C1002   1.385   .     A
C1001  H1039   1.083   .     S
C1002  C418    1.389   1_556 S
C1002  H455    1.082   1_556 S
C1003  H1010   1.077   .     S
H1009  C414    1.083   1_556 S
N1013  Zn1023  2.011   .     S
N1014  Zn1024  2.011   .     S
O1015  Zn1023  1.986   .     S
O1016  Zn1024  1.985   .     S
O1017  Zn1023  1.964   .     S
O1018  Zn1024  1.929   .     S
O1019  Zn1023  1.985   .     S
O1020  Zn1024  1.986   .     S
O1021  Zn1023  1.929   .     S
O1022  Zn1024  1.964   .     S
C1025  H1027   1.107   .     S
C1025  H1028   1.111   .     S
C1025  H1026   1.109   .     S
C1029  H1031   1.111   .     S
C1029  H1030   1.110   .     S
C1029  H1032   1.111   .     S
C1035  H1036   1.110   .     S
C1035  H1038   1.111   .     S
C1035  H1037   1.107   .     S
C1041  O1081   1.279   .     A
C1041  O1080   1.279   .     A
C1041  C1057   1.402   .     S
C1042  C1043   1.410   .     A
C1042  C459    1.416   1_556 S
C1042  C483    1.416   1_556 S
C1043  C1050   1.421   .     A
C1043  C1047   1.419   .     A
C1044  C1048   1.392   .     A
C1045  C1046   1.390   .     A
C1045  C459    1.413   1_556 S
C1045  C479    1.403   1_556 S
C1046  C1047   1.391   .     A
C1046  H1073   1.084   .     S
C1047  H1076   1.080   .     S
C1048  C1100   1.522   .     S
C1048  C1065   1.410   .     A
C1049  C1064   1.397   .     A
C1049  H1069   1.082   .     S
C1049  C1065   1.403   .     A
C1050  C1066   1.402   .     A
C1050  C1052   1.462   .     S
C1051  H1077   1.085   .     S
C1051  C1057   1.388   .     A
C1051  C663    1.379   1_565 S
C1052  O1083   1.290   .     A
C1052  O1082   1.297   .     A
C1053  C1054   1.411   .     A
C1053  C1090   1.511   .     S
C1054  C1062   1.413   .     S
C1054  C1055   1.411   .     A
C1055  C1094   1.512   .     S
C1056  H1070   1.085   .     S
C1056  C1057   1.388   .     A
C1056  C665    1.379   1_565 S
C1058  N1079   1.366   .     A
C1058  H1098   1.079   .     S
C1058  C1124   1.415   .     S
C1059  N1078   1.366   .     A
C1059  H1071   1.081   .     S
C1060  N1078   1.367   .     A
C1060  H1072   1.081   .     S
C1061  N1079   1.367   .     A
C1061  H1099   1.081   .     S
C1061  C1125   1.416   .     S
C1062  O1085   1.280   .     A
C1062  O1084   1.280   .     A
C1063  C1065   1.459   .     S
C1063  O1087   1.297   .     A
C1063  O1086   1.287   .     A
C1066  C1067   1.385   .     A
C1066  H1104   1.083   .     S
C1067  C483    1.389   1_556 S
C1067  H520    1.082   1_556 S
C1068  H1075   1.077   .     S
H1074  C479    1.083   1_556 S
N1078  Zn1088  2.011   .     S
N1079  Zn1089  2.011   .     S
O1080  Zn1088  1.986   .     S
O1081  Zn1089  1.985   .     S
O1082  Zn1088  1.964   .     S
O1083  Zn1089  1.929   .     S
O1084  Zn1088  1.985   .     S
O1085  Zn1089  1.986   .     S
O1086  Zn1088  1.929   .     S
O1087  Zn1089  1.964   .     S
C1090  H1092   1.107   .     S
C1090  H1093   1.111   .     S
C1090  H1091   1.109   .     S
C1094  H1096   1.111   .     S
C1094  H1095   1.110   .     S
C1094  H1097   1.111   .     S
C1100  H1101   1.110   .     S
C1100  H1103   1.111   .     S
C1100  H1102   1.107   .     S
C1106  O1146   1.279   .     A
C1106  O1145   1.279   .     A
C1106  C1122   1.402   .     S
C1107  C1108   1.410   .     A
C1107  C524    1.416   1_556 S
C1107  C548    1.416   1_556 S
C1108  C1115   1.421   .     A
C1108  C1112   1.419   .     A
C1109  C1113   1.392   .     A
C1110  C1111   1.390   .     A
C1110  C524    1.413   1_556 S
C1110  C544    1.403   1_556 S
C1111  C1112   1.391   .     A
C1111  H1138   1.084   .     S
C1112  H1141   1.080   .     S
C1113  C1165   1.522   .     S
C1113  C1130   1.410   .     A
C1114  C1129   1.397   .     A
C1114  H1134   1.082   .     S
C1114  C1130   1.403   .     A
C1115  C1131   1.402   .     A
C1115  C1117   1.462   .     S
C1116  H1142   1.085   .     S
C1116  C1122   1.388   .     A
C1116  C728    1.379   1_565 S
C1117  O1148   1.290   .     A
C1117  O1147   1.297   .     A
C1118  C1119   1.411   .     A
C1118  C1155   1.511   .     S
C1119  C1127   1.413   .     S
C1119  C1120   1.411   .     A
C1120  C1159   1.512   .     S
C1121  H1135   1.085   .     S
C1121  C1122   1.388   .     A
C1121  C730    1.379   1_565 S
C1123  N1144   1.366   .     A
C1123  H1163   1.079   .     S
C1123  C994    1.415   1_655 S
C1124  N1143   1.366   .     A
C1124  H1136   1.081   .     S
C1125  N1143   1.367   .     A
C1125  H1137   1.081   .     S
C1126  N1144   1.367   .     A
C1126  H1164   1.081   .     S
C1126  C995    1.416   1_655 S
C1127  O1150   1.280   .     A
C1127  O1149   1.280   .     A
C1128  C1130   1.459   .     S
C1128  O1152   1.297   .     A
C1128  O1151   1.287   .     A
C1131  C1132   1.385   .     A
C1131  H1169   1.083   .     S
C1132  C548    1.389   1_556 S
C1132  H585    1.082   1_556 S
C1133  H1140   1.077   .     S
H1139  C544    1.083   1_556 S
N1143  Zn1153  2.011   .     S
N1144  Zn1154  2.011   .     S
O1145  Zn1153  1.986   .     S
O1146  Zn1154  1.985   .     S
O1147  Zn1153  1.964   .     S
O1148  Zn1154  1.929   .     S
O1149  Zn1153  1.985   .     S
O1150  Zn1154  1.986   .     S
O1151  Zn1153  1.929   .     S
O1152  Zn1154  1.964   .     S
C1155  H1157   1.107   .     S
C1155  H1158   1.111   .     S
C1155  H1156   1.109   .     S
C1159  H1161   1.111   .     S
C1159  H1160   1.110   .     S
C1159  H1162   1.111   .     S
C1165  H1166   1.110   .     S
C1165  H1168   1.111   .     S
C1165  H1167   1.107   .     S
