data_str_m1_o1_o17_pcu_sym.14
_audit_creation_date              2020-01-03
_audit_creation_method            'Materials Studio'
_symmetry_space_group_name_H-M    'P1'
_symmetry_Int_Tables_number       1
_symmetry_cell_setting            triclinic
loop_
_symmetry_equiv_pos_as_xyz
  x,y,z
_cell_length_a                    36.5247
_cell_length_b                    36.5261
_cell_length_c                    34.4664
_cell_angle_alpha                 90.0000
_cell_angle_beta                  89.9998
_cell_angle_gamma                 89.9816
loop_
_atom_site_label
_atom_site_type_symbol
_atom_site_fract_x
_atom_site_fract_y
_atom_site_fract_z
_atom_site_U_iso_or_equiv
_atom_site_adp_type
_atom_site_occupancy
Br1    Br    0.10291   0.46145   0.27166   0.00000  Uiso   1.00
Br2    Br    0.32660   0.39102   0.16946   0.00000  Uiso   1.00
Br3    Br    0.03855   0.39709   0.72834   0.00000  Uiso   1.00
Br4    Br    0.46144   0.10293   0.27174   0.00000  Uiso   1.00
Br5    Br    0.32667   0.39109   0.83058   0.00000  Uiso   1.00
Br6    Br    0.17349   0.10906   0.16950   0.00000  Uiso   1.00
Br7    Br    0.46145   0.10291   0.72834   0.00000  Uiso   1.00
Br8    Br    0.03855   0.39709   0.27166   0.00000  Uiso   1.00
Br9    Br    0.35291   0.21145   0.77166   0.00000  Uiso   1.00
Br10   Br    0.14709   0.28855   0.22834   0.00000  Uiso   1.00
Br11   Br    0.35891   0.42332   0.66942   0.00000  Uiso   1.00
Br12   Br    0.39709   0.03855   0.72834   0.00000  Uiso   1.00
Br13   Br    0.14094   0.07652   0.33051   0.00000  Uiso   1.00
Br14   Br    0.14709   0.28855   0.77166   0.00000  Uiso   1.00
Br15   Br    0.35293   0.21143   0.22826   0.00000  Uiso   1.00
Br16   Br    0.14103   0.07661   0.66945   0.00000  Uiso   1.00
Br17   Br    0.35898   0.42340   0.33054   0.00000  Uiso   1.00
Br18   Br    0.42339   0.35897   0.33055   0.00000  Uiso   1.00
Br19   Br    0.07661   0.14103   0.66945   0.00000  Uiso   1.00
Br20   Br    0.28857   0.14707   0.22826   0.00000  Uiso   1.00
Br21   Br    0.21145   0.35291   0.77166   0.00000  Uiso   1.00
Br22   Br    0.07652   0.14094   0.33051   0.00000  Uiso   1.00
Br23   Br    0.10906   0.17349   0.16950   0.00000  Uiso   1.00
Br24   Br    0.42332   0.35891   0.66942   0.00000  Uiso   1.00
Br25   Br    0.21145   0.35291   0.22834   0.00000  Uiso   1.00
Br26   Br    0.28855   0.14709   0.77166   0.00000  Uiso   1.00
Br27   Br    0.39109   0.32668   0.83058   0.00000  Uiso   1.00
Br28   Br    0.39707   0.03857   0.27174   0.00000  Uiso   1.00
Br29   Br    0.10291   0.46145   0.72834   0.00000  Uiso   1.00
Br30   Br    0.39102   0.32660   0.16946   0.00000  Uiso   1.00
Br31   Br    0.10897   0.17339   0.83055   0.00000  Uiso   1.00
Br32   Br    0.17339   0.10897   0.83055   0.00000  Uiso   1.00
C33    C     0.46678   0.25224   0.41884   0.00000  Uiso   1.00
C34    C     0.21673   0.00129   0.08116   0.00000  Uiso   1.00
C35    C     0.24807   0.03347   0.54070   0.00000  Uiso   1.00
C36    C     0.46655   0.25228   0.45930   0.00000  Uiso   1.00
C37    C     0.03345   0.24772   0.54070   0.00000  Uiso   1.00
C38    C     0.24807   0.03347   0.45930   0.00000  Uiso   1.00
C39    C     0.25193   0.46653   0.54070   0.00000  Uiso   1.00
C40    C     0.21650   0.00131   0.95931   0.00000  Uiso   1.00
C41    C     0.28351   0.49869   0.04069   0.00000  Uiso   1.00
C42    C     0.49801   0.28347   0.95930   0.00000  Uiso   1.00
C43    C     0.00199   0.21653   0.04070   0.00000  Uiso   1.00
C44    C     0.28351   0.49869   0.95931   0.00000  Uiso   1.00
C45    C     0.00197   0.21676   0.91884   0.00000  Uiso   1.00
C46    C     0.21650   0.00131   0.04069   0.00000  Uiso   1.00
C47    C     0.00199   0.21653   0.95930   0.00000  Uiso   1.00
C48    C     0.49801   0.28347   0.04070   0.00000  Uiso   1.00
C49    C     0.09808   0.34808   0.25000   0.00000  Uiso   1.00
C50    C     0.40192   0.15192   0.75000   0.00000  Uiso   1.00
C51    C     0.15193   0.09807   0.25000   0.00000  Uiso   1.00
C52    C     0.34807   0.40193   0.75000   0.00000  Uiso   1.00
C53    C     0.40192   0.15192   0.25000   0.00000  Uiso   1.00
C54    C     0.09808   0.34808   0.75000   0.00000  Uiso   1.00
C55    C     0.34807   0.40193   0.25000   0.00000  Uiso   1.00
C56    C     0.49803   0.28324   0.08116   0.00000  Uiso   1.00
C57    C     0.15193   0.09807   0.75000   0.00000  Uiso   1.00
C58    C     0.09807   0.15193   0.75000   0.00000  Uiso   1.00
C59    C     0.40193   0.34807   0.25000   0.00000  Uiso   1.00
C60    C     0.15192   0.40192   0.75000   0.00000  Uiso   1.00
C61    C     0.34808   0.09808   0.25000   0.00000  Uiso   1.00
C62    C     0.40193   0.34807   0.75000   0.00000  Uiso   1.00
C63    C     0.09807   0.15193   0.25000   0.00000  Uiso   1.00
C64    C     0.34808   0.09808   0.75000   0.00000  Uiso   1.00
C65    C     0.15192   0.40192   0.25000   0.00000  Uiso   1.00
C66    C     0.00000   0.25000   0.47964   0.00000  Uiso   1.00
C67    C     0.21673   0.00129   0.91884   0.00000  Uiso   1.00
C68    C     0.00000   0.25000   0.52036   0.00000  Uiso   1.00
C69    C     0.25000   0.00000   0.47964   0.00000  Uiso   1.00
C70    C     0.25000   0.00000   0.52036   0.00000  Uiso   1.00
C71    C     0.25000  -0.00000   0.97964   0.00000  Uiso   1.00
C72    C     0.25000  -0.00000   0.02036   0.00000  Uiso   1.00
C73    C    -0.00000   0.25000   0.97964   0.00000  Uiso   1.00
C74    C    -0.00000   0.25000   0.02036   0.00000  Uiso   1.00
C75    C     0.28327   0.49871   0.08116   0.00000  Uiso   1.00
C76    C     0.49803   0.28324   0.91884   0.00000  Uiso   1.00
C77    C     0.00196   0.21676   0.08116   0.00000  Uiso   1.00
C78    C     0.00000   0.25000   0.39850   0.00000  Uiso   1.00
C79    C     0.00000   0.25000   0.60150   0.00000  Uiso   1.00
C80    C     0.25000   0.00000   0.39850   0.00000  Uiso   1.00
C81    C     0.03322   0.24776   0.58116   0.00000  Uiso   1.00
C82    C     0.25000   0.00000   0.60150   0.00000  Uiso   1.00
C83    C     0.25000   0.00000   0.89851   0.00000  Uiso   1.00
C84    C     0.25000  -0.00000   0.10150   0.00000  Uiso   1.00
C85    C     0.00000   0.25000   0.89850   0.00000  Uiso   1.00
C86    C    -0.00000   0.25000   0.10150   0.00000  Uiso   1.00
C87    C     0.06655   0.24545   0.47976   0.00000  Uiso   1.00
C88    C     0.43345   0.25455   0.52024   0.00000  Uiso   1.00
C89    C     0.25386   0.43341   0.47976   0.00000  Uiso   1.00
C90    C     0.24614   0.06659   0.52024   0.00000  Uiso   1.00
C91    C     0.43345   0.25455   0.47976   0.00000  Uiso   1.00
C92    C     0.24810   0.03324   0.41884   0.00000  Uiso   1.00
C93    C     0.06655   0.24545   0.52024   0.00000  Uiso   1.00
C94    C     0.24614   0.06659   0.47976   0.00000  Uiso   1.00
C95    C     0.25386   0.43341   0.52024   0.00000  Uiso   1.00
C96    C     0.18335   0.00261   0.97977   0.00000  Uiso   1.00
C97    C     0.31665   0.49739   0.02023   0.00000  Uiso   1.00
C98    C     0.49601   0.31658   0.97976   0.00000  Uiso   1.00
C99    C     0.00399   0.18342   0.02024   0.00000  Uiso   1.00
C100   C     0.31665   0.49739   0.97976   0.00000  Uiso   1.00
C101   C     0.18335   0.00261   0.02024   0.00000  Uiso   1.00
C102   C     0.00399   0.18342   0.97976   0.00000  Uiso   1.00
C103   C     0.25190   0.46676   0.58116   0.00000  Uiso   1.00
C104   C     0.49601   0.31658   0.02024   0.00000  Uiso   1.00
C105   C     0.25000   0.00000   0.35603   0.00000  Uiso   1.00
C106   C     0.25000   0.00000   0.64397   0.00000  Uiso   1.00
C107   C     0.00000   0.25000   0.35603   0.00000  Uiso   1.00
C108   C     0.00000   0.25000   0.64397   0.00000  Uiso   1.00
C109   C     0.00000   0.25000   0.85603   0.00000  Uiso   1.00
C110   C     0.00000   0.25000   0.14397   0.00000  Uiso   1.00
C111   C     0.25000   0.00000   0.85603   0.00000  Uiso   1.00
C112   C     0.25000   0.00000   0.14397   0.00000  Uiso   1.00
C113   C     0.17999   0.07001   0.25000   0.00000  Uiso   1.00
C114   C     0.03322   0.24776   0.41884   0.00000  Uiso   1.00
C115   C     0.32001   0.42999   0.75000   0.00000  Uiso   1.00
C116   C     0.42999   0.17999   0.25000   0.00000  Uiso   1.00
C117   C     0.07001   0.32001   0.75000   0.00000  Uiso   1.00
C118   C     0.32001   0.42999   0.25000   0.00000  Uiso   1.00
C119   C     0.17999   0.07001   0.75000   0.00000  Uiso   1.00
C120   C     0.07001   0.32001   0.25000   0.00000  Uiso   1.00
C121   C     0.42999   0.17999   0.75000   0.00000  Uiso   1.00
C122   C     0.17999   0.42999   0.75000   0.00000  Uiso   1.00
C123   C     0.32001   0.07001   0.25000   0.00000  Uiso   1.00
C124   C     0.42999   0.32001   0.75000   0.00000  Uiso   1.00
C125   C     0.46678   0.25224   0.58116   0.00000  Uiso   1.00
C126   C     0.07001   0.17999   0.25000   0.00000  Uiso   1.00
C127   C     0.32001   0.07001   0.75000   0.00000  Uiso   1.00
C128   C     0.17999   0.42999   0.25000   0.00000  Uiso   1.00
C129   C     0.07001   0.17999   0.75000   0.00000  Uiso   1.00
C130   C     0.42999   0.32001   0.25000   0.00000  Uiso   1.00
C131   C     0.11548   0.41158   0.25837   0.00000  Uiso   1.00
C132   C     0.38452   0.08842   0.74163   0.00000  Uiso   1.00
C133   C     0.11784   0.14491   0.21577   0.00000  Uiso   1.00
C134   C     0.38222   0.35516   0.78425   0.00000  Uiso   1.00
C135   C     0.38452   0.08843   0.25841   0.00000  Uiso   1.00
C136   C     0.25190   0.46676   0.41884   0.00000  Uiso   1.00
C137   C     0.11548   0.41158   0.74163   0.00000  Uiso   1.00
C138   C     0.38219   0.35513   0.21576   0.00000  Uiso   1.00
C139   C     0.11780   0.14487   0.78424   0.00000  Uiso   1.00
C140   C     0.14487   0.11780   0.78424   0.00000  Uiso   1.00
C141   C     0.35513   0.38219   0.21576   0.00000  Uiso   1.00
C142   C     0.08842   0.38452   0.74163   0.00000  Uiso   1.00
C143   C     0.41157   0.11548   0.25841   0.00000  Uiso   1.00
C144   C     0.35516   0.38222   0.78425   0.00000  Uiso   1.00
C145   C     0.14491   0.11784   0.21577   0.00000  Uiso   1.00
C146   C     0.41158   0.11548   0.74163   0.00000  Uiso   1.00
C147   C     0.24810   0.03324   0.58116   0.00000  Uiso   1.00
C148   C     0.08842   0.38452   0.25837   0.00000  Uiso   1.00
C149   C     0.36548   0.16158   0.75837   0.00000  Uiso   1.00
C150   C     0.13452   0.33842   0.24163   0.00000  Uiso   1.00
C151   C     0.36778   0.39484   0.71575   0.00000  Uiso   1.00
C152   C     0.13216   0.10509   0.28423   0.00000  Uiso   1.00
C153   C     0.13452   0.33842   0.75837   0.00000  Uiso   1.00
C154   C     0.36548   0.16157   0.24159   0.00000  Uiso   1.00
C155   C     0.13220   0.10513   0.71576   0.00000  Uiso   1.00
C156   C     0.36781   0.39487   0.28424   0.00000  Uiso   1.00
C157   C     0.39487   0.36781   0.28424   0.00000  Uiso   1.00
C158   C     0.28327   0.49871   0.91884   0.00000  Uiso   1.00
C159   C     0.10513   0.13220   0.71576   0.00000  Uiso   1.00
C160   C     0.33843   0.13452   0.24159   0.00000  Uiso   1.00
C161   C     0.16158   0.36548   0.75837   0.00000  Uiso   1.00
C162   C     0.10509   0.13216   0.28423   0.00000  Uiso   1.00
C163   C     0.39484   0.36777   0.71575   0.00000  Uiso   1.00
C164   C     0.16158   0.36548   0.24163   0.00000  Uiso   1.00
C165   C     0.33842   0.13452   0.75837   0.00000  Uiso   1.00
C166   C     0.03345   0.24772   0.45930   0.00000  Uiso   1.00
C167   C     0.46655   0.25228   0.54070   0.00000  Uiso   1.00
C168   C     0.25193   0.46653   0.45930   0.00000  Uiso   1.00
H169   H     0.09241   0.24367   0.46447   0.00000  Uiso   1.00
H170   H     0.34256   0.49638   0.03553   0.00000  Uiso   1.00
H171   H     0.49446   0.34245   0.96447   0.00000  Uiso   1.00
H172   H     0.00554   0.15755   0.03553   0.00000  Uiso   1.00
H173   H     0.34256   0.49638   0.96447   0.00000  Uiso   1.00
H174   H     0.15744   0.00362   0.03553   0.00000  Uiso   1.00
H175   H     0.00554   0.15755   0.96447   0.00000  Uiso   1.00
H176   H     0.49446   0.34245   0.03553   0.00000  Uiso   1.00
H177   H     0.44107   0.25404   0.40322   0.00000  Uiso   1.00
H178   H     0.05893   0.24596   0.59678   0.00000  Uiso   1.00
H179   H     0.24657   0.05897   0.40322   0.00000  Uiso   1.00
H180   H     0.40759   0.25633   0.53553   0.00000  Uiso   1.00
H181   H     0.25343   0.44104   0.59678   0.00000  Uiso   1.00
H182   H     0.05893   0.24596   0.40322   0.00000  Uiso   1.00
H183   H     0.44107   0.25404   0.59678   0.00000  Uiso   1.00
H184   H     0.25343   0.44104   0.40322   0.00000  Uiso   1.00
H185   H     0.24657   0.05897   0.59678   0.00000  Uiso   1.00
H186   H     0.30902   0.49767   0.90322   0.00000  Uiso   1.00
H187   H     0.19098   0.00233   0.09678   0.00000  Uiso   1.00
H188   H     0.00354   0.19104   0.90322   0.00000  Uiso   1.00
H189   H     0.49646   0.30896   0.09678   0.00000  Uiso   1.00
H190   H     0.19098   0.00233   0.90322   0.00000  Uiso   1.00
H191   H     0.25537   0.40753   0.46447   0.00000  Uiso   1.00
H192   H     0.30902   0.49767   0.09678   0.00000  Uiso   1.00
H193   H     0.49646   0.30896   0.90322   0.00000  Uiso   1.00
H194   H     0.00354   0.19104   0.09678   0.00000  Uiso   1.00
H195   H     0.24463   0.09247   0.53553   0.00000  Uiso   1.00
H196   H     0.40759   0.25633   0.46447   0.00000  Uiso   1.00
H197   H     0.09241   0.24367   0.53553   0.00000  Uiso   1.00
H198   H     0.24463   0.09247   0.46447   0.00000  Uiso   1.00
H199   H     0.25537   0.40753   0.53553   0.00000  Uiso   1.00
H200   H     0.15744   0.00362   0.96447   0.00000  Uiso   1.00
O201   O     0.25000   0.00000   0.25000   0.00000  Uiso   1.00
O202   O     0.25000   0.46964   0.66245   0.00000  Uiso   1.00
O203   O     0.46964   0.25000   0.33755   0.00000  Uiso   1.00
O204   O     0.03037   0.25000   0.66245   0.00000  Uiso   1.00
O205   O     0.00000   0.21964   0.83755   0.00000  Uiso   1.00
O206   O     0.00000   0.28037   0.16245   0.00000  Uiso   1.00
O207   O     0.28037   0.00000   0.83755   0.00000  Uiso   1.00
O208   O     0.21964   0.00000   0.16245   0.00000  Uiso   1.00
O209   O     0.00000   0.28037   0.83755   0.00000  Uiso   1.00
O210   O     0.00000   0.21964   0.16245   0.00000  Uiso   1.00
O211   O     0.21964   0.00000   0.83755   0.00000  Uiso   1.00
O212   O     0.25000   0.00000   0.75000   0.00000  Uiso   1.00
O213   O     0.28037   0.00000   0.16245   0.00000  Uiso   1.00
O214   O     0.20725   0.07308   0.27302   0.00000  Uiso   1.00
O215   O     0.29276   0.42693   0.72698   0.00000  Uiso   1.00
O216   O     0.42693   0.20725   0.27302   0.00000  Uiso   1.00
O217   O     0.07308   0.29276   0.72698   0.00000  Uiso   1.00
O218   O     0.29276   0.42693   0.27302   0.00000  Uiso   1.00
O219   O     0.20725   0.07308   0.72698   0.00000  Uiso   1.00
O220   O     0.07308   0.29276   0.27302   0.00000  Uiso   1.00
O221   O     0.42693   0.20725   0.72698   0.00000  Uiso   1.00
O222   O     0.20725   0.42693   0.72698   0.00000  Uiso   1.00
O223   O     0.00000   0.25000   0.25000   0.00000  Uiso   1.00
O224   O     0.29276   0.07308   0.27302   0.00000  Uiso   1.00
O225   O     0.42693   0.29276   0.72698   0.00000  Uiso   1.00
O226   O     0.07308   0.20725   0.27302   0.00000  Uiso   1.00
O227   O     0.29276   0.07308   0.72698   0.00000  Uiso   1.00
O228   O     0.20725   0.42693   0.27302   0.00000  Uiso   1.00
O229   O     0.07308   0.20725   0.72698   0.00000  Uiso   1.00
O230   O     0.42693   0.29276   0.27302   0.00000  Uiso   1.00
O231   O     0.45725   0.32308   0.77302   0.00000  Uiso   1.00
O232   O     0.04276   0.17693   0.22698   0.00000  Uiso   1.00
O233   O     0.17693   0.45725   0.77302   0.00000  Uiso   1.00
O234   O     0.00000   0.25000   0.75000   0.00000  Uiso   1.00
O235   O     0.32308   0.04276   0.22698   0.00000  Uiso   1.00
O236   O     0.04276   0.17693   0.77302   0.00000  Uiso   1.00
O237   O     0.45725   0.32308   0.22698   0.00000  Uiso   1.00
O238   O     0.32308   0.04276   0.77302   0.00000  Uiso   1.00
O239   O     0.17693   0.45725   0.22698   0.00000  Uiso   1.00
O240   O     0.45725   0.17693   0.22698   0.00000  Uiso   1.00
O241   O     0.04276   0.32308   0.77302   0.00000  Uiso   1.00
O242   O     0.17693   0.04276   0.22698   0.00000  Uiso   1.00
O243   O     0.32308   0.45725   0.77302   0.00000  Uiso   1.00
O244   O     0.04276   0.32308   0.22698   0.00000  Uiso   1.00
O245   O     0.25000   0.46964   0.33755   0.00000  Uiso   1.00
O246   O     0.45725   0.17693   0.77302   0.00000  Uiso   1.00
O247   O     0.32308   0.45725   0.22698   0.00000  Uiso   1.00
O248   O     0.17693   0.04276   0.77302   0.00000  Uiso   1.00
O249   O     0.25000   0.03037   0.66245   0.00000  Uiso   1.00
O250   O     0.03037   0.25000   0.33755   0.00000  Uiso   1.00
O251   O     0.46964   0.25000   0.66245   0.00000  Uiso   1.00
O252   O     0.25000   0.03037   0.33755   0.00000  Uiso   1.00
Zn253  Zn    0.20660   0.00000   0.21735   0.00000  Uiso   1.00
Zn254  Zn    0.04341   0.25000   0.28265   0.00000  Uiso   1.00
Zn255  Zn    0.25000   0.45660   0.71735   0.00000  Uiso   1.00
Zn256  Zn    0.25000   0.04341   0.28265   0.00000  Uiso   1.00
Zn257  Zn    0.04341   0.25000   0.71735   0.00000  Uiso   1.00
Zn258  Zn    0.45660   0.25000   0.28265   0.00000  Uiso   1.00
Zn259  Zn    0.25000   0.04341   0.71735   0.00000  Uiso   1.00
Zn260  Zn    0.25000   0.45660   0.28265   0.00000  Uiso   1.00
Zn261  Zn    0.29341   0.00000   0.78265   0.00000  Uiso   1.00
Zn262  Zn    0.00000   0.20660   0.21735   0.00000  Uiso   1.00
Zn263  Zn    0.00000   0.29341   0.78265   0.00000  Uiso   1.00
Zn264  Zn    0.29341   0.00000   0.21735   0.00000  Uiso   1.00
Zn265  Zn    0.20660   0.00000   0.78265   0.00000  Uiso   1.00
Zn266  Zn    0.00000   0.29341   0.21735   0.00000  Uiso   1.00
Zn267  Zn    0.00000   0.20660   0.78265   0.00000  Uiso   1.00
Zn268  Zn    0.45660   0.25000   0.71735   0.00000  Uiso   1.00
Br269  Br    0.60291   0.46145   0.27166   0.00000  Uiso   1.00
Br270  Br    0.82660   0.39102   0.16946   0.00000  Uiso   1.00
Br271  Br    0.53855   0.39709   0.72834   0.00000  Uiso   1.00
Br272  Br    0.96144   0.10293   0.27174   0.00000  Uiso   1.00
Br273  Br    0.82667   0.39109   0.83058   0.00000  Uiso   1.00
Br274  Br    0.67349   0.10906   0.16950   0.00000  Uiso   1.00
Br275  Br    0.96145   0.10291   0.72834   0.00000  Uiso   1.00
Br276  Br    0.53855   0.39709   0.27166   0.00000  Uiso   1.00
Br277  Br    0.85291   0.21145   0.77166   0.00000  Uiso   1.00
Br278  Br    0.64709   0.28855   0.22834   0.00000  Uiso   1.00
Br279  Br    0.85891   0.42332   0.66942   0.00000  Uiso   1.00
Br280  Br    0.89709   0.03855   0.72834   0.00000  Uiso   1.00
Br281  Br    0.64094   0.07652   0.33051   0.00000  Uiso   1.00
Br282  Br    0.64709   0.28855   0.77166   0.00000  Uiso   1.00
Br283  Br    0.85293   0.21143   0.22826   0.00000  Uiso   1.00
Br284  Br    0.64103   0.07661   0.66945   0.00000  Uiso   1.00
Br285  Br    0.85898   0.42340   0.33054   0.00000  Uiso   1.00
Br286  Br    0.92339   0.35897   0.33055   0.00000  Uiso   1.00
Br287  Br    0.57661   0.14103   0.66945   0.00000  Uiso   1.00
Br288  Br    0.78857   0.14707   0.22826   0.00000  Uiso   1.00
Br289  Br    0.71145   0.35291   0.77166   0.00000  Uiso   1.00
Br290  Br    0.57652   0.14094   0.33051   0.00000  Uiso   1.00
Br291  Br    0.60906   0.17349   0.16950   0.00000  Uiso   1.00
Br292  Br    0.92332   0.35891   0.66942   0.00000  Uiso   1.00
Br293  Br    0.71145   0.35291   0.22834   0.00000  Uiso   1.00
Br294  Br    0.78855   0.14709   0.77166   0.00000  Uiso   1.00
Br295  Br    0.89109   0.32668   0.83058   0.00000  Uiso   1.00
Br296  Br    0.89707   0.03857   0.27174   0.00000  Uiso   1.00
Br297  Br    0.60291   0.46145   0.72834   0.00000  Uiso   1.00
Br298  Br    0.89102   0.32660   0.16946   0.00000  Uiso   1.00
Br299  Br    0.60897   0.17339   0.83055   0.00000  Uiso   1.00
Br300  Br    0.67339   0.10897   0.83055   0.00000  Uiso   1.00
C301   C     0.96678   0.25224   0.41884   0.00000  Uiso   1.00
C302   C     0.71673   0.00129   0.08116   0.00000  Uiso   1.00
C303   C     0.74807   0.03347   0.54070   0.00000  Uiso   1.00
C304   C     0.96655   0.25228   0.45930   0.00000  Uiso   1.00
C305   C     0.53345   0.24772   0.54070   0.00000  Uiso   1.00
C306   C     0.74807   0.03347   0.45930   0.00000  Uiso   1.00
C307   C     0.75193   0.46653   0.54070   0.00000  Uiso   1.00
C308   C     0.71650   0.00131   0.95931   0.00000  Uiso   1.00
C309   C     0.78351   0.49869   0.04069   0.00000  Uiso   1.00
C310   C     0.99801   0.28347   0.95930   0.00000  Uiso   1.00
C311   C     0.50199   0.21653   0.04070   0.00000  Uiso   1.00
C312   C     0.78351   0.49869   0.95931   0.00000  Uiso   1.00
C313   C     0.50197   0.21676   0.91884   0.00000  Uiso   1.00
C314   C     0.71650   0.00131   0.04069   0.00000  Uiso   1.00
C315   C     0.50199   0.21653   0.95930   0.00000  Uiso   1.00
C316   C     0.99801   0.28347   0.04070   0.00000  Uiso   1.00
C317   C     0.59808   0.34808   0.25000   0.00000  Uiso   1.00
C318   C     0.90192   0.15192   0.75000   0.00000  Uiso   1.00
C319   C     0.65193   0.09807   0.25000   0.00000  Uiso   1.00
C320   C     0.84807   0.40193   0.75000   0.00000  Uiso   1.00
C321   C     0.90192   0.15192   0.25000   0.00000  Uiso   1.00
C322   C     0.59808   0.34808   0.75000   0.00000  Uiso   1.00
C323   C     0.84807   0.40193   0.25000   0.00000  Uiso   1.00
C324   C     0.99803   0.28324   0.08116   0.00000  Uiso   1.00
C325   C     0.65193   0.09807   0.75000   0.00000  Uiso   1.00
C326   C     0.59807   0.15193   0.75000   0.00000  Uiso   1.00
C327   C     0.90193   0.34807   0.25000   0.00000  Uiso   1.00
C328   C     0.65192   0.40192   0.75000   0.00000  Uiso   1.00
C329   C     0.84808   0.09808   0.25000   0.00000  Uiso   1.00
C330   C     0.90193   0.34807   0.75000   0.00000  Uiso   1.00
C331   C     0.59807   0.15193   0.25000   0.00000  Uiso   1.00
C332   C     0.84808   0.09808   0.75000   0.00000  Uiso   1.00
C333   C     0.65192   0.40192   0.25000   0.00000  Uiso   1.00
C334   C     0.50000   0.25000   0.47964   0.00000  Uiso   1.00
C335   C     0.71673   0.00129   0.91884   0.00000  Uiso   1.00
C336   C     0.50000   0.25000   0.52036   0.00000  Uiso   1.00
C337   C     0.75000   0.00000   0.47964   0.00000  Uiso   1.00
C338   C     0.75000   0.00000   0.52036   0.00000  Uiso   1.00
C339   C     0.75000  -0.00000   0.97964   0.00000  Uiso   1.00
C340   C     0.75000  -0.00000   0.02036   0.00000  Uiso   1.00
C341   C     0.50000   0.25000   0.97964   0.00000  Uiso   1.00
C342   C     0.50000   0.25000   0.02036   0.00000  Uiso   1.00
C343   C     0.78327   0.49871   0.08116   0.00000  Uiso   1.00
C344   C     0.99803   0.28324   0.91884   0.00000  Uiso   1.00
C345   C     0.50196   0.21676   0.08116   0.00000  Uiso   1.00
C346   C     0.50000   0.25000   0.39850   0.00000  Uiso   1.00
C347   C     0.50000   0.25000   0.60150   0.00000  Uiso   1.00
C348   C     0.75000   0.00000   0.39850   0.00000  Uiso   1.00
C349   C     0.53322   0.24776   0.58116   0.00000  Uiso   1.00
C350   C     0.75000   0.00000   0.60150   0.00000  Uiso   1.00
C351   C     0.75000   0.00000   0.89851   0.00000  Uiso   1.00
C352   C     0.75000  -0.00000   0.10150   0.00000  Uiso   1.00
C353   C     0.50000   0.25000   0.89850   0.00000  Uiso   1.00
C354   C     0.50000   0.25000   0.10150   0.00000  Uiso   1.00
C355   C     0.56655   0.24545   0.47976   0.00000  Uiso   1.00
C356   C     0.93345   0.25455   0.52024   0.00000  Uiso   1.00
C357   C     0.75386   0.43341   0.47976   0.00000  Uiso   1.00
C358   C     0.74614   0.06659   0.52024   0.00000  Uiso   1.00
C359   C     0.93345   0.25455   0.47976   0.00000  Uiso   1.00
C360   C     0.74810   0.03324   0.41884   0.00000  Uiso   1.00
C361   C     0.56655   0.24545   0.52024   0.00000  Uiso   1.00
C362   C     0.74614   0.06659   0.47976   0.00000  Uiso   1.00
C363   C     0.75386   0.43341   0.52024   0.00000  Uiso   1.00
C364   C     0.68335   0.00261   0.97977   0.00000  Uiso   1.00
C365   C     0.81665   0.49739   0.02023   0.00000  Uiso   1.00
C366   C     0.99601   0.31658   0.97976   0.00000  Uiso   1.00
C367   C     0.50399   0.18342   0.02024   0.00000  Uiso   1.00
C368   C     0.81665   0.49739   0.97976   0.00000  Uiso   1.00
C369   C     0.68335   0.00261   0.02024   0.00000  Uiso   1.00
C370   C     0.50399   0.18342   0.97976   0.00000  Uiso   1.00
C371   C     0.75190   0.46676   0.58116   0.00000  Uiso   1.00
C372   C     0.99601   0.31658   0.02024   0.00000  Uiso   1.00
C373   C     0.75000   0.00000   0.35603   0.00000  Uiso   1.00
C374   C     0.75000   0.00000   0.64397   0.00000  Uiso   1.00
C375   C     0.50000   0.25000   0.35603   0.00000  Uiso   1.00
C376   C     0.50000   0.25000   0.64397   0.00000  Uiso   1.00
C377   C     0.50000   0.25000   0.85603   0.00000  Uiso   1.00
C378   C     0.50000   0.25000   0.14397   0.00000  Uiso   1.00
C379   C     0.75000   0.00000   0.85603   0.00000  Uiso   1.00
C380   C     0.75000   0.00000   0.14397   0.00000  Uiso   1.00
C381   C     0.67999   0.07001   0.25000   0.00000  Uiso   1.00
C382   C     0.53322   0.24776   0.41884   0.00000  Uiso   1.00
C383   C     0.82001   0.42999   0.75000   0.00000  Uiso   1.00
C384   C     0.92999   0.17999   0.25000   0.00000  Uiso   1.00
C385   C     0.57001   0.32001   0.75000   0.00000  Uiso   1.00
C386   C     0.82001   0.42999   0.25000   0.00000  Uiso   1.00
C387   C     0.67999   0.07001   0.75000   0.00000  Uiso   1.00
C388   C     0.57001   0.32001   0.25000   0.00000  Uiso   1.00
C389   C     0.92999   0.17999   0.75000   0.00000  Uiso   1.00
C390   C     0.67999   0.42999   0.75000   0.00000  Uiso   1.00
C391   C     0.82001   0.07001   0.25000   0.00000  Uiso   1.00
C392   C     0.92999   0.32001   0.75000   0.00000  Uiso   1.00
C393   C     0.96678   0.25224   0.58116   0.00000  Uiso   1.00
C394   C     0.57001   0.17999   0.25000   0.00000  Uiso   1.00
C395   C     0.82001   0.07001   0.75000   0.00000  Uiso   1.00
C396   C     0.67999   0.42999   0.25000   0.00000  Uiso   1.00
C397   C     0.57001   0.17999   0.75000   0.00000  Uiso   1.00
C398   C     0.92999   0.32001   0.25000   0.00000  Uiso   1.00
C399   C     0.61548   0.41158   0.25837   0.00000  Uiso   1.00
C400   C     0.88452   0.08842   0.74163   0.00000  Uiso   1.00
C401   C     0.61784   0.14491   0.21577   0.00000  Uiso   1.00
C402   C     0.88222   0.35516   0.78425   0.00000  Uiso   1.00
C403   C     0.88452   0.08843   0.25841   0.00000  Uiso   1.00
C404   C     0.75190   0.46676   0.41884   0.00000  Uiso   1.00
C405   C     0.61548   0.41158   0.74163   0.00000  Uiso   1.00
C406   C     0.88219   0.35513   0.21576   0.00000  Uiso   1.00
C407   C     0.61780   0.14487   0.78424   0.00000  Uiso   1.00
C408   C     0.64487   0.11780   0.78424   0.00000  Uiso   1.00
C409   C     0.85513   0.38219   0.21576   0.00000  Uiso   1.00
C410   C     0.58842   0.38452   0.74163   0.00000  Uiso   1.00
C411   C     0.91157   0.11548   0.25841   0.00000  Uiso   1.00
C412   C     0.85516   0.38222   0.78425   0.00000  Uiso   1.00
C413   C     0.64491   0.11784   0.21577   0.00000  Uiso   1.00
C414   C     0.91158   0.11548   0.74163   0.00000  Uiso   1.00
C415   C     0.74810   0.03324   0.58116   0.00000  Uiso   1.00
C416   C     0.58842   0.38452   0.25837   0.00000  Uiso   1.00
C417   C     0.86548   0.16158   0.75837   0.00000  Uiso   1.00
C418   C     0.63452   0.33842   0.24163   0.00000  Uiso   1.00
C419   C     0.86778   0.39484   0.71575   0.00000  Uiso   1.00
C420   C     0.63216   0.10509   0.28423   0.00000  Uiso   1.00
C421   C     0.63452   0.33842   0.75837   0.00000  Uiso   1.00
C422   C     0.86548   0.16157   0.24159   0.00000  Uiso   1.00
C423   C     0.63220   0.10513   0.71576   0.00000  Uiso   1.00
C424   C     0.86781   0.39487   0.28424   0.00000  Uiso   1.00
C425   C     0.89487   0.36781   0.28424   0.00000  Uiso   1.00
C426   C     0.78327   0.49871   0.91884   0.00000  Uiso   1.00
C427   C     0.60513   0.13220   0.71576   0.00000  Uiso   1.00
C428   C     0.83843   0.13452   0.24159   0.00000  Uiso   1.00
C429   C     0.66158   0.36548   0.75837   0.00000  Uiso   1.00
C430   C     0.60509   0.13216   0.28423   0.00000  Uiso   1.00
C431   C     0.89484   0.36777   0.71575   0.00000  Uiso   1.00
C432   C     0.66158   0.36548   0.24163   0.00000  Uiso   1.00
C433   C     0.83842   0.13452   0.75837   0.00000  Uiso   1.00
C434   C     0.53345   0.24772   0.45930   0.00000  Uiso   1.00
C435   C     0.96655   0.25228   0.54070   0.00000  Uiso   1.00
C436   C     0.75193   0.46653   0.45930   0.00000  Uiso   1.00
H437   H     0.59241   0.24367   0.46447   0.00000  Uiso   1.00
H438   H     0.84256   0.49638   0.03553   0.00000  Uiso   1.00
H439   H     0.99446   0.34245   0.96447   0.00000  Uiso   1.00
H440   H     0.50554   0.15755   0.03553   0.00000  Uiso   1.00
H441   H     0.84256   0.49638   0.96447   0.00000  Uiso   1.00
H442   H     0.65744   0.00362   0.03553   0.00000  Uiso   1.00
H443   H     0.50554   0.15755   0.96447   0.00000  Uiso   1.00
H444   H     0.99446   0.34245   0.03553   0.00000  Uiso   1.00
H445   H     0.94107   0.25404   0.40322   0.00000  Uiso   1.00
H446   H     0.55893   0.24596   0.59678   0.00000  Uiso   1.00
H447   H     0.74657   0.05897   0.40322   0.00000  Uiso   1.00
H448   H     0.90759   0.25633   0.53553   0.00000  Uiso   1.00
H449   H     0.75343   0.44104   0.59678   0.00000  Uiso   1.00
H450   H     0.55893   0.24596   0.40322   0.00000  Uiso   1.00
H451   H     0.94107   0.25404   0.59678   0.00000  Uiso   1.00
H452   H     0.75343   0.44104   0.40322   0.00000  Uiso   1.00
H453   H     0.74657   0.05897   0.59678   0.00000  Uiso   1.00
H454   H     0.80902   0.49767   0.90322   0.00000  Uiso   1.00
H455   H     0.69098   0.00233   0.09678   0.00000  Uiso   1.00
H456   H     0.50354   0.19104   0.90322   0.00000  Uiso   1.00
H457   H     0.99646   0.30896   0.09678   0.00000  Uiso   1.00
H458   H     0.69098   0.00233   0.90322   0.00000  Uiso   1.00
H459   H     0.75537   0.40753   0.46447   0.00000  Uiso   1.00
H460   H     0.80902   0.49767   0.09678   0.00000  Uiso   1.00
H461   H     0.99646   0.30896   0.90322   0.00000  Uiso   1.00
H462   H     0.50354   0.19104   0.09678   0.00000  Uiso   1.00
H463   H     0.74463   0.09247   0.53553   0.00000  Uiso   1.00
H464   H     0.90759   0.25633   0.46447   0.00000  Uiso   1.00
H465   H     0.59241   0.24367   0.53553   0.00000  Uiso   1.00
H466   H     0.74463   0.09247   0.46447   0.00000  Uiso   1.00
H467   H     0.75537   0.40753   0.53553   0.00000  Uiso   1.00
H468   H     0.65744   0.00362   0.96447   0.00000  Uiso   1.00
O469   O     0.75000   0.00000   0.25000   0.00000  Uiso   1.00
O470   O     0.75000   0.46964   0.66245   0.00000  Uiso   1.00
O471   O     0.96964   0.25000   0.33755   0.00000  Uiso   1.00
O472   O     0.53037   0.25000   0.66245   0.00000  Uiso   1.00
O473   O     0.50000   0.21964   0.83755   0.00000  Uiso   1.00
O474   O     0.50000   0.28037   0.16245   0.00000  Uiso   1.00
O475   O     0.78037   0.00000   0.83755   0.00000  Uiso   1.00
O476   O     0.71964   0.00000   0.16245   0.00000  Uiso   1.00
O477   O     0.50000   0.28037   0.83755   0.00000  Uiso   1.00
O478   O     0.50000   0.21964   0.16245   0.00000  Uiso   1.00
O479   O     0.71964   0.00000   0.83755   0.00000  Uiso   1.00
O480   O     0.75000   0.00000   0.75000   0.00000  Uiso   1.00
O481   O     0.78037   0.00000   0.16245   0.00000  Uiso   1.00
O482   O     0.70725   0.07308   0.27302   0.00000  Uiso   1.00
O483   O     0.79276   0.42693   0.72698   0.00000  Uiso   1.00
O484   O     0.92693   0.20725   0.27302   0.00000  Uiso   1.00
O485   O     0.57308   0.29276   0.72698   0.00000  Uiso   1.00
O486   O     0.79276   0.42693   0.27302   0.00000  Uiso   1.00
O487   O     0.70725   0.07308   0.72698   0.00000  Uiso   1.00
O488   O     0.57308   0.29276   0.27302   0.00000  Uiso   1.00
O489   O     0.92693   0.20725   0.72698   0.00000  Uiso   1.00
O490   O     0.70725   0.42693   0.72698   0.00000  Uiso   1.00
O491   O     0.50000   0.25000   0.25000   0.00000  Uiso   1.00
O492   O     0.79276   0.07308   0.27302   0.00000  Uiso   1.00
O493   O     0.92693   0.29276   0.72698   0.00000  Uiso   1.00
O494   O     0.57308   0.20725   0.27302   0.00000  Uiso   1.00
O495   O     0.79276   0.07308   0.72698   0.00000  Uiso   1.00
O496   O     0.70725   0.42693   0.27302   0.00000  Uiso   1.00
O497   O     0.57308   0.20725   0.72698   0.00000  Uiso   1.00
O498   O     0.92693   0.29276   0.27302   0.00000  Uiso   1.00
O499   O     0.95725   0.32308   0.77302   0.00000  Uiso   1.00
O500   O     0.54276   0.17693   0.22698   0.00000  Uiso   1.00
O501   O     0.67693   0.45725   0.77302   0.00000  Uiso   1.00
O502   O     0.50000   0.25000   0.75000   0.00000  Uiso   1.00
O503   O     0.82308   0.04276   0.22698   0.00000  Uiso   1.00
O504   O     0.54276   0.17693   0.77302   0.00000  Uiso   1.00
O505   O     0.95725   0.32308   0.22698   0.00000  Uiso   1.00
O506   O     0.82308   0.04276   0.77302   0.00000  Uiso   1.00
O507   O     0.67693   0.45725   0.22698   0.00000  Uiso   1.00
O508   O     0.95725   0.17693   0.22698   0.00000  Uiso   1.00
O509   O     0.54276   0.32308   0.77302   0.00000  Uiso   1.00
O510   O     0.67693   0.04276   0.22698   0.00000  Uiso   1.00
O511   O     0.82308   0.45725   0.77302   0.00000  Uiso   1.00
O512   O     0.54276   0.32308   0.22698   0.00000  Uiso   1.00
O513   O     0.75000   0.46964   0.33755   0.00000  Uiso   1.00
O514   O     0.95725   0.17693   0.77302   0.00000  Uiso   1.00
O515   O     0.82308   0.45725   0.22698   0.00000  Uiso   1.00
O516   O     0.67693   0.04276   0.77302   0.00000  Uiso   1.00
O517   O     0.75000   0.03037   0.66245   0.00000  Uiso   1.00
O518   O     0.53037   0.25000   0.33755   0.00000  Uiso   1.00
O519   O     0.96964   0.25000   0.66245   0.00000  Uiso   1.00
O520   O     0.75000   0.03037   0.33755   0.00000  Uiso   1.00
Zn521  Zn    0.70660   0.00000   0.21735   0.00000  Uiso   1.00
Zn522  Zn    0.54341   0.25000   0.28265   0.00000  Uiso   1.00
Zn523  Zn    0.75000   0.45660   0.71735   0.00000  Uiso   1.00
Zn524  Zn    0.75000   0.04341   0.28265   0.00000  Uiso   1.00
Zn525  Zn    0.54341   0.25000   0.71735   0.00000  Uiso   1.00
Zn526  Zn    0.95660   0.25000   0.28265   0.00000  Uiso   1.00
Zn527  Zn    0.75000   0.04341   0.71735   0.00000  Uiso   1.00
Zn528  Zn    0.75000   0.45660   0.28265   0.00000  Uiso   1.00
Zn529  Zn    0.79341   0.00000   0.78265   0.00000  Uiso   1.00
Zn530  Zn    0.50000   0.20660   0.21735   0.00000  Uiso   1.00
Zn531  Zn    0.50000   0.29341   0.78265   0.00000  Uiso   1.00
Zn532  Zn    0.79341   0.00000   0.21735   0.00000  Uiso   1.00
Zn533  Zn    0.70660   0.00000   0.78265   0.00000  Uiso   1.00
Zn534  Zn    0.50000   0.29341   0.21735   0.00000  Uiso   1.00
Zn535  Zn    0.50000   0.20660   0.78265   0.00000  Uiso   1.00
Zn536  Zn    0.95660   0.25000   0.71735   0.00000  Uiso   1.00
Br537  Br    0.10291   0.96145   0.27166   0.00000  Uiso   1.00
Br538  Br    0.32660   0.89102   0.16946   0.00000  Uiso   1.00
Br539  Br    0.03855   0.89709   0.72834   0.00000  Uiso   1.00
Br540  Br    0.46144   0.60293   0.27174   0.00000  Uiso   1.00
Br541  Br    0.32667   0.89109   0.83058   0.00000  Uiso   1.00
Br542  Br    0.17349   0.60906   0.16950   0.00000  Uiso   1.00
Br543  Br    0.46145   0.60291   0.72834   0.00000  Uiso   1.00
Br544  Br    0.03855   0.89709   0.27166   0.00000  Uiso   1.00
Br545  Br    0.35291   0.71145   0.77166   0.00000  Uiso   1.00
Br546  Br    0.14709   0.78855   0.22834   0.00000  Uiso   1.00
Br547  Br    0.35891   0.92332   0.66942   0.00000  Uiso   1.00
Br548  Br    0.39709   0.53855   0.72834   0.00000  Uiso   1.00
Br549  Br    0.14094   0.57652   0.33051   0.00000  Uiso   1.00
Br550  Br    0.14709   0.78855   0.77166   0.00000  Uiso   1.00
Br551  Br    0.35293   0.71143   0.22826   0.00000  Uiso   1.00
Br552  Br    0.14103   0.57661   0.66945   0.00000  Uiso   1.00
Br553  Br    0.35898   0.92340   0.33054   0.00000  Uiso   1.00
Br554  Br    0.42339   0.85897   0.33055   0.00000  Uiso   1.00
Br555  Br    0.07661   0.64103   0.66945   0.00000  Uiso   1.00
Br556  Br    0.28857   0.64707   0.22826   0.00000  Uiso   1.00
Br557  Br    0.21145   0.85291   0.77166   0.00000  Uiso   1.00
Br558  Br    0.07652   0.64094   0.33051   0.00000  Uiso   1.00
Br559  Br    0.10906   0.67349   0.16950   0.00000  Uiso   1.00
Br560  Br    0.42332   0.85891   0.66942   0.00000  Uiso   1.00
Br561  Br    0.21145   0.85291   0.22834   0.00000  Uiso   1.00
Br562  Br    0.28855   0.64709   0.77166   0.00000  Uiso   1.00
Br563  Br    0.39109   0.82668   0.83058   0.00000  Uiso   1.00
Br564  Br    0.39707   0.53857   0.27174   0.00000  Uiso   1.00
Br565  Br    0.10291   0.96145   0.72834   0.00000  Uiso   1.00
Br566  Br    0.39102   0.82660   0.16946   0.00000  Uiso   1.00
Br567  Br    0.10897   0.67339   0.83055   0.00000  Uiso   1.00
Br568  Br    0.17339   0.60897   0.83055   0.00000  Uiso   1.00
C569   C     0.46678   0.75224   0.41884   0.00000  Uiso   1.00
C570   C     0.21673   0.50129   0.08116   0.00000  Uiso   1.00
C571   C     0.24807   0.53347   0.54070   0.00000  Uiso   1.00
C572   C     0.46655   0.75228   0.45930   0.00000  Uiso   1.00
C573   C     0.03345   0.74772   0.54070   0.00000  Uiso   1.00
C574   C     0.24807   0.53347   0.45930   0.00000  Uiso   1.00
C575   C     0.25193   0.96653   0.54070   0.00000  Uiso   1.00
C576   C     0.21650   0.50131   0.95931   0.00000  Uiso   1.00
C577   C     0.28351   0.99869   0.04069   0.00000  Uiso   1.00
C578   C     0.49801   0.78347   0.95930   0.00000  Uiso   1.00
C579   C     0.00199   0.71653   0.04070   0.00000  Uiso   1.00
C580   C     0.28351   0.99869   0.95931   0.00000  Uiso   1.00
C581   C     0.00197   0.71676   0.91884   0.00000  Uiso   1.00
C582   C     0.21650   0.50131   0.04069   0.00000  Uiso   1.00
C583   C     0.00199   0.71653   0.95930   0.00000  Uiso   1.00
C584   C     0.49801   0.78347   0.04070   0.00000  Uiso   1.00
C585   C     0.09808   0.84808   0.25000   0.00000  Uiso   1.00
C586   C     0.40192   0.65192   0.75000   0.00000  Uiso   1.00
C587   C     0.15193   0.59807   0.25000   0.00000  Uiso   1.00
C588   C     0.34807   0.90193   0.75000   0.00000  Uiso   1.00
C589   C     0.40192   0.65192   0.25000   0.00000  Uiso   1.00
C590   C     0.09808   0.84808   0.75000   0.00000  Uiso   1.00
C591   C     0.34807   0.90193   0.25000   0.00000  Uiso   1.00
C592   C     0.49803   0.78324   0.08116   0.00000  Uiso   1.00
C593   C     0.15193   0.59807   0.75000   0.00000  Uiso   1.00
C594   C     0.09807   0.65193   0.75000   0.00000  Uiso   1.00
C595   C     0.40193   0.84807   0.25000   0.00000  Uiso   1.00
C596   C     0.15192   0.90192   0.75000   0.00000  Uiso   1.00
C597   C     0.34808   0.59808   0.25000   0.00000  Uiso   1.00
C598   C     0.40193   0.84807   0.75000   0.00000  Uiso   1.00
C599   C     0.09807   0.65193   0.25000   0.00000  Uiso   1.00
C600   C     0.34808   0.59808   0.75000   0.00000  Uiso   1.00
C601   C     0.15192   0.90192   0.25000   0.00000  Uiso   1.00
C602   C     0.00000   0.75000   0.47964   0.00000  Uiso   1.00
C603   C     0.21673   0.50129   0.91884   0.00000  Uiso   1.00
C604   C     0.00000   0.75000   0.52036   0.00000  Uiso   1.00
C605   C     0.25000   0.50000   0.47964   0.00000  Uiso   1.00
C606   C     0.25000   0.50000   0.52036   0.00000  Uiso   1.00
C607   C     0.25000   0.50000   0.97964   0.00000  Uiso   1.00
C608   C     0.25000   0.50000   0.02036   0.00000  Uiso   1.00
C609   C    -0.00000   0.75000   0.97964   0.00000  Uiso   1.00
C610   C    -0.00000   0.75000   0.02036   0.00000  Uiso   1.00
C611   C     0.28327   0.99871   0.08116   0.00000  Uiso   1.00
C612   C     0.49803   0.78324   0.91884   0.00000  Uiso   1.00
C613   C     0.00196   0.71676   0.08116   0.00000  Uiso   1.00
C614   C     0.00000   0.75000   0.39850   0.00000  Uiso   1.00
C615   C     0.00000   0.75000   0.60150   0.00000  Uiso   1.00
C616   C     0.25000   0.50000   0.39850   0.00000  Uiso   1.00
C617   C     0.03322   0.74776   0.58116   0.00000  Uiso   1.00
C618   C     0.25000   0.50000   0.60150   0.00000  Uiso   1.00
C619   C     0.25000   0.50000   0.89851   0.00000  Uiso   1.00
C620   C     0.25000   0.50000   0.10150   0.00000  Uiso   1.00
C621   C     0.00000   0.75000   0.89850   0.00000  Uiso   1.00
C622   C    -0.00000   0.75000   0.10150   0.00000  Uiso   1.00
C623   C     0.06655   0.74545   0.47976   0.00000  Uiso   1.00
C624   C     0.43345   0.75455   0.52024   0.00000  Uiso   1.00
C625   C     0.25386   0.93341   0.47976   0.00000  Uiso   1.00
C626   C     0.24614   0.56659   0.52024   0.00000  Uiso   1.00
C627   C     0.43345   0.75455   0.47976   0.00000  Uiso   1.00
C628   C     0.24810   0.53324   0.41884   0.00000  Uiso   1.00
C629   C     0.06655   0.74545   0.52024   0.00000  Uiso   1.00
C630   C     0.24614   0.56659   0.47976   0.00000  Uiso   1.00
C631   C     0.25386   0.93341   0.52024   0.00000  Uiso   1.00
C632   C     0.18335   0.50261   0.97977   0.00000  Uiso   1.00
C633   C     0.31665   0.99739   0.02023   0.00000  Uiso   1.00
C634   C     0.49601   0.81658   0.97976   0.00000  Uiso   1.00
C635   C     0.00399   0.68342   0.02024   0.00000  Uiso   1.00
C636   C     0.31665   0.99739   0.97976   0.00000  Uiso   1.00
C637   C     0.18335   0.50261   0.02024   0.00000  Uiso   1.00
C638   C     0.00399   0.68342   0.97976   0.00000  Uiso   1.00
C639   C     0.25190   0.96676   0.58116   0.00000  Uiso   1.00
C640   C     0.49601   0.81658   0.02024   0.00000  Uiso   1.00
C641   C     0.25000   0.50000   0.35603   0.00000  Uiso   1.00
C642   C     0.25000   0.50000   0.64397   0.00000  Uiso   1.00
C643   C     0.00000   0.75000   0.35603   0.00000  Uiso   1.00
C644   C     0.00000   0.75000   0.64397   0.00000  Uiso   1.00
C645   C     0.00000   0.75000   0.85603   0.00000  Uiso   1.00
C646   C     0.00000   0.75000   0.14397   0.00000  Uiso   1.00
C647   C     0.25000   0.50000   0.85603   0.00000  Uiso   1.00
C648   C     0.25000   0.50000   0.14397   0.00000  Uiso   1.00
C649   C     0.17999   0.57001   0.25000   0.00000  Uiso   1.00
C650   C     0.03322   0.74776   0.41884   0.00000  Uiso   1.00
C651   C     0.32001   0.92999   0.75000   0.00000  Uiso   1.00
C652   C     0.42999   0.67999   0.25000   0.00000  Uiso   1.00
C653   C     0.07001   0.82001   0.75000   0.00000  Uiso   1.00
C654   C     0.32001   0.92999   0.25000   0.00000  Uiso   1.00
C655   C     0.17999   0.57001   0.75000   0.00000  Uiso   1.00
C656   C     0.07001   0.82001   0.25000   0.00000  Uiso   1.00
C657   C     0.42999   0.67999   0.75000   0.00000  Uiso   1.00
C658   C     0.17999   0.92999   0.75000   0.00000  Uiso   1.00
C659   C     0.32001   0.57001   0.25000   0.00000  Uiso   1.00
C660   C     0.42999   0.82001   0.75000   0.00000  Uiso   1.00
C661   C     0.46678   0.75224   0.58116   0.00000  Uiso   1.00
C662   C     0.07001   0.67999   0.25000   0.00000  Uiso   1.00
C663   C     0.32001   0.57001   0.75000   0.00000  Uiso   1.00
C664   C     0.17999   0.92999   0.25000   0.00000  Uiso   1.00
C665   C     0.07001   0.67999   0.75000   0.00000  Uiso   1.00
C666   C     0.42999   0.82001   0.25000   0.00000  Uiso   1.00
C667   C     0.11548   0.91158   0.25837   0.00000  Uiso   1.00
C668   C     0.38452   0.58842   0.74163   0.00000  Uiso   1.00
C669   C     0.11784   0.64491   0.21577   0.00000  Uiso   1.00
C670   C     0.38222   0.85516   0.78425   0.00000  Uiso   1.00
C671   C     0.38452   0.58843   0.25841   0.00000  Uiso   1.00
C672   C     0.25190   0.96676   0.41884   0.00000  Uiso   1.00
C673   C     0.11548   0.91158   0.74163   0.00000  Uiso   1.00
C674   C     0.38219   0.85513   0.21576   0.00000  Uiso   1.00
C675   C     0.11780   0.64487   0.78424   0.00000  Uiso   1.00
C676   C     0.14487   0.61780   0.78424   0.00000  Uiso   1.00
C677   C     0.35513   0.88219   0.21576   0.00000  Uiso   1.00
C678   C     0.08842   0.88452   0.74163   0.00000  Uiso   1.00
C679   C     0.41157   0.61548   0.25841   0.00000  Uiso   1.00
C680   C     0.35516   0.88222   0.78425   0.00000  Uiso   1.00
C681   C     0.14491   0.61784   0.21577   0.00000  Uiso   1.00
C682   C     0.41158   0.61548   0.74163   0.00000  Uiso   1.00
C683   C     0.24810   0.53324   0.58116   0.00000  Uiso   1.00
C684   C     0.08842   0.88452   0.25837   0.00000  Uiso   1.00
C685   C     0.36548   0.66158   0.75837   0.00000  Uiso   1.00
C686   C     0.13452   0.83842   0.24163   0.00000  Uiso   1.00
C687   C     0.36778   0.89484   0.71575   0.00000  Uiso   1.00
C688   C     0.13216   0.60509   0.28423   0.00000  Uiso   1.00
C689   C     0.13452   0.83842   0.75837   0.00000  Uiso   1.00
C690   C     0.36548   0.66157   0.24159   0.00000  Uiso   1.00
C691   C     0.13220   0.60513   0.71576   0.00000  Uiso   1.00
C692   C     0.36781   0.89487   0.28424   0.00000  Uiso   1.00
C693   C     0.39487   0.86781   0.28424   0.00000  Uiso   1.00
C694   C     0.28327   0.99871   0.91884   0.00000  Uiso   1.00
C695   C     0.10513   0.63220   0.71576   0.00000  Uiso   1.00
C696   C     0.33843   0.63452   0.24159   0.00000  Uiso   1.00
C697   C     0.16158   0.86548   0.75837   0.00000  Uiso   1.00
C698   C     0.10509   0.63216   0.28423   0.00000  Uiso   1.00
C699   C     0.39484   0.86777   0.71575   0.00000  Uiso   1.00
C700   C     0.16158   0.86548   0.24163   0.00000  Uiso   1.00
C701   C     0.33842   0.63452   0.75837   0.00000  Uiso   1.00
C702   C     0.03345   0.74772   0.45930   0.00000  Uiso   1.00
C703   C     0.46655   0.75228   0.54070   0.00000  Uiso   1.00
C704   C     0.25193   0.96653   0.45930   0.00000  Uiso   1.00
H705   H     0.09241   0.74367   0.46447   0.00000  Uiso   1.00
H706   H     0.34256   0.99638   0.03553   0.00000  Uiso   1.00
H707   H     0.49446   0.84245   0.96447   0.00000  Uiso   1.00
H708   H     0.00554   0.65755   0.03553   0.00000  Uiso   1.00
H709   H     0.34256   0.99638   0.96447   0.00000  Uiso   1.00
H710   H     0.15744   0.50362   0.03553   0.00000  Uiso   1.00
H711   H     0.00554   0.65755   0.96447   0.00000  Uiso   1.00
H712   H     0.49446   0.84245   0.03553   0.00000  Uiso   1.00
H713   H     0.44107   0.75404   0.40322   0.00000  Uiso   1.00
H714   H     0.05893   0.74596   0.59678   0.00000  Uiso   1.00
H715   H     0.24657   0.55897   0.40322   0.00000  Uiso   1.00
H716   H     0.40759   0.75633   0.53553   0.00000  Uiso   1.00
H717   H     0.25343   0.94104   0.59678   0.00000  Uiso   1.00
H718   H     0.05893   0.74596   0.40322   0.00000  Uiso   1.00
H719   H     0.44107   0.75404   0.59678   0.00000  Uiso   1.00
H720   H     0.25343   0.94104   0.40322   0.00000  Uiso   1.00
H721   H     0.24657   0.55897   0.59678   0.00000  Uiso   1.00
H722   H     0.30902   0.99767   0.90322   0.00000  Uiso   1.00
H723   H     0.19098   0.50233   0.09678   0.00000  Uiso   1.00
H724   H     0.00354   0.69104   0.90322   0.00000  Uiso   1.00
H725   H     0.49646   0.80896   0.09678   0.00000  Uiso   1.00
H726   H     0.19098   0.50233   0.90322   0.00000  Uiso   1.00
H727   H     0.25537   0.90753   0.46447   0.00000  Uiso   1.00
H728   H     0.30902   0.99767   0.09678   0.00000  Uiso   1.00
H729   H     0.49646   0.80896   0.90322   0.00000  Uiso   1.00
H730   H     0.00354   0.69104   0.09678   0.00000  Uiso   1.00
H731   H     0.24463   0.59247   0.53553   0.00000  Uiso   1.00
H732   H     0.40759   0.75633   0.46447   0.00000  Uiso   1.00
H733   H     0.09241   0.74367   0.53553   0.00000  Uiso   1.00
H734   H     0.24463   0.59247   0.46447   0.00000  Uiso   1.00
H735   H     0.25537   0.90753   0.53553   0.00000  Uiso   1.00
H736   H     0.15744   0.50362   0.96447   0.00000  Uiso   1.00
O737   O     0.25000   0.50000   0.25000   0.00000  Uiso   1.00
O738   O     0.25000   0.96964   0.66245   0.00000  Uiso   1.00
O739   O     0.46964   0.75000   0.33755   0.00000  Uiso   1.00
O740   O     0.03037   0.75000   0.66245   0.00000  Uiso   1.00
O741   O     0.00000   0.71964   0.83755   0.00000  Uiso   1.00
O742   O     0.00000   0.78037   0.16245   0.00000  Uiso   1.00
O743   O     0.28037   0.50000   0.83755   0.00000  Uiso   1.00
O744   O     0.21964   0.50000   0.16245   0.00000  Uiso   1.00
O745   O     0.00000   0.78037   0.83755   0.00000  Uiso   1.00
O746   O     0.00000   0.71964   0.16245   0.00000  Uiso   1.00
O747   O     0.21964   0.50000   0.83755   0.00000  Uiso   1.00
O748   O     0.25000   0.50000   0.75000   0.00000  Uiso   1.00
O749   O     0.28037   0.50000   0.16245   0.00000  Uiso   1.00
O750   O     0.20725   0.57308   0.27302   0.00000  Uiso   1.00
O751   O     0.29276   0.92693   0.72698   0.00000  Uiso   1.00
O752   O     0.42693   0.70725   0.27302   0.00000  Uiso   1.00
O753   O     0.07308   0.79276   0.72698   0.00000  Uiso   1.00
O754   O     0.29276   0.92693   0.27302   0.00000  Uiso   1.00
O755   O     0.20725   0.57308   0.72698   0.00000  Uiso   1.00
O756   O     0.07308   0.79276   0.27302   0.00000  Uiso   1.00
O757   O     0.42693   0.70725   0.72698   0.00000  Uiso   1.00
O758   O     0.20725   0.92693   0.72698   0.00000  Uiso   1.00
O759   O     0.00000   0.75000   0.25000   0.00000  Uiso   1.00
O760   O     0.29276   0.57308   0.27302   0.00000  Uiso   1.00
O761   O     0.42693   0.79276   0.72698   0.00000  Uiso   1.00
O762   O     0.07308   0.70725   0.27302   0.00000  Uiso   1.00
O763   O     0.29276   0.57308   0.72698   0.00000  Uiso   1.00
O764   O     0.20725   0.92693   0.27302   0.00000  Uiso   1.00
O765   O     0.07308   0.70725   0.72698   0.00000  Uiso   1.00
O766   O     0.42693   0.79276   0.27302   0.00000  Uiso   1.00
O767   O     0.45725   0.82308   0.77302   0.00000  Uiso   1.00
O768   O     0.04276   0.67693   0.22698   0.00000  Uiso   1.00
O769   O     0.17693   0.95725   0.77302   0.00000  Uiso   1.00
O770   O     0.00000   0.75000   0.75000   0.00000  Uiso   1.00
O771   O     0.32308   0.54276   0.22698   0.00000  Uiso   1.00
O772   O     0.04276   0.67693   0.77302   0.00000  Uiso   1.00
O773   O     0.45725   0.82308   0.22698   0.00000  Uiso   1.00
O774   O     0.32308   0.54276   0.77302   0.00000  Uiso   1.00
O775   O     0.17693   0.95725   0.22698   0.00000  Uiso   1.00
O776   O     0.45725   0.67693   0.22698   0.00000  Uiso   1.00
O777   O     0.04276   0.82308   0.77302   0.00000  Uiso   1.00
O778   O     0.17693   0.54276   0.22698   0.00000  Uiso   1.00
O779   O     0.32308   0.95725   0.77302   0.00000  Uiso   1.00
O780   O     0.04276   0.82308   0.22698   0.00000  Uiso   1.00
O781   O     0.25000   0.96964   0.33755   0.00000  Uiso   1.00
O782   O     0.45725   0.67693   0.77302   0.00000  Uiso   1.00
O783   O     0.32308   0.95725   0.22698   0.00000  Uiso   1.00
O784   O     0.17693   0.54276   0.77302   0.00000  Uiso   1.00
O785   O     0.25000   0.53037   0.66245   0.00000  Uiso   1.00
O786   O     0.03037   0.75000   0.33755   0.00000  Uiso   1.00
O787   O     0.46964   0.75000   0.66245   0.00000  Uiso   1.00
O788   O     0.25000   0.53037   0.33755   0.00000  Uiso   1.00
Zn789  Zn    0.20660   0.50000   0.21735   0.00000  Uiso   1.00
Zn790  Zn    0.04341   0.75000   0.28265   0.00000  Uiso   1.00
Zn791  Zn    0.25000   0.95660   0.71735   0.00000  Uiso   1.00
Zn792  Zn    0.25000   0.54341   0.28265   0.00000  Uiso   1.00
Zn793  Zn    0.04341   0.75000   0.71735   0.00000  Uiso   1.00
Zn794  Zn    0.45660   0.75000   0.28265   0.00000  Uiso   1.00
Zn795  Zn    0.25000   0.54341   0.71735   0.00000  Uiso   1.00
Zn796  Zn    0.25000   0.95660   0.28265   0.00000  Uiso   1.00
Zn797  Zn    0.29341   0.50000   0.78265   0.00000  Uiso   1.00
Zn798  Zn    0.00000   0.70660   0.21735   0.00000  Uiso   1.00
Zn799  Zn    0.00000   0.79341   0.78265   0.00000  Uiso   1.00
Zn800  Zn    0.29341   0.50000   0.21735   0.00000  Uiso   1.00
Zn801  Zn    0.20660   0.50000   0.78265   0.00000  Uiso   1.00
Zn802  Zn    0.00000   0.79341   0.21735   0.00000  Uiso   1.00
Zn803  Zn    0.00000   0.70660   0.78265   0.00000  Uiso   1.00
Zn804  Zn    0.45660   0.75000   0.71735   0.00000  Uiso   1.00
Br805  Br    0.60291   0.96145   0.27166   0.00000  Uiso   1.00
Br806  Br    0.82660   0.89102   0.16946   0.00000  Uiso   1.00
Br807  Br    0.53855   0.89709   0.72834   0.00000  Uiso   1.00
Br808  Br    0.96144   0.60293   0.27174   0.00000  Uiso   1.00
Br809  Br    0.82667   0.89109   0.83058   0.00000  Uiso   1.00
Br810  Br    0.67349   0.60906   0.16950   0.00000  Uiso   1.00
Br811  Br    0.96145   0.60291   0.72834   0.00000  Uiso   1.00
Br812  Br    0.53855   0.89709   0.27166   0.00000  Uiso   1.00
Br813  Br    0.85291   0.71145   0.77166   0.00000  Uiso   1.00
Br814  Br    0.64709   0.78855   0.22834   0.00000  Uiso   1.00
Br815  Br    0.85891   0.92332   0.66942   0.00000  Uiso   1.00
Br816  Br    0.89709   0.53855   0.72834   0.00000  Uiso   1.00
Br817  Br    0.64094   0.57652   0.33051   0.00000  Uiso   1.00
Br818  Br    0.64709   0.78855   0.77166   0.00000  Uiso   1.00
Br819  Br    0.85293   0.71143   0.22826   0.00000  Uiso   1.00
Br820  Br    0.64103   0.57661   0.66945   0.00000  Uiso   1.00
Br821  Br    0.85898   0.92340   0.33054   0.00000  Uiso   1.00
Br822  Br    0.92339   0.85897   0.33055   0.00000  Uiso   1.00
Br823  Br    0.57661   0.64103   0.66945   0.00000  Uiso   1.00
Br824  Br    0.78857   0.64707   0.22826   0.00000  Uiso   1.00
Br825  Br    0.71145   0.85291   0.77166   0.00000  Uiso   1.00
Br826  Br    0.57652   0.64094   0.33051   0.00000  Uiso   1.00
Br827  Br    0.60906   0.67349   0.16950   0.00000  Uiso   1.00
Br828  Br    0.92332   0.85891   0.66942   0.00000  Uiso   1.00
Br829  Br    0.71145   0.85291   0.22834   0.00000  Uiso   1.00
Br830  Br    0.78855   0.64709   0.77166   0.00000  Uiso   1.00
Br831  Br    0.89109   0.82668   0.83058   0.00000  Uiso   1.00
Br832  Br    0.89707   0.53857   0.27174   0.00000  Uiso   1.00
Br833  Br    0.60291   0.96145   0.72834   0.00000  Uiso   1.00
Br834  Br    0.89102   0.82660   0.16946   0.00000  Uiso   1.00
Br835  Br    0.60897   0.67339   0.83055   0.00000  Uiso   1.00
Br836  Br    0.67339   0.60897   0.83055   0.00000  Uiso   1.00
C837   C     0.96678   0.75224   0.41884   0.00000  Uiso   1.00
C838   C     0.71673   0.50129   0.08116   0.00000  Uiso   1.00
C839   C     0.74807   0.53347   0.54070   0.00000  Uiso   1.00
C840   C     0.96655   0.75228   0.45930   0.00000  Uiso   1.00
C841   C     0.53345   0.74772   0.54070   0.00000  Uiso   1.00
C842   C     0.74807   0.53347   0.45930   0.00000  Uiso   1.00
C843   C     0.75193   0.96653   0.54070   0.00000  Uiso   1.00
C844   C     0.71650   0.50131   0.95931   0.00000  Uiso   1.00
C845   C     0.78351   0.99869   0.04069   0.00000  Uiso   1.00
C846   C     0.99801   0.78347   0.95930   0.00000  Uiso   1.00
C847   C     0.50199   0.71653   0.04070   0.00000  Uiso   1.00
C848   C     0.78351   0.99869   0.95931   0.00000  Uiso   1.00
C849   C     0.50197   0.71676   0.91884   0.00000  Uiso   1.00
C850   C     0.71650   0.50131   0.04069   0.00000  Uiso   1.00
C851   C     0.50199   0.71653   0.95930   0.00000  Uiso   1.00
C852   C     0.99801   0.78347   0.04070   0.00000  Uiso   1.00
C853   C     0.59808   0.84808   0.25000   0.00000  Uiso   1.00
C854   C     0.90192   0.65192   0.75000   0.00000  Uiso   1.00
C855   C     0.65193   0.59807   0.25000   0.00000  Uiso   1.00
C856   C     0.84807   0.90193   0.75000   0.00000  Uiso   1.00
C857   C     0.90192   0.65192   0.25000   0.00000  Uiso   1.00
C858   C     0.59808   0.84808   0.75000   0.00000  Uiso   1.00
C859   C     0.84807   0.90193   0.25000   0.00000  Uiso   1.00
C860   C     0.99803   0.78324   0.08116   0.00000  Uiso   1.00
C861   C     0.65193   0.59807   0.75000   0.00000  Uiso   1.00
C862   C     0.59807   0.65193   0.75000   0.00000  Uiso   1.00
C863   C     0.90193   0.84807   0.25000   0.00000  Uiso   1.00
C864   C     0.65192   0.90192   0.75000   0.00000  Uiso   1.00
C865   C     0.84808   0.59808   0.25000   0.00000  Uiso   1.00
C866   C     0.90193   0.84807   0.75000   0.00000  Uiso   1.00
C867   C     0.59807   0.65193   0.25000   0.00000  Uiso   1.00
C868   C     0.84808   0.59808   0.75000   0.00000  Uiso   1.00
C869   C     0.65192   0.90192   0.25000   0.00000  Uiso   1.00
C870   C     0.50000   0.75000   0.47964   0.00000  Uiso   1.00
C871   C     0.71673   0.50129   0.91884   0.00000  Uiso   1.00
C872   C     0.50000   0.75000   0.52036   0.00000  Uiso   1.00
C873   C     0.75000   0.50000   0.47964   0.00000  Uiso   1.00
C874   C     0.75000   0.50000   0.52036   0.00000  Uiso   1.00
C875   C     0.75000   0.50000   0.97964   0.00000  Uiso   1.00
C876   C     0.75000   0.50000   0.02036   0.00000  Uiso   1.00
C877   C     0.50000   0.75000   0.97964   0.00000  Uiso   1.00
C878   C     0.50000   0.75000   0.02036   0.00000  Uiso   1.00
C879   C     0.78327   0.99871   0.08116   0.00000  Uiso   1.00
C880   C     0.99803   0.78324   0.91884   0.00000  Uiso   1.00
C881   C     0.50196   0.71676   0.08116   0.00000  Uiso   1.00
C882   C     0.50000   0.75000   0.39850   0.00000  Uiso   1.00
C883   C     0.50000   0.75000   0.60150   0.00000  Uiso   1.00
C884   C     0.75000   0.50000   0.39850   0.00000  Uiso   1.00
C885   C     0.53322   0.74776   0.58116   0.00000  Uiso   1.00
C886   C     0.75000   0.50000   0.60150   0.00000  Uiso   1.00
C887   C     0.75000   0.50000   0.89851   0.00000  Uiso   1.00
C888   C     0.75000   0.50000   0.10150   0.00000  Uiso   1.00
C889   C     0.50000   0.75000   0.89850   0.00000  Uiso   1.00
C890   C     0.50000   0.75000   0.10150   0.00000  Uiso   1.00
C891   C     0.56655   0.74545   0.47976   0.00000  Uiso   1.00
C892   C     0.93345   0.75455   0.52024   0.00000  Uiso   1.00
C893   C     0.75386   0.93341   0.47976   0.00000  Uiso   1.00
C894   C     0.74614   0.56659   0.52024   0.00000  Uiso   1.00
C895   C     0.93345   0.75455   0.47976   0.00000  Uiso   1.00
C896   C     0.74810   0.53324   0.41884   0.00000  Uiso   1.00
C897   C     0.56655   0.74545   0.52024   0.00000  Uiso   1.00
C898   C     0.74614   0.56659   0.47976   0.00000  Uiso   1.00
C899   C     0.75386   0.93341   0.52024   0.00000  Uiso   1.00
C900   C     0.68335   0.50261   0.97977   0.00000  Uiso   1.00
C901   C     0.81665   0.99739   0.02023   0.00000  Uiso   1.00
C902   C     0.99601   0.81658   0.97976   0.00000  Uiso   1.00
C903   C     0.50399   0.68342   0.02024   0.00000  Uiso   1.00
C904   C     0.81665   0.99739   0.97976   0.00000  Uiso   1.00
C905   C     0.68335   0.50261   0.02024   0.00000  Uiso   1.00
C906   C     0.50399   0.68342   0.97976   0.00000  Uiso   1.00
C907   C     0.75190   0.96676   0.58116   0.00000  Uiso   1.00
C908   C     0.99601   0.81658   0.02024   0.00000  Uiso   1.00
C909   C     0.75000   0.50000   0.35603   0.00000  Uiso   1.00
C910   C     0.75000   0.50000   0.64397   0.00000  Uiso   1.00
C911   C     0.50000   0.75000   0.35603   0.00000  Uiso   1.00
C912   C     0.50000   0.75000   0.64397   0.00000  Uiso   1.00
C913   C     0.50000   0.75000   0.85603   0.00000  Uiso   1.00
C914   C     0.50000   0.75000   0.14397   0.00000  Uiso   1.00
C915   C     0.75000   0.50000   0.85603   0.00000  Uiso   1.00
C916   C     0.75000   0.50000   0.14397   0.00000  Uiso   1.00
C917   C     0.67999   0.57001   0.25000   0.00000  Uiso   1.00
C918   C     0.53322   0.74776   0.41884   0.00000  Uiso   1.00
C919   C     0.82001   0.92999   0.75000   0.00000  Uiso   1.00
C920   C     0.92999   0.67999   0.25000   0.00000  Uiso   1.00
C921   C     0.57001   0.82001   0.75000   0.00000  Uiso   1.00
C922   C     0.82001   0.92999   0.25000   0.00000  Uiso   1.00
C923   C     0.67999   0.57001   0.75000   0.00000  Uiso   1.00
C924   C     0.57001   0.82001   0.25000   0.00000  Uiso   1.00
C925   C     0.92999   0.67999   0.75000   0.00000  Uiso   1.00
C926   C     0.67999   0.92999   0.75000   0.00000  Uiso   1.00
C927   C     0.82001   0.57001   0.25000   0.00000  Uiso   1.00
C928   C     0.92999   0.82001   0.75000   0.00000  Uiso   1.00
C929   C     0.96678   0.75224   0.58116   0.00000  Uiso   1.00
C930   C     0.57001   0.67999   0.25000   0.00000  Uiso   1.00
C931   C     0.82001   0.57001   0.75000   0.00000  Uiso   1.00
C932   C     0.67999   0.92999   0.25000   0.00000  Uiso   1.00
C933   C     0.57001   0.67999   0.75000   0.00000  Uiso   1.00
C934   C     0.92999   0.82001   0.25000   0.00000  Uiso   1.00
C935   C     0.61548   0.91158   0.25837   0.00000  Uiso   1.00
C936   C     0.88452   0.58842   0.74163   0.00000  Uiso   1.00
C937   C     0.61784   0.64491   0.21577   0.00000  Uiso   1.00
C938   C     0.88222   0.85516   0.78425   0.00000  Uiso   1.00
C939   C     0.88452   0.58843   0.25841   0.00000  Uiso   1.00
C940   C     0.75190   0.96676   0.41884   0.00000  Uiso   1.00
C941   C     0.61548   0.91158   0.74163   0.00000  Uiso   1.00
C942   C     0.88219   0.85513   0.21576   0.00000  Uiso   1.00
C943   C     0.61780   0.64487   0.78424   0.00000  Uiso   1.00
C944   C     0.64487   0.61780   0.78424   0.00000  Uiso   1.00
C945   C     0.85513   0.88219   0.21576   0.00000  Uiso   1.00
C946   C     0.58842   0.88452   0.74163   0.00000  Uiso   1.00
C947   C     0.91157   0.61548   0.25841   0.00000  Uiso   1.00
C948   C     0.85516   0.88222   0.78425   0.00000  Uiso   1.00
C949   C     0.64491   0.61784   0.21577   0.00000  Uiso   1.00
C950   C     0.91158   0.61548   0.74163   0.00000  Uiso   1.00
C951   C     0.74810   0.53324   0.58116   0.00000  Uiso   1.00
C952   C     0.58842   0.88452   0.25837   0.00000  Uiso   1.00
C953   C     0.86548   0.66158   0.75837   0.00000  Uiso   1.00
C954   C     0.63452   0.83842   0.24163   0.00000  Uiso   1.00
C955   C     0.86778   0.89484   0.71575   0.00000  Uiso   1.00
C956   C     0.63216   0.60509   0.28423   0.00000  Uiso   1.00
C957   C     0.63452   0.83842   0.75837   0.00000  Uiso   1.00
C958   C     0.86548   0.66157   0.24159   0.00000  Uiso   1.00
C959   C     0.63220   0.60513   0.71576   0.00000  Uiso   1.00
C960   C     0.86781   0.89487   0.28424   0.00000  Uiso   1.00
C961   C     0.89487   0.86781   0.28424   0.00000  Uiso   1.00
C962   C     0.78327   0.99871   0.91884   0.00000  Uiso   1.00
C963   C     0.60513   0.63220   0.71576   0.00000  Uiso   1.00
C964   C     0.83843   0.63452   0.24159   0.00000  Uiso   1.00
C965   C     0.66158   0.86548   0.75837   0.00000  Uiso   1.00
C966   C     0.60509   0.63216   0.28423   0.00000  Uiso   1.00
C967   C     0.89484   0.86777   0.71575   0.00000  Uiso   1.00
C968   C     0.66158   0.86548   0.24163   0.00000  Uiso   1.00
C969   C     0.83842   0.63452   0.75837   0.00000  Uiso   1.00
C970   C     0.53345   0.74772   0.45930   0.00000  Uiso   1.00
C971   C     0.96655   0.75228   0.54070   0.00000  Uiso   1.00
C972   C     0.75193   0.96653   0.45930   0.00000  Uiso   1.00
H973   H     0.59241   0.74367   0.46447   0.00000  Uiso   1.00
H974   H     0.84256   0.99638   0.03553   0.00000  Uiso   1.00
H975   H     0.99446   0.84245   0.96447   0.00000  Uiso   1.00
H976   H     0.50554   0.65755   0.03553   0.00000  Uiso   1.00
H977   H     0.84256   0.99638   0.96447   0.00000  Uiso   1.00
H978   H     0.65744   0.50362   0.03553   0.00000  Uiso   1.00
H979   H     0.50554   0.65755   0.96447   0.00000  Uiso   1.00
H980   H     0.99446   0.84245   0.03553   0.00000  Uiso   1.00
H981   H     0.94107   0.75404   0.40322   0.00000  Uiso   1.00
H982   H     0.55893   0.74596   0.59678   0.00000  Uiso   1.00
H983   H     0.74657   0.55897   0.40322   0.00000  Uiso   1.00
H984   H     0.90759   0.75633   0.53553   0.00000  Uiso   1.00
H985   H     0.75343   0.94104   0.59678   0.00000  Uiso   1.00
H986   H     0.55893   0.74596   0.40322   0.00000  Uiso   1.00
H987   H     0.94107   0.75404   0.59678   0.00000  Uiso   1.00
H988   H     0.75343   0.94104   0.40322   0.00000  Uiso   1.00
H989   H     0.74657   0.55897   0.59678   0.00000  Uiso   1.00
H990   H     0.80902   0.99767   0.90322   0.00000  Uiso   1.00
H991   H     0.69098   0.50233   0.09678   0.00000  Uiso   1.00
H992   H     0.50354   0.69104   0.90322   0.00000  Uiso   1.00
H993   H     0.99646   0.80896   0.09678   0.00000  Uiso   1.00
H994   H     0.69098   0.50233   0.90322   0.00000  Uiso   1.00
H995   H     0.75537   0.90753   0.46447   0.00000  Uiso   1.00
H996   H     0.80902   0.99767   0.09678   0.00000  Uiso   1.00
H997   H     0.99646   0.80896   0.90322   0.00000  Uiso   1.00
H998   H     0.50354   0.69104   0.09678   0.00000  Uiso   1.00
H999   H     0.74463   0.59247   0.53553   0.00000  Uiso   1.00
H1000  H     0.90759   0.75633   0.46447   0.00000  Uiso   1.00
H1001  H     0.59241   0.74367   0.53553   0.00000  Uiso   1.00
H1002  H     0.74463   0.59247   0.46447   0.00000  Uiso   1.00
H1003  H     0.75537   0.90753   0.53553   0.00000  Uiso   1.00
H1004  H     0.65744   0.50362   0.96447   0.00000  Uiso   1.00
O1005  O     0.75000   0.50000   0.25000   0.00000  Uiso   1.00
O1006  O     0.75000   0.96964   0.66245   0.00000  Uiso   1.00
O1007  O     0.96964   0.75000   0.33755   0.00000  Uiso   1.00
O1008  O     0.53037   0.75000   0.66245   0.00000  Uiso   1.00
O1009  O     0.50000   0.71964   0.83755   0.00000  Uiso   1.00
O1010  O     0.50000   0.78037   0.16245   0.00000  Uiso   1.00
O1011  O     0.78037   0.50000   0.83755   0.00000  Uiso   1.00
O1012  O     0.71964   0.50000   0.16245   0.00000  Uiso   1.00
O1013  O     0.50000   0.78037   0.83755   0.00000  Uiso   1.00
O1014  O     0.50000   0.71964   0.16245   0.00000  Uiso   1.00
O1015  O     0.71964   0.50000   0.83755   0.00000  Uiso   1.00
O1016  O     0.75000   0.50000   0.75000   0.00000  Uiso   1.00
O1017  O     0.78037   0.50000   0.16245   0.00000  Uiso   1.00
O1018  O     0.70725   0.57308   0.27302   0.00000  Uiso   1.00
O1019  O     0.79276   0.92693   0.72698   0.00000  Uiso   1.00
O1020  O     0.92693   0.70725   0.27302   0.00000  Uiso   1.00
O1021  O     0.57308   0.79276   0.72698   0.00000  Uiso   1.00
O1022  O     0.79276   0.92693   0.27302   0.00000  Uiso   1.00
O1023  O     0.70725   0.57308   0.72698   0.00000  Uiso   1.00
O1024  O     0.57308   0.79276   0.27302   0.00000  Uiso   1.00
O1025  O     0.92693   0.70725   0.72698   0.00000  Uiso   1.00
O1026  O     0.70725   0.92693   0.72698   0.00000  Uiso   1.00
O1027  O     0.50000   0.75000   0.25000   0.00000  Uiso   1.00
O1028  O     0.79276   0.57308   0.27302   0.00000  Uiso   1.00
O1029  O     0.92693   0.79276   0.72698   0.00000  Uiso   1.00
O1030  O     0.57308   0.70725   0.27302   0.00000  Uiso   1.00
O1031  O     0.79276   0.57308   0.72698   0.00000  Uiso   1.00
O1032  O     0.70725   0.92693   0.27302   0.00000  Uiso   1.00
O1033  O     0.57308   0.70725   0.72698   0.00000  Uiso   1.00
O1034  O     0.92693   0.79276   0.27302   0.00000  Uiso   1.00
O1035  O     0.95725   0.82308   0.77302   0.00000  Uiso   1.00
O1036  O     0.54276   0.67693   0.22698   0.00000  Uiso   1.00
O1037  O     0.67693   0.95725   0.77302   0.00000  Uiso   1.00
O1038  O     0.50000   0.75000   0.75000   0.00000  Uiso   1.00
O1039  O     0.82308   0.54276   0.22698   0.00000  Uiso   1.00
O1040  O     0.54276   0.67693   0.77302   0.00000  Uiso   1.00
O1041  O     0.95725   0.82308   0.22698   0.00000  Uiso   1.00
O1042  O     0.82308   0.54276   0.77302   0.00000  Uiso   1.00
O1043  O     0.67693   0.95725   0.22698   0.00000  Uiso   1.00
O1044  O     0.95725   0.67693   0.22698   0.00000  Uiso   1.00
O1045  O     0.54276   0.82308   0.77302   0.00000  Uiso   1.00
O1046  O     0.67693   0.54276   0.22698   0.00000  Uiso   1.00
O1047  O     0.82308   0.95725   0.77302   0.00000  Uiso   1.00
O1048  O     0.54276   0.82308   0.22698   0.00000  Uiso   1.00
O1049  O     0.75000   0.96964   0.33755   0.00000  Uiso   1.00
O1050  O     0.95725   0.67693   0.77302   0.00000  Uiso   1.00
O1051  O     0.82308   0.95725   0.22698   0.00000  Uiso   1.00
O1052  O     0.67693   0.54276   0.77302   0.00000  Uiso   1.00
O1053  O     0.75000   0.53037   0.66245   0.00000  Uiso   1.00
O1054  O     0.53037   0.75000   0.33755   0.00000  Uiso   1.00
O1055  O     0.96964   0.75000   0.66245   0.00000  Uiso   1.00
O1056  O     0.75000   0.53037   0.33755   0.00000  Uiso   1.00
Zn1057 Zn    0.70660   0.50000   0.21735   0.00000  Uiso   1.00
Zn1058 Zn    0.54341   0.75000   0.28265   0.00000  Uiso   1.00
Zn1059 Zn    0.75000   0.95660   0.71735   0.00000  Uiso   1.00
Zn1060 Zn    0.75000   0.54341   0.28265   0.00000  Uiso   1.00
Zn1061 Zn    0.54341   0.75000   0.71735   0.00000  Uiso   1.00
Zn1062 Zn    0.95660   0.75000   0.28265   0.00000  Uiso   1.00
Zn1063 Zn    0.75000   0.54341   0.71735   0.00000  Uiso   1.00
Zn1064 Zn    0.75000   0.95660   0.28265   0.00000  Uiso   1.00
Zn1065 Zn    0.79341   0.50000   0.78265   0.00000  Uiso   1.00
Zn1066 Zn    0.50000   0.70660   0.21735   0.00000  Uiso   1.00
Zn1067 Zn    0.50000   0.79341   0.78265   0.00000  Uiso   1.00
Zn1068 Zn    0.79341   0.50000   0.21735   0.00000  Uiso   1.00
Zn1069 Zn    0.70660   0.50000   0.78265   0.00000  Uiso   1.00
Zn1070 Zn    0.50000   0.79341   0.21735   0.00000  Uiso   1.00
Zn1071 Zn    0.50000   0.70660   0.78265   0.00000  Uiso   1.00
Zn1072 Zn    0.95660   0.75000   0.71735   0.00000  Uiso   1.00
loop_
_geom_bond_atom_site_label_1
_geom_bond_atom_site_label_2
_geom_bond_distance
_geom_bond_site_symmetry_2
_ccdc_geom_bond_type
Br1    C131    1.933   .     S
Br2    C141    1.933   .     S
Br3    C142    1.933   .     S
Br4    C143    1.933   .     S
Br5    C144    1.933   .     S
Br6    C145    1.933   .     S
Br7    C146    1.933   .     S
Br8    C148    1.933   .     S
Br9    C149    1.933   .     S
Br10   C150    1.933   .     S
Br11   C151    1.933   .     S
Br12   C132    1.933   .     S
Br13   C152    1.933   .     S
Br14   C153    1.933   .     S
Br15   C154    1.933   .     S
Br16   C155    1.933   .     S
Br17   C156    1.933   .     S
Br18   C157    1.933   .     S
Br19   C159    1.933   .     S
Br20   C160    1.933   .     S
Br21   C161    1.933   .     S
Br22   C162    1.933   .     S
Br23   C133    1.933   .     S
Br24   C163    1.933   .     S
Br25   C164    1.933   .     S
Br26   C165    1.933   .     S
Br27   C134    1.933   .     S
Br28   C135    1.933   .     S
Br29   C137    1.933   .     S
Br30   C138    1.933   .     S
Br31   C139    1.933   .     S
Br32   C140    1.933   .     S
C33    C36     1.395   .     A
C33    H177    1.084   .     S
C33    C346    1.404   .     A
C34    C46     1.395   .     A
C34    H187    1.084   .     S
C34    C84     1.404   .     S
C35    C70     1.411   .     A
C35    C147    1.395   .     A
C35    C90     1.402   .     A
C36    C334    1.411   .     A
C36    C91     1.402   .     A
C37    C93     1.402   .     A
C37    C81     1.395   .     A
C37    C68     1.411   .     S
C38    C92     1.395   .     A
C38    C69     1.411   .     A
C38    C94     1.402   .     A
C39    C103    1.395   .     A
C39    C95     1.402   .     A
C39    C606    1.411   .     S
C40    C67     1.395   .     A
C40    C96     1.402   .     A
C40    C71     1.411   .     S
C41    C75     1.395   .     A
C41    C608    1.411   .     A
C41    C97     1.402   .     A
C42    C98     1.402   .     A
C42    C341    1.411   .     A
C42    C76     1.395   .     A
C43    C99     1.402   .     A
C43    C77     1.395   .     A
C43    C74     1.411   .     S
C44    C158    1.395   .     A
C44    C607    1.411   .     A
C44    C100    1.402   .     A
C45    C47     1.395   .     A
C45    H188    1.084   .     S
C45    C85     1.404   .     S
C46    C101    1.402   .     A
C46    C72     1.411   .     S
C47    C102    1.402   .     A
C47    C73     1.411   .     S
C48    C104    1.402   .     A
C48    C342    1.411   .     A
C48    C56     1.395   .     A
C49    C150    1.407   .     A
C49    C120    1.450   .     S
C49    C148    1.407   .     A
C50    C146    1.407   .     A
C50    C121    1.450   .     S
C50    C149    1.407   .     A
C51    C113    1.449   .     S
C51    C145    1.407   .     A
C51    C152    1.407   .     A
C52    C144    1.407   .     A
C52    C115    1.449   .     S
C52    C151    1.407   .     A
C53    C116    1.450   .     S
C53    C154    1.407   .     A
C53    C143    1.407   .     A
C54    C153    1.407   .     A
C54    C142    1.407   .     A
C54    C117    1.450   .     S
C55    C141    1.407   .     A
C55    C156    1.407   .     A
C55    C118    1.449   .     S
C56    C354    1.404   .     A
C56    H189    1.084   .     S
C57    C155    1.407   .     A
C57    C140    1.407   .     A
C57    C119    1.449   .     S
C58    C139    1.407   .     A
C58    C159    1.407   .     A
C58    C129    1.449   .     S
C59    C130    1.449   .     S
C59    C138    1.407   .     A
C59    C157    1.407   .     A
C60    C137    1.407   .     A
C60    C161    1.407   .     A
C60    C122    1.450   .     S
C61    C135    1.407   .     A
C61    C160    1.407   .     A
C61    C123    1.450   .     S
C62    C124    1.449   .     S
C62    C163    1.407   .     A
C62    C134    1.407   .     A
C63    C162    1.407   .     A
C63    C133    1.407   .     A
C63    C126    1.449   .     S
C64    C165    1.407   .     A
C64    C132    1.407   .     A
C64    C127    1.450   .     S
C65    C131    1.407   .     A
C65    C128    1.450   .     S
C65    C164    1.407   .     A
C66    C68     1.403   .     A
C66    C304    1.411   1_455 A
C66    C166    1.411   .     S
C67    H190    1.084   .     S
C67    C83     1.404   .     S
C68    C435    1.411   1_455 A
C69    C70     1.403   .     A
C69    C704    1.411   1_545 S
C70    C575    1.411   1_545 S
C71    C580    1.411   1_545 A
C71    C72     1.403   1_556 S
C72    C577    1.411   1_545 A
C72    C71     1.403   1_554 S
C73    C310    1.411   1_455 A
C73    C74     1.403   1_556 S
C74    C316    1.411   1_455 A
C74    C73     1.403   1_554 S
C75    C620    1.404   .     A
C75    H192    1.084   .     S
C76    C353    1.404   .     A
C76    H193    1.084   .     S
C77    H194    1.084   .     S
C77    C86     1.404   .     S
C78    C107    1.464   .     S
C78    C301    1.404   1_455 A
C78    C114    1.404   .     S
C79    C81     1.404   .     A
C79    C108    1.464   .     S
C79    C393    1.404   1_455 S
C80    C105    1.464   .     S
C80    C672    1.404   1_545 A
C80    C92     1.404   .     S
C81    H178    1.084   .     S
C82    C147    1.404   .     A
C82    C106    1.464   .     S
C82    C639    1.404   1_545 S
C83    C694    1.404   1_545 A
C83    C111    1.464   .     S
C84    C112    1.464   .     S
C84    C611    1.404   1_545 A
C85    C109    1.464   .     S
C85    C344    1.404   1_455 A
C86    C324    1.404   1_455 A
C86    C110    1.464   .     S
C87    C93     1.395   .     A
C87    C166    1.402   .     A
C87    H169    1.084   .     S
C88    H180    1.084   .     S
C88    C91     1.395   .     A
C88    C167    1.402   .     A
C89    C95     1.395   .     A
C89    C168    1.402   .     A
C89    H191    1.084   .     S
C90    H195    1.084   .     S
C90    C94     1.395   .     A
C91    H196    1.084   .     S
C92    H179    1.084   .     S
C93    H197    1.084   .     S
C94    H198    1.084   .     S
C95    H199    1.084   .     S
C96    H200    1.084   .     S
C96    C101    1.395   1_556 S
C97    H170    1.084   .     S
C97    C100    1.395   1_554 S
C98    H171    1.084   .     S
C98    C104    1.395   1_556 S
C99    H172    1.084   .     S
C99    C102    1.395   1_554 S
C100   H173    1.084   .     S
C100   C97     1.395   1_556 S
C101   H174    1.084   .     S
C101   C96     1.395   1_554 S
C102   H175    1.084   .     S
C102   C99     1.395   1_556 S
C103   H181    1.084   .     S
C103   C618    1.404   .     S
C104   H176    1.084   .     S
C104   C98     1.395   1_554 S
C105   O781    1.279   1_545 A
C105   O252    1.279   .     S
C106   O249    1.279   .     A
C106   O738    1.279   1_545 S
C107   O471    1.279   1_455 A
C107   O250    1.279   .     S
C108   O204    1.279   .     A
C108   O519    1.279   1_455 S
C109   O205    1.279   .     S
C109   O209    1.279   .     S
C110   O210    1.279   .     A
C110   O206    1.279   .     A
C111   O207    1.279   .     A
C111   O211    1.279   .     A
C112   O208    1.279   .     S
C112   O213    1.279   .     S
C113   O214    1.278   .     A
C113   O242    1.278   .     A
C114   C166    1.395   .     A
C114   H182    1.084   .     S
C115   O215    1.278   .     A
C115   O243    1.278   .     A
C116   O216    1.278   .     A
C116   O240    1.278   .     A
C117   O217    1.278   .     A
C117   O241    1.278   .     A
C118   O218    1.278   .     A
C118   O247    1.278   .     A
C119   O219    1.278   .     A
C119   O248    1.278   .     A
C120   O244    1.278   .     A
C120   O220    1.278   .     A
C121   O246    1.278   .     A
C121   O221    1.278   .     A
C122   O222    1.278   .     A
C122   O233    1.278   .     A
C123   O235    1.278   .     A
C123   O224    1.278   .     A
C124   O225    1.278   .     A
C124   O231    1.278   .     A
C125   C167    1.395   .     A
C125   H183    1.084   .     S
C125   C347    1.404   .     S
C126   O232    1.278   .     A
C126   O226    1.278   .     A
C127   O227    1.278   .     A
C127   O238    1.278   .     A
C128   O239    1.278   .     A
C128   O228    1.278   .     A
C129   O236    1.278   .     A
C129   O229    1.278   .     A
C130   O237    1.278   .     A
C130   O230    1.278   .     A
C131   C148    1.398   .     A
C132   C146    1.398   .     A
C133   C145    1.398   .     A
C134   C144    1.398   .     A
C135   C143    1.398   .     A
C136   H184    1.084   .     S
C136   C168    1.395   .     A
C136   C616    1.404   .     A
C137   C142    1.398   .     A
C138   C141    1.398   .     A
C139   C140    1.398   .     A
C147   H185    1.084   .     S
C149   C165    1.398   .     A
C150   C164    1.398   .     A
C151   C163    1.398   .     A
C152   C162    1.398   .     A
C153   C161    1.398   .     A
C154   C160    1.398   .     A
C155   C159    1.398   .     A
C156   C157    1.398   .     A
C158   H186    1.084   .     S
C158   C619    1.404   .     A
C167   C336    1.411   .     A
C168   C605    1.411   .     S
O201   Zn264   1.944   .     S
O201   Zn253   1.944   .     S
O201   Zn796   1.944   1_545 S
O201   Zn256   1.944   .     S
O202   Zn255   1.951   .     S
O202   C642    1.279   .     S
O203   C375    1.279   .     A
O203   Zn258   1.951   .     S
O204   Zn257   1.951   .     S
O205   Zn267   1.951   .     S
O206   Zn266   1.951   .     S
O207   Zn261   1.951   .     S
O208   Zn253   1.951   .     S
O209   Zn263   1.951   .     S
O210   Zn262   1.951   .     S
O211   Zn265   1.951   .     S
O212   Zn259   1.944   .     S
O212   Zn791   1.944   1_545 S
O212   Zn261   1.944   .     S
O212   Zn265   1.944   .     S
O213   Zn264   1.951   .     S
O214   Zn256   1.929   .     S
O215   Zn255   1.929   .     S
O216   Zn258   1.930   .     S
O217   Zn257   1.930   .     S
O218   Zn260   1.929   .     S
O219   Zn259   1.929   .     S
O220   Zn254   1.930   .     S
O221   Zn268   1.930   .     S
O222   Zn255   1.930   .     S
O223   Zn254   1.944   .     S
O223   Zn266   1.944   .     S
O223   Zn262   1.944   .     S
O223   Zn526   1.944   1_455 S
O224   Zn256   1.930   .     S
O225   Zn268   1.929   .     S
O226   Zn254   1.929   .     S
O227   Zn259   1.930   .     S
O228   Zn260   1.930   .     S
O229   Zn257   1.929   .     S
O230   Zn258   1.929   .     S
O231   Zn531   1.929   .     S
O232   Zn262   1.929   .     S
O233   Zn801   1.930   .     S
O234   Zn257   1.944   .     S
O234   Zn263   1.944   .     S
O234   Zn267   1.944   .     S
O234   Zn536   1.944   1_455 S
O235   Zn264   1.930   .     S
O236   Zn267   1.929   .     S
O237   Zn534   1.929   .     S
O238   Zn261   1.930   .     S
O239   Zn789   1.930   .     S
O240   Zn530   1.930   .     S
O241   Zn263   1.930   .     S
O242   Zn253   1.929   .     S
O243   Zn797   1.929   .     S
O244   Zn266   1.930   .     S
O245   C641    1.279   .     A
O245   Zn260   1.951   .     S
O246   Zn535   1.930   .     S
O247   Zn800   1.929   .     S
O248   Zn265   1.929   .     S
O249   Zn259   1.951   .     S
O250   Zn254   1.951   .     S
O251   Zn268   1.951   .     S
O251   C376    1.279   .     S
O252   Zn256   1.951   .     S
Zn253  O775    1.930   1_545 S
Zn255  O748    1.944   .     S
Zn258  O491    1.944   .     S
Zn260  O737    1.944   .     S
Zn261  O779    1.929   1_545 S
Zn262  O508    1.930   1_455 S
Zn263  O499    1.929   1_455 S
Zn264  O783    1.929   1_545 S
Zn265  O769    1.930   1_545 S
Zn266  O505    1.929   1_455 S
Zn267  O514    1.930   1_455 S
Zn268  O502    1.944   .     S
Br269  C399    1.933   .     S
Br270  C409    1.933   .     S
Br271  C410    1.933   .     S
Br272  C411    1.933   .     S
Br273  C412    1.933   .     S
Br274  C413    1.933   .     S
Br275  C414    1.933   .     S
Br276  C416    1.933   .     S
Br277  C417    1.933   .     S
Br278  C418    1.933   .     S
Br279  C419    1.933   .     S
Br280  C400    1.933   .     S
Br281  C420    1.933   .     S
Br282  C421    1.933   .     S
Br283  C422    1.933   .     S
Br284  C423    1.933   .     S
Br285  C424    1.933   .     S
Br286  C425    1.933   .     S
Br287  C427    1.933   .     S
Br288  C428    1.933   .     S
Br289  C429    1.933   .     S
Br290  C430    1.933   .     S
Br291  C401    1.933   .     S
Br292  C431    1.933   .     S
Br293  C432    1.933   .     S
Br294  C433    1.933   .     S
Br295  C402    1.933   .     S
Br296  C403    1.933   .     S
Br297  C405    1.933   .     S
Br298  C406    1.933   .     S
Br299  C407    1.933   .     S
Br300  C408    1.933   .     S
C301   C304    1.395   .     A
C301   H445    1.084   .     S
C301   C78     1.404   1_655 A
C302   C314    1.395   .     A
C302   H455    1.084   .     S
C302   C352    1.404   .     S
C303   C338    1.411   .     A
C303   C415    1.395   .     A
C303   C358    1.402   .     A
C304   C66     1.411   1_655 A
C304   C359    1.402   .     A
C305   C361    1.402   .     A
C305   C349    1.395   .     A
C305   C336    1.411   .     S
C306   C360    1.395   .     A
C306   C337    1.411   .     A
C306   C362    1.402   .     A
C307   C371    1.395   .     A
C307   C363    1.402   .     A
C307   C874    1.411   .     S
C308   C335    1.395   .     A
C308   C364    1.402   .     A
C308   C339    1.411   .     S
C309   C343    1.395   .     A
C309   C876    1.411   .     A
C309   C365    1.402   .     A
C310   C366    1.402   .     A
C310   C73     1.411   1_655 A
C310   C344    1.395   .     A
C311   C367    1.402   .     A
C311   C345    1.395   .     A
C311   C342    1.411   .     S
C312   C426    1.395   .     A
C312   C875    1.411   .     A
C312   C368    1.402   .     A
C313   C315    1.395   .     A
C313   H456    1.084   .     S
C313   C353    1.404   .     S
C314   C369    1.402   .     A
C314   C340    1.411   .     S
C315   C370    1.402   .     A
C315   C341    1.411   .     S
C316   C372    1.402   .     A
C316   C74     1.411   1_655 A
C316   C324    1.395   .     A
C317   C418    1.407   .     A
C317   C388    1.450   .     S
C317   C416    1.407   .     A
C318   C414    1.407   .     A
C318   C389    1.450   .     S
C318   C417    1.407   .     A
C319   C381    1.449   .     S
C319   C413    1.407   .     A
C319   C420    1.407   .     A
C320   C412    1.407   .     A
C320   C383    1.449   .     S
C320   C419    1.407   .     A
C321   C384    1.450   .     S
C321   C422    1.407   .     A
C321   C411    1.407   .     A
C322   C421    1.407   .     A
C322   C410    1.407   .     A
C322   C385    1.450   .     S
C323   C409    1.407   .     A
C323   C424    1.407   .     A
C323   C386    1.449   .     S
C324   C86     1.404   1_655 A
C324   H457    1.084   .     S
C325   C423    1.407   .     A
C325   C408    1.407   .     A
C325   C387    1.449   .     S
C326   C407    1.407   .     A
C326   C427    1.407   .     A
C326   C397    1.449   .     S
C327   C398    1.449   .     S
C327   C406    1.407   .     A
C327   C425    1.407   .     A
C328   C405    1.407   .     A
C328   C429    1.407   .     A
C328   C390    1.450   .     S
C329   C403    1.407   .     A
C329   C428    1.407   .     A
C329   C391    1.450   .     S
C330   C392    1.449   .     S
C330   C431    1.407   .     A
C330   C402    1.407   .     A
C331   C430    1.407   .     A
C331   C401    1.407   .     A
C331   C394    1.449   .     S
C332   C433    1.407   .     A
C332   C400    1.407   .     A
C332   C395    1.450   .     S
C333   C399    1.407   .     A
C333   C396    1.450   .     S
C333   C432    1.407   .     A
C334   C336    1.403   .     A
C334   C434    1.411   .     S
C335   H458    1.084   .     S
C335   C351    1.404   .     S
C337   C338    1.403   .     A
C337   C972    1.411   1_545 S
C338   C843    1.411   1_545 S
C339   C848    1.411   1_545 A
C339   C340    1.403   1_556 S
C340   C845    1.411   1_545 A
C340   C339    1.403   1_554 S
C341   C342    1.403   1_556 S
C342   C341    1.403   1_554 S
C343   C888    1.404   .     A
C343   H460    1.084   .     S
C344   C85     1.404   1_655 A
C344   H461    1.084   .     S
C345   H462    1.084   .     S
C345   C354    1.404   .     S
C346   C375    1.464   .     S
C346   C382    1.404   .     S
C347   C349    1.404   .     A
C347   C376    1.464   .     S
C348   C373    1.464   .     S
C348   C940    1.404   1_545 A
C348   C360    1.404   .     S
C349   H446    1.084   .     S
C350   C415    1.404   .     A
C350   C374    1.464   .     S
C350   C907    1.404   1_545 S
C351   C962    1.404   1_545 A
C351   C379    1.464   .     S
C352   C380    1.464   .     S
C352   C879    1.404   1_545 A
C353   C377    1.464   .     S
C354   C378    1.464   .     S
C355   C361    1.395   .     A
C355   C434    1.402   .     A
C355   H437    1.084   .     S
C356   H448    1.084   .     S
C356   C359    1.395   .     A
C356   C435    1.402   .     A
C357   C363    1.395   .     A
C357   C436    1.402   .     A
C357   H459    1.084   .     S
C358   H463    1.084   .     S
C358   C362    1.395   .     A
C359   H464    1.084   .     S
C360   H447    1.084   .     S
C361   H465    1.084   .     S
C362   H466    1.084   .     S
C363   H467    1.084   .     S
C364   H468    1.084   .     S
C364   C369    1.395   1_556 S
C365   H438    1.084   .     S
C365   C368    1.395   1_554 S
C366   H439    1.084   .     S
C366   C372    1.395   1_556 S
C367   H440    1.084   .     S
C367   C370    1.395   1_554 S
C368   H441    1.084   .     S
C368   C365    1.395   1_556 S
C369   H442    1.084   .     S
C369   C364    1.395   1_554 S
C370   H443    1.084   .     S
C370   C367    1.395   1_556 S
C371   H449    1.084   .     S
C371   C886    1.404   .     S
C372   H444    1.084   .     S
C372   C366    1.395   1_554 S
C373   O1049   1.279   1_545 A
C373   O520    1.279   .     S
C374   O517    1.279   .     A
C374   O1006   1.279   1_545 S
C375   O518    1.279   .     S
C376   O472    1.279   .     A
C377   O473    1.279   .     S
C377   O477    1.279   .     S
C378   O478    1.279   .     A
C378   O474    1.279   .     A
C379   O475    1.279   .     A
C379   O479    1.279   .     A
C380   O476    1.279   .     S
C380   O481    1.279   .     S
C381   O482    1.278   .     A
C381   O510    1.278   .     A
C382   C434    1.395   .     A
C382   H450    1.084   .     S
C383   O483    1.278   .     A
C383   O511    1.278   .     A
C384   O484    1.278   .     A
C384   O508    1.278   .     A
C385   O485    1.278   .     A
C385   O509    1.278   .     A
C386   O486    1.278   .     A
C386   O515    1.278   .     A
C387   O487    1.278   .     A
C387   O516    1.278   .     A
C388   O512    1.278   .     A
C388   O488    1.278   .     A
C389   O514    1.278   .     A
C389   O489    1.278   .     A
C390   O490    1.278   .     A
C390   O501    1.278   .     A
C391   O503    1.278   .     A
C391   O492    1.278   .     A
C392   O493    1.278   .     A
C392   O499    1.278   .     A
C393   C435    1.395   .     A
C393   H451    1.084   .     S
C393   C79     1.404   1_655 S
C394   O500    1.278   .     A
C394   O494    1.278   .     A
C395   O495    1.278   .     A
C395   O506    1.278   .     A
C396   O507    1.278   .     A
C396   O496    1.278   .     A
C397   O504    1.278   .     A
C397   O497    1.278   .     A
C398   O505    1.278   .     A
C398   O498    1.278   .     A
C399   C416    1.398   .     A
C400   C414    1.398   .     A
C401   C413    1.398   .     A
C402   C412    1.398   .     A
C403   C411    1.398   .     A
C404   H452    1.084   .     S
C404   C436    1.395   .     A
C404   C884    1.404   .     A
C405   C410    1.398   .     A
C406   C409    1.398   .     A
C407   C408    1.398   .     A
C415   H453    1.084   .     S
C417   C433    1.398   .     A
C418   C432    1.398   .     A
C419   C431    1.398   .     A
C420   C430    1.398   .     A
C421   C429    1.398   .     A
C422   C428    1.398   .     A
C423   C427    1.398   .     A
C424   C425    1.398   .     A
C426   H454    1.084   .     S
C426   C887    1.404   .     A
C435   C68     1.411   1_655 A
C436   C873    1.411   .     S
O469   Zn532   1.944   .     S
O469   Zn521   1.944   .     S
O469   Zn1064  1.944   1_545 S
O469   Zn524   1.944   .     S
O470   Zn523   1.951   .     S
O470   C910    1.279   .     S
O471   C107    1.279   1_655 A
O471   Zn526   1.951   .     S
O472   Zn525   1.951   .     S
O473   Zn535   1.951   .     S
O474   Zn534   1.951   .     S
O475   Zn529   1.951   .     S
O476   Zn521   1.951   .     S
O477   Zn531   1.951   .     S
O478   Zn530   1.951   .     S
O479   Zn533   1.951   .     S
O480   Zn527   1.944   .     S
O480   Zn1059  1.944   1_545 S
O480   Zn529   1.944   .     S
O480   Zn533   1.944   .     S
O481   Zn532   1.951   .     S
O482   Zn524   1.929   .     S
O483   Zn523   1.929   .     S
O484   Zn526   1.930   .     S
O485   Zn525   1.930   .     S
O486   Zn528   1.929   .     S
O487   Zn527   1.929   .     S
O488   Zn522   1.930   .     S
O489   Zn536   1.930   .     S
O490   Zn523   1.930   .     S
O491   Zn522   1.944   .     S
O491   Zn534   1.944   .     S
O491   Zn530   1.944   .     S
O492   Zn524   1.930   .     S
O493   Zn536   1.929   .     S
O494   Zn522   1.929   .     S
O495   Zn527   1.930   .     S
O496   Zn528   1.930   .     S
O497   Zn525   1.929   .     S
O498   Zn526   1.929   .     S
O499   Zn263   1.929   1_655 S
O500   Zn530   1.929   .     S
O501   Zn1069  1.930   .     S
O502   Zn525   1.944   .     S
O502   Zn531   1.944   .     S
O502   Zn535   1.944   .     S
O503   Zn532   1.930   .     S
O504   Zn535   1.929   .     S
O505   Zn266   1.929   1_655 S
O506   Zn529   1.930   .     S
O507   Zn1057  1.930   .     S
O508   Zn262   1.930   1_655 S
O509   Zn531   1.930   .     S
O510   Zn521   1.929   .     S
O511   Zn1065  1.929   .     S
O512   Zn534   1.930   .     S
O513   C909    1.279   .     A
O513   Zn528   1.951   .     S
O514   Zn267   1.930   1_655 S
O515   Zn1068  1.929   .     S
O516   Zn533   1.929   .     S
O517   Zn527   1.951   .     S
O518   Zn522   1.951   .     S
O519   Zn536   1.951   .     S
O519   C108    1.279   1_655 S
O520   Zn524   1.951   .     S
Zn521  O1043   1.930   1_545 S
Zn523  O1016   1.944   .     S
Zn526  O223    1.944   1_655 S
Zn528  O1005   1.944   .     S
Zn529  O1047   1.929   1_545 S
Zn532  O1051   1.929   1_545 S
Zn533  O1037   1.930   1_545 S
Zn536  O234    1.944   1_655 S
Br537  C667    1.933   .     S
Br538  C677    1.933   .     S
Br539  C678    1.933   .     S
Br540  C679    1.933   .     S
Br541  C680    1.933   .     S
Br542  C681    1.933   .     S
Br543  C682    1.933   .     S
Br544  C684    1.933   .     S
Br545  C685    1.933   .     S
Br546  C686    1.933   .     S
Br547  C687    1.933   .     S
Br548  C668    1.933   .     S
Br549  C688    1.933   .     S
Br550  C689    1.933   .     S
Br551  C690    1.933   .     S
Br552  C691    1.933   .     S
Br553  C692    1.933   .     S
Br554  C693    1.933   .     S
Br555  C695    1.933   .     S
Br556  C696    1.933   .     S
Br557  C697    1.933   .     S
Br558  C698    1.933   .     S
Br559  C669    1.933   .     S
Br560  C699    1.933   .     S
Br561  C700    1.933   .     S
Br562  C701    1.933   .     S
Br563  C670    1.933   .     S
Br564  C671    1.933   .     S
Br565  C673    1.933   .     S
Br566  C674    1.933   .     S
Br567  C675    1.933   .     S
Br568  C676    1.933   .     S
C569   C572    1.395   .     A
C569   H713    1.084   .     S
C569   C882    1.404   .     A
C570   C582    1.395   .     A
C570   H723    1.084   .     S
C570   C620    1.404   .     S
C571   C606    1.411   .     A
C571   C683    1.395   .     A
C571   C626    1.402   .     A
C572   C870    1.411   .     A
C572   C627    1.402   .     A
C573   C629    1.402   .     A
C573   C617    1.395   .     A
C573   C604    1.411   .     S
C574   C628    1.395   .     A
C574   C605    1.411   .     A
C574   C630    1.402   .     A
C575   C639    1.395   .     A
C575   C631    1.402   .     A
C575   C70     1.411   1_565 S
C576   C603    1.395   .     A
C576   C632    1.402   .     A
C576   C607    1.411   .     S
C577   C611    1.395   .     A
C577   C72     1.411   1_565 A
C577   C633    1.402   .     A
C578   C634    1.402   .     A
C578   C877    1.411   .     A
C578   C612    1.395   .     A
C579   C635    1.402   .     A
C579   C613    1.395   .     A
C579   C610    1.411   .     S
C580   C694    1.395   .     A
C580   C71     1.411   1_565 A
C580   C636    1.402   .     A
C581   C583    1.395   .     A
C581   H724    1.084   .     S
C581   C621    1.404   .     S
C582   C637    1.402   .     A
C582   C608    1.411   .     S
C583   C638    1.402   .     A
C583   C609    1.411   .     S
C584   C640    1.402   .     A
C584   C878    1.411   .     A
C584   C592    1.395   .     A
C585   C686    1.407   .     A
C585   C656    1.450   .     S
C585   C684    1.407   .     A
C586   C682    1.407   .     A
C586   C657    1.450   .     S
C586   C685    1.407   .     A
C587   C649    1.449   .     S
C587   C681    1.407   .     A
C587   C688    1.407   .     A
C588   C680    1.407   .     A
C588   C651    1.449   .     S
C588   C687    1.407   .     A
C589   C652    1.450   .     S
C589   C690    1.407   .     A
C589   C679    1.407   .     A
C590   C689    1.407   .     A
C590   C678    1.407   .     A
C590   C653    1.450   .     S
C591   C677    1.407   .     A
C591   C692    1.407   .     A
C591   C654    1.449   .     S
C592   C890    1.404   .     A
C592   H725    1.084   .     S
C593   C691    1.407   .     A
C593   C676    1.407   .     A
C593   C655    1.449   .     S
C594   C675    1.407   .     A
C594   C695    1.407   .     A
C594   C665    1.449   .     S
C595   C666    1.449   .     S
C595   C674    1.407   .     A
C595   C693    1.407   .     A
C596   C673    1.407   .     A
C596   C697    1.407   .     A
C596   C658    1.450   .     S
C597   C671    1.407   .     A
C597   C696    1.407   .     A
C597   C659    1.450   .     S
C598   C660    1.449   .     S
C598   C699    1.407   .     A
C598   C670    1.407   .     A
C599   C698    1.407   .     A
C599   C669    1.407   .     A
C599   C662    1.449   .     S
C600   C701    1.407   .     A
C600   C668    1.407   .     A
C600   C663    1.450   .     S
C601   C667    1.407   .     A
C601   C664    1.450   .     S
C601   C700    1.407   .     A
C602   C604    1.403   .     A
C602   C840    1.411   1_455 A
C602   C702    1.411   .     S
C603   H726    1.084   .     S
C603   C619    1.404   .     S
C604   C971    1.411   1_455 A
C605   C606    1.403   .     A
C607   C608    1.403   1_556 S
C608   C607    1.403   1_554 S
C609   C846    1.411   1_455 A
C609   C610    1.403   1_556 S
C610   C852    1.411   1_455 A
C610   C609    1.403   1_554 S
C611   C84     1.404   1_565 A
C611   H728    1.084   .     S
C612   C889    1.404   .     A
C612   H729    1.084   .     S
C613   H730    1.084   .     S
C613   C622    1.404   .     S
C614   C643    1.464   .     S
C614   C837    1.404   1_455 A
C614   C650    1.404   .     S
C615   C617    1.404   .     A
C615   C644    1.464   .     S
C615   C929    1.404   1_455 S
C616   C641    1.464   .     S
C616   C628    1.404   .     S
C617   H714    1.084   .     S
C618   C683    1.404   .     A
C618   C642    1.464   .     S
C619   C647    1.464   .     S
C620   C648    1.464   .     S
C621   C645    1.464   .     S
C621   C880    1.404   1_455 A
C622   C860    1.404   1_455 A
C622   C646    1.464   .     S
C623   C629    1.395   .     A
C623   C702    1.402   .     A
C623   H705    1.084   .     S
C624   H716    1.084   .     S
C624   C627    1.395   .     A
C624   C703    1.402   .     A
C625   C631    1.395   .     A
C625   C704    1.402   .     A
C625   H727    1.084   .     S
C626   H731    1.084   .     S
C626   C630    1.395   .     A
C627   H732    1.084   .     S
C628   H715    1.084   .     S
C629   H733    1.084   .     S
C630   H734    1.084   .     S
C631   H735    1.084   .     S
C632   H736    1.084   .     S
C632   C637    1.395   1_556 S
C633   H706    1.084   .     S
C633   C636    1.395   1_554 S
C634   H707    1.084   .     S
C634   C640    1.395   1_556 S
C635   H708    1.084   .     S
C635   C638    1.395   1_554 S
C636   H709    1.084   .     S
C636   C633    1.395   1_556 S
C637   H710    1.084   .     S
C637   C632    1.395   1_554 S
C638   H711    1.084   .     S
C638   C635    1.395   1_556 S
C639   H717    1.084   .     S
C639   C82     1.404   1_565 S
C640   H712    1.084   .     S
C640   C634    1.395   1_554 S
C641   O788    1.279   .     S
C642   O785    1.279   .     A
C643   O1007   1.279   1_455 A
C643   O786    1.279   .     S
C644   O740    1.279   .     A
C644   O1055   1.279   1_455 S
C645   O741    1.279   .     S
C645   O745    1.279   .     S
C646   O746    1.279   .     A
C646   O742    1.279   .     A
C647   O743    1.279   .     A
C647   O747    1.279   .     A
C648   O744    1.279   .     S
C648   O749    1.279   .     S
C649   O750    1.278   .     A
C649   O778    1.278   .     A
C650   C702    1.395   .     A
C650   H718    1.084   .     S
C651   O751    1.278   .     A
C651   O779    1.278   .     A
C652   O752    1.278   .     A
C652   O776    1.278   .     A
C653   O753    1.278   .     A
C653   O777    1.278   .     A
C654   O754    1.278   .     A
C654   O783    1.278   .     A
C655   O755    1.278   .     A
C655   O784    1.278   .     A
C656   O780    1.278   .     A
C656   O756    1.278   .     A
C657   O782    1.278   .     A
C657   O757    1.278   .     A
C658   O758    1.278   .     A
C658   O769    1.278   .     A
C659   O771    1.278   .     A
C659   O760    1.278   .     A
C660   O761    1.278   .     A
C660   O767    1.278   .     A
C661   C703    1.395   .     A
C661   H719    1.084   .     S
C661   C883    1.404   .     S
C662   O768    1.278   .     A
C662   O762    1.278   .     A
C663   O763    1.278   .     A
C663   O774    1.278   .     A
C664   O775    1.278   .     A
C664   O764    1.278   .     A
C665   O772    1.278   .     A
C665   O765    1.278   .     A
C666   O773    1.278   .     A
C666   O766    1.278   .     A
C667   C684    1.398   .     A
C668   C682    1.398   .     A
C669   C681    1.398   .     A
C670   C680    1.398   .     A
C671   C679    1.398   .     A
C672   H720    1.084   .     S
C672   C704    1.395   .     A
C672   C80     1.404   1_565 A
C673   C678    1.398   .     A
C674   C677    1.398   .     A
C675   C676    1.398   .     A
C683   H721    1.084   .     S
C685   C701    1.398   .     A
C686   C700    1.398   .     A
C687   C699    1.398   .     A
C688   C698    1.398   .     A
C689   C697    1.398   .     A
C690   C696    1.398   .     A
C691   C695    1.398   .     A
C692   C693    1.398   .     A
C694   H722    1.084   .     S
C694   C83     1.404   1_565 A
C703   C872    1.411   .     A
C704   C69     1.411   1_565 S
O737   Zn800   1.944   .     S
O737   Zn789   1.944   .     S
O737   Zn792   1.944   .     S
O738   Zn791   1.951   .     S
O738   C106    1.279   1_565 S
O739   C911    1.279   .     A
O739   Zn794   1.951   .     S
O740   Zn793   1.951   .     S
O741   Zn803   1.951   .     S
O742   Zn802   1.951   .     S
O743   Zn797   1.951   .     S
O744   Zn789   1.951   .     S
O745   Zn799   1.951   .     S
O746   Zn798   1.951   .     S
O747   Zn801   1.951   .     S
O748   Zn795   1.944   .     S
O748   Zn797   1.944   .     S
O748   Zn801   1.944   .     S
O749   Zn800   1.951   .     S
O750   Zn792   1.929   .     S
O751   Zn791   1.929   .     S
O752   Zn794   1.930   .     S
O753   Zn793   1.930   .     S
O754   Zn796   1.929   .     S
O755   Zn795   1.929   .     S
O756   Zn790   1.930   .     S
O757   Zn804   1.930   .     S
O758   Zn791   1.930   .     S
O759   Zn790   1.944   .     S
O759   Zn802   1.944   .     S
O759   Zn798   1.944   .     S
O759   Zn1062  1.944   1_455 S
O760   Zn792   1.930   .     S
O761   Zn804   1.929   .     S
O762   Zn790   1.929   .     S
O763   Zn795   1.930   .     S
O764   Zn796   1.930   .     S
O765   Zn793   1.929   .     S
O766   Zn794   1.929   .     S
O767   Zn1067  1.929   .     S
O768   Zn798   1.929   .     S
O769   Zn265   1.930   1_565 S
O770   Zn793   1.944   .     S
O770   Zn799   1.944   .     S
O770   Zn803   1.944   .     S
O770   Zn1072  1.944   1_455 S
O771   Zn800   1.930   .     S
O772   Zn803   1.929   .     S
O773   Zn1070  1.929   .     S
O774   Zn797   1.930   .     S
O775   Zn253   1.930   1_565 S
O776   Zn1066  1.930   .     S
O777   Zn799   1.930   .     S
O778   Zn789   1.929   .     S
O779   Zn261   1.929   1_565 S
O780   Zn802   1.930   .     S
O781   C105    1.279   1_565 A
O781   Zn796   1.951   .     S
O782   Zn1071  1.930   .     S
O783   Zn264   1.929   1_565 S
O784   Zn801   1.929   .     S
O785   Zn795   1.951   .     S
O786   Zn790   1.951   .     S
O787   Zn804   1.951   .     S
O787   C912    1.279   .     S
O788   Zn792   1.951   .     S
Zn791  O212    1.944   1_565 S
Zn794  O1027   1.944   .     S
Zn796  O201    1.944   1_565 S
Zn798  O1044   1.930   1_455 S
Zn799  O1035   1.929   1_455 S
Zn802  O1041   1.929   1_455 S
Zn803  O1050   1.930   1_455 S
Zn804  O1038   1.944   .     S
Br805  C935    1.933   .     S
Br806  C945    1.933   .     S
Br807  C946    1.933   .     S
Br808  C947    1.933   .     S
Br809  C948    1.933   .     S
Br810  C949    1.933   .     S
Br811  C950    1.933   .     S
Br812  C952    1.933   .     S
Br813  C953    1.933   .     S
Br814  C954    1.933   .     S
Br815  C955    1.933   .     S
Br816  C936    1.933   .     S
Br817  C956    1.933   .     S
Br818  C957    1.933   .     S
Br819  C958    1.933   .     S
Br820  C959    1.933   .     S
Br821  C960    1.933   .     S
Br822  C961    1.933   .     S
Br823  C963    1.933   .     S
Br824  C964    1.933   .     S
Br825  C965    1.933   .     S
Br826  C966    1.933   .     S
Br827  C937    1.933   .     S
Br828  C967    1.933   .     S
Br829  C968    1.933   .     S
Br830  C969    1.933   .     S
Br831  C938    1.933   .     S
Br832  C939    1.933   .     S
Br833  C941    1.933   .     S
Br834  C942    1.933   .     S
Br835  C943    1.933   .     S
Br836  C944    1.933   .     S
C837   C840    1.395   .     A
C837   H981    1.084   .     S
C837   C614    1.404   1_655 A
C838   C850    1.395   .     A
C838   H991    1.084   .     S
C838   C888    1.404   .     S
C839   C874    1.411   .     A
C839   C951    1.395   .     A
C839   C894    1.402   .     A
C840   C602    1.411   1_655 A
C840   C895    1.402   .     A
C841   C897    1.402   .     A
C841   C885    1.395   .     A
C841   C872    1.411   .     S
C842   C896    1.395   .     A
C842   C873    1.411   .     A
C842   C898    1.402   .     A
C843   C907    1.395   .     A
C843   C899    1.402   .     A
C843   C338    1.411   1_565 S
C844   C871    1.395   .     A
C844   C900    1.402   .     A
C844   C875    1.411   .     S
C845   C879    1.395   .     A
C845   C340    1.411   1_565 A
C845   C901    1.402   .     A
C846   C902    1.402   .     A
C846   C609    1.411   1_655 A
C846   C880    1.395   .     A
C847   C903    1.402   .     A
C847   C881    1.395   .     A
C847   C878    1.411   .     S
C848   C962    1.395   .     A
C848   C339    1.411   1_565 A
C848   C904    1.402   .     A
C849   C851    1.395   .     A
C849   H992    1.084   .     S
C849   C889    1.404   .     S
C850   C905    1.402   .     A
C850   C876    1.411   .     S
C851   C906    1.402   .     A
C851   C877    1.411   .     S
C852   C908    1.402   .     A
C852   C610    1.411   1_655 A
C852   C860    1.395   .     A
C853   C954    1.407   .     A
C853   C924    1.450   .     S
C853   C952    1.407   .     A
C854   C950    1.407   .     A
C854   C925    1.450   .     S
C854   C953    1.407   .     A
C855   C917    1.449   .     S
C855   C949    1.407   .     A
C855   C956    1.407   .     A
C856   C948    1.407   .     A
C856   C919    1.449   .     S
C856   C955    1.407   .     A
C857   C920    1.450   .     S
C857   C958    1.407   .     A
C857   C947    1.407   .     A
C858   C957    1.407   .     A
C858   C946    1.407   .     A
C858   C921    1.450   .     S
C859   C945    1.407   .     A
C859   C960    1.407   .     A
C859   C922    1.449   .     S
C860   C622    1.404   1_655 A
C860   H993    1.084   .     S
C861   C959    1.407   .     A
C861   C944    1.407   .     A
C861   C923    1.449   .     S
C862   C943    1.407   .     A
C862   C963    1.407   .     A
C862   C933    1.449   .     S
C863   C934    1.449   .     S
C863   C942    1.407   .     A
C863   C961    1.407   .     A
C864   C941    1.407   .     A
C864   C965    1.407   .     A
C864   C926    1.450   .     S
C865   C939    1.407   .     A
C865   C964    1.407   .     A
C865   C927    1.450   .     S
C866   C928    1.449   .     S
C866   C967    1.407   .     A
C866   C938    1.407   .     A
C867   C966    1.407   .     A
C867   C937    1.407   .     A
C867   C930    1.449   .     S
C868   C969    1.407   .     A
C868   C936    1.407   .     A
C868   C931    1.450   .     S
C869   C935    1.407   .     A
C869   C932    1.450   .     S
C869   C968    1.407   .     A
C870   C872    1.403   .     A
C870   C970    1.411   .     S
C871   H994    1.084   .     S
C871   C887    1.404   .     S
C873   C874    1.403   .     A
C875   C876    1.403   1_556 S
C876   C875    1.403   1_554 S
C877   C878    1.403   1_556 S
C878   C877    1.403   1_554 S
C879   C352    1.404   1_565 A
C879   H996    1.084   .     S
C880   C621    1.404   1_655 A
C880   H997    1.084   .     S
C881   H998    1.084   .     S
C881   C890    1.404   .     S
C882   C911    1.464   .     S
C882   C918    1.404   .     S
C883   C885    1.404   .     A
C883   C912    1.464   .     S
C884   C909    1.464   .     S
C884   C896    1.404   .     S
C885   H982    1.084   .     S
C886   C951    1.404   .     A
C886   C910    1.464   .     S
C887   C915    1.464   .     S
C888   C916    1.464   .     S
C889   C913    1.464   .     S
C890   C914    1.464   .     S
C891   C897    1.395   .     A
C891   C970    1.402   .     A
C891   H973    1.084   .     S
C892   H984    1.084   .     S
C892   C895    1.395   .     A
C892   C971    1.402   .     A
C893   C899    1.395   .     A
C893   C972    1.402   .     A
C893   H995    1.084   .     S
C894   H999    1.084   .     S
C894   C898    1.395   .     A
C895   H1000   1.084   .     S
C896   H983    1.084   .     S
C897   H1001   1.084   .     S
C898   H1002   1.084   .     S
C899   H1003   1.084   .     S
C900   H1004   1.084   .     S
C900   C905    1.395   1_556 S
C901   H974    1.084   .     S
C901   C904    1.395   1_554 S
C902   H975    1.084   .     S
C902   C908    1.395   1_556 S
C903   H976    1.084   .     S
C903   C906    1.395   1_554 S
C904   H977    1.084   .     S
C904   C901    1.395   1_556 S
C905   H978    1.084   .     S
C905   C900    1.395   1_554 S
C906   H979    1.084   .     S
C906   C903    1.395   1_556 S
C907   H985    1.084   .     S
C907   C350    1.404   1_565 S
C908   H980    1.084   .     S
C908   C902    1.395   1_554 S
C909   O1056   1.279   .     S
C910   O1053   1.279   .     A
C911   O1054   1.279   .     S
C912   O1008   1.279   .     A
C913   O1009   1.279   .     S
C913   O1013   1.279   .     S
C914   O1014   1.279   .     A
C914   O1010   1.279   .     A
C915   O1011   1.279   .     A
C915   O1015   1.279   .     A
C916   O1012   1.279   .     S
C916   O1017   1.279   .     S
C917   O1018   1.278   .     A
C917   O1046   1.278   .     A
C918   C970    1.395   .     A
C918   H986    1.084   .     S
C919   O1019   1.278   .     A
C919   O1047   1.278   .     A
C920   O1020   1.278   .     A
C920   O1044   1.278   .     A
C921   O1021   1.278   .     A
C921   O1045   1.278   .     A
C922   O1022   1.278   .     A
C922   O1051   1.278   .     A
C923   O1023   1.278   .     A
C923   O1052   1.278   .     A
C924   O1048   1.278   .     A
C924   O1024   1.278   .     A
C925   O1050   1.278   .     A
C925   O1025   1.278   .     A
C926   O1026   1.278   .     A
C926   O1037   1.278   .     A
C927   O1039   1.278   .     A
C927   O1028   1.278   .     A
C928   O1029   1.278   .     A
C928   O1035   1.278   .     A
C929   C971    1.395   .     A
C929   H987    1.084   .     S
C929   C615    1.404   1_655 S
C930   O1036   1.278   .     A
C930   O1030   1.278   .     A
C931   O1031   1.278   .     A
C931   O1042   1.278   .     A
C932   O1043   1.278   .     A
C932   O1032   1.278   .     A
C933   O1040   1.278   .     A
C933   O1033   1.278   .     A
C934   O1041   1.278   .     A
C934   O1034   1.278   .     A
C935   C952    1.398   .     A
C936   C950    1.398   .     A
C937   C949    1.398   .     A
C938   C948    1.398   .     A
C939   C947    1.398   .     A
C940   H988    1.084   .     S
C940   C972    1.395   .     A
C940   C348    1.404   1_565 A
C941   C946    1.398   .     A
C942   C945    1.398   .     A
C943   C944    1.398   .     A
C951   H989    1.084   .     S
C953   C969    1.398   .     A
C954   C968    1.398   .     A
C955   C967    1.398   .     A
C956   C966    1.398   .     A
C957   C965    1.398   .     A
C958   C964    1.398   .     A
C959   C963    1.398   .     A
C960   C961    1.398   .     A
C962   H990    1.084   .     S
C962   C351    1.404   1_565 A
C971   C604    1.411   1_655 A
C972   C337    1.411   1_565 S
O1005  Zn1068  1.944   .     S
O1005  Zn1057  1.944   .     S
O1005  Zn1060  1.944   .     S
O1006  Zn1059  1.951   .     S
O1006  C374    1.279   1_565 S
O1007  C643    1.279   1_655 A
O1007  Zn1062  1.951   .     S
O1008  Zn1061  1.951   .     S
O1009  Zn1071  1.951   .     S
O1010  Zn1070  1.951   .     S
O1011  Zn1065  1.951   .     S
O1012  Zn1057  1.951   .     S
O1013  Zn1067  1.951   .     S
O1014  Zn1066  1.951   .     S
O1015  Zn1069  1.951   .     S
O1016  Zn1063  1.944   .     S
O1016  Zn1065  1.944   .     S
O1016  Zn1069  1.944   .     S
O1017  Zn1068  1.951   .     S
O1018  Zn1060  1.929   .     S
O1019  Zn1059  1.929   .     S
O1020  Zn1062  1.930   .     S
O1021  Zn1061  1.930   .     S
O1022  Zn1064  1.929   .     S
O1023  Zn1063  1.929   .     S
O1024  Zn1058  1.930   .     S
O1025  Zn1072  1.930   .     S
O1026  Zn1059  1.930   .     S
O1027  Zn1058  1.944   .     S
O1027  Zn1070  1.944   .     S
O1027  Zn1066  1.944   .     S
O1028  Zn1060  1.930   .     S
O1029  Zn1072  1.929   .     S
O1030  Zn1058  1.929   .     S
O1031  Zn1063  1.930   .     S
O1032  Zn1064  1.930   .     S
O1033  Zn1061  1.929   .     S
O1034  Zn1062  1.929   .     S
O1035  Zn799   1.929   1_655 S
O1036  Zn1066  1.929   .     S
O1037  Zn533   1.930   1_565 S
O1038  Zn1061  1.944   .     S
O1038  Zn1067  1.944   .     S
O1038  Zn1071  1.944   .     S
O1039  Zn1068  1.930   .     S
O1040  Zn1071  1.929   .     S
O1041  Zn802   1.929   1_655 S
O1042  Zn1065  1.930   .     S
O1043  Zn521   1.930   1_565 S
O1044  Zn798   1.930   1_655 S
O1045  Zn1067  1.930   .     S
O1046  Zn1057  1.929   .     S
O1047  Zn529   1.929   1_565 S
O1048  Zn1070  1.930   .     S
O1049  C373    1.279   1_565 A
O1049  Zn1064  1.951   .     S
O1050  Zn803   1.930   1_655 S
O1051  Zn532   1.929   1_565 S
O1052  Zn1069  1.929   .     S
O1053  Zn1063  1.951   .     S
O1054  Zn1058  1.951   .     S
O1055  Zn1072  1.951   .     S
O1055  C644    1.279   1_655 S
O1056  Zn1060  1.951   .     S
Zn1059 O480    1.944   1_565 S
Zn1062 O759    1.944   1_655 S
Zn1064 O469    1.944   1_565 S
Zn1072 O770    1.944   1_655 S
