data_str_m1_o1_o17_pcu_sym.2
_audit_creation_date              2020-01-03
_audit_creation_method            'Materials Studio'
_symmetry_space_group_name_H-M    'P1'
_symmetry_Int_Tables_number       1
_symmetry_cell_setting            triclinic
loop_
_symmetry_equiv_pos_as_xyz
  x,y,z
_cell_length_a                    36.6383
_cell_length_b                    36.6382
_cell_length_c                    34.4177
_cell_angle_alpha                 90.2376
_cell_angle_beta                  90.2375
_cell_angle_gamma                 90.1183
loop_
_atom_site_label
_atom_site_type_symbol
_atom_site_fract_x
_atom_site_fract_y
_atom_site_fract_z
_atom_site_U_iso_or_equiv
_atom_site_adp_type
_atom_site_occupancy
C1     C     0.48699   0.28068   0.41754   0.00000  Uiso   1.00
C2     C     0.26431   0.47047   0.08226   0.00000  Uiso   1.00
C3     C     0.21935   0.01480   0.54136   0.00000  Uiso   1.00
C4     C     0.48521   0.28066   0.45864   0.00000  Uiso   1.00
C5     C     0.01525   0.22029   0.54117   0.00000  Uiso   1.00
C6     C     0.22081   0.01748   0.45898   0.00000  Uiso   1.00
C7     C     0.27887   0.48293   0.54105   0.00000  Uiso   1.00
C8     C     0.26708   0.47114   0.95895   0.00000  Uiso   1.00
C9     C     0.23250   0.02918   0.04102   0.00000  Uiso   1.00
C10    C     0.02970   0.23473   0.95883   0.00000  Uiso   1.00
C11    C     0.46936   0.26482   0.04136   0.00000  Uiso   1.00
C12    C     0.23518   0.03064   0.95864   0.00000  Uiso   1.00
C13    C     0.47312   0.27059   0.91817   0.00000  Uiso   1.00
C14    C     0.26527   0.47030   0.04117   0.00000  Uiso   1.00
C15    C     0.47082   0.26750   0.95898   0.00000  Uiso   1.00
C16    C     0.02886   0.23292   0.04105   0.00000  Uiso   1.00
C17    C     0.09820   0.34797   0.25001   0.00000  Uiso   1.00
C18    C     0.40183   0.15201   0.74998   0.00000  Uiso   1.00
C19    C     0.15189   0.09811   0.25000   0.00000  Uiso   1.00
C20    C     0.34811   0.40189   0.75000   0.00000  Uiso   1.00
C21    C     0.40203   0.15180   0.24999   0.00000  Uiso   1.00
C22    C     0.09799   0.34817   0.75002   0.00000  Uiso   1.00
C23    C     0.34811   0.40189   0.25000   0.00000  Uiso   1.00
C24    C     0.02736   0.23067   0.08196   0.00000  Uiso   1.00
C25    C     0.15192   0.09807   0.75000   0.00000  Uiso   1.00
C26    C     0.09811   0.15189   0.75000   0.00000  Uiso   1.00
C27    C     0.40193   0.34808   0.25000   0.00000  Uiso   1.00
C28    C     0.15203   0.40180   0.74999   0.00000  Uiso   1.00
C29    C     0.34799   0.09817   0.25002   0.00000  Uiso   1.00
C30    C     0.40189   0.34811   0.75000   0.00000  Uiso   1.00
C31    C     0.09811   0.15189   0.25000   0.00000  Uiso   1.00
C32    C     0.34820   0.09797   0.75001   0.00000  Uiso   1.00
C33    C     0.15183   0.40201   0.24998   0.00000  Uiso   1.00
C34    C     0.00069   0.25069   0.47937   0.00000  Uiso   1.00
C35    C     0.26933   0.47264   0.91804   0.00000  Uiso   1.00
C36    C     0.49944   0.25003   0.52050   0.00000  Uiso   1.00
C37    C     0.24997   0.00056   0.47950   0.00000  Uiso   1.00
C38    C     0.24931   0.49931   0.52063   0.00000  Uiso   1.00
C39    C     0.25069   0.00069   0.97937   0.00000  Uiso   1.00
C40    C     0.24944   0.00003   0.02050   0.00000  Uiso   1.00
C41    C     0.49997   0.25056   0.97950   0.00000  Uiso   1.00
C42    C     0.49931   0.24931   0.02063   0.00000  Uiso   1.00
C43    C     0.00545   0.33197   0.38559   0.00000  Uiso   1.00
C44    C     0.49252   0.36352   0.36051   0.00000  Uiso   1.00
C45    C     0.49830   0.16741   0.61199   0.00000  Uiso   1.00
C46    C     0.22941   0.02688   0.08183   0.00000  Uiso   1.00
C47    C     0.01195   0.13660   0.63764   0.00000  Uiso   1.00
C48    C     0.21290   0.07873   0.39792   0.00000  Uiso   1.00
C49    C     0.18756   0.10302   0.37430   0.00000  Uiso   1.00
C50    C     0.29448   0.42444   0.60350   0.00000  Uiso   1.00
C51    C     0.32328   0.40378   0.62653   0.00000  Uiso   1.00
C52    C     0.07555   0.20551   0.39650   0.00000  Uiso   1.00
C53    C     0.09621   0.17671   0.37346   0.00000  Uiso   1.00
C54    C     0.42128   0.28711   0.60208   0.00000  Uiso   1.00
C55    C     0.39699   0.31245   0.62570   0.00000  Uiso   1.00
C56    C     0.33259   0.00170   0.38801   0.00000  Uiso   1.00
C57    C     0.02953   0.23569   0.91774   0.00000  Uiso   1.00
C58    C     0.36339   0.48805   0.36236   0.00000  Uiso   1.00
C59    C     0.16803   0.49456   0.61440   0.00000  Uiso   1.00
C60    C     0.13651   0.00748   0.63954   0.00000  Uiso   1.00
C61    C     0.25541   0.08197   0.88562   0.00000  Uiso   1.00
C62    C     0.24250   0.11345   0.86043   0.00000  Uiso   1.00
C63    C     0.24832   0.41741   0.11198   0.00000  Uiso   1.00
C64    C     0.26197   0.38660   0.13762   0.00000  Uiso   1.00
C65    C     0.46295   0.32875   0.89792   0.00000  Uiso   1.00
C66    C     0.43763   0.35306   0.87431   0.00000  Uiso   1.00
C67    C     0.04445   0.17442   0.10349   0.00000  Uiso   1.00
C68    C     0.46933   0.26303   0.08246   0.00000  Uiso   1.00
C69    C     0.07323   0.15374   0.12653   0.00000  Uiso   1.00
C70    C     0.32558   0.45555   0.89651   0.00000  Uiso   1.00
C71    C     0.34626   0.42677   0.87346   0.00000  Uiso   1.00
C72    C     0.17124   0.03704   0.10208   0.00000  Uiso   1.00
C73    C     0.14694   0.06236   0.12569   0.00000  Uiso   1.00
C74    C     0.08259   0.25168   0.88802   0.00000  Uiso   1.00
C75    C     0.11340   0.23802   0.86239   0.00000  Uiso   1.00
C76    C     0.41803   0.24458   0.11438   0.00000  Uiso   1.00
C77    C     0.38653   0.25750   0.13955   0.00000  Uiso   1.00
C78    C     0.00137   0.25046   0.39800   0.00000  Uiso   1.00
C79    C     0.49868   0.24990   0.60192   0.00000  Uiso   1.00
C80    C     0.25010   0.00132   0.39808   0.00000  Uiso   1.00
C81    C     0.01430   0.22046   0.58226   0.00000  Uiso   1.00
C82    C     0.24955   0.49864   0.60200   0.00000  Uiso   1.00
C83    C     0.25136   0.00045   0.89800   0.00000  Uiso   1.00
C84    C     0.24868   0.49990   0.10192   0.00000  Uiso   1.00
C85    C     0.00010   0.25132   0.89808   0.00000  Uiso   1.00
C86    C     0.49955   0.24863   0.10200   0.00000  Uiso   1.00
C87    C     0.03039   0.19060   0.47966   0.00000  Uiso   1.00
C88    C     0.46938   0.30984   0.52022   0.00000  Uiso   1.00
C89    C     0.30892   0.46868   0.47956   0.00000  Uiso   1.00
C90    C     0.19043   0.03137   0.52023   0.00000  Uiso   1.00
C91    C     0.46864   0.30958   0.47977   0.00000  Uiso   1.00
C92    C     0.22311   0.02057   0.41817   0.00000  Uiso   1.00
C93    C     0.03131   0.19108   0.52044   0.00000  Uiso   1.00
C94    C     0.19017   0.03063   0.47978   0.00000  Uiso   1.00
C95    C     0.30939   0.46960   0.52034   0.00000  Uiso   1.00
C96    C     0.28042   0.44062   0.97966   0.00000  Uiso   1.00
C97    C     0.21932   0.05981   0.02022   0.00000  Uiso   1.00
C98    C     0.05890   0.21865   0.97956   0.00000  Uiso   1.00
C99    C     0.44046   0.28141   0.02023   0.00000  Uiso   1.00
C100   C     0.21858   0.05954   0.97977   0.00000  Uiso   1.00
C101   C     0.28135   0.44110   0.02044   0.00000  Uiso   1.00
C102   C     0.44019   0.28067   0.97978   0.00000  Uiso   1.00
C103   C     0.27737   0.48068   0.58196   0.00000  Uiso   1.00
C104   C     0.05938   0.21958   0.02034   0.00000  Uiso   1.00
C105   C     0.24940   0.00025   0.35578   0.00000  Uiso   1.00
C106   C     0.25055   0.49976   0.64425   0.00000  Uiso   1.00
C107   C     0.00024   0.24945   0.35575   0.00000  Uiso   1.00
C108   C     0.49975   0.25060   0.64422   0.00000  Uiso   1.00
C109   C     0.49940   0.25025   0.85578   0.00000  Uiso   1.00
C110   C     0.00055   0.24976   0.14425   0.00000  Uiso   1.00
C111   C     0.25024   0.49945   0.85575   0.00000  Uiso   1.00
C112   C     0.24975   0.00060   0.14422   0.00000  Uiso   1.00
C113   C     0.17996   0.07004   0.25000   0.00000  Uiso   1.00
C114   C     0.01931   0.22263   0.41804   0.00000  Uiso   1.00
C115   C     0.32004   0.42996   0.75000   0.00000  Uiso   1.00
C116   C     0.43005   0.17995   0.24999   0.00000  Uiso   1.00
C117   C     0.06996   0.32004   0.75001   0.00000  Uiso   1.00
C118   C     0.32001   0.42999   0.25000   0.00000  Uiso   1.00
C119   C     0.18001   0.06999   0.75000   0.00000  Uiso   1.00
C120   C     0.07005   0.31995   0.25001   0.00000  Uiso   1.00
C121   C     0.42996   0.18004   0.74999   0.00000  Uiso   1.00
C122   C     0.18005   0.42995   0.74999   0.00000  Uiso   1.00
C123   C     0.31996   0.07004   0.25001   0.00000  Uiso   1.00
C124   C     0.42996   0.32004   0.75000   0.00000  Uiso   1.00
C125   C     0.47944   0.27690   0.58183   0.00000  Uiso   1.00
C126   C     0.07004   0.17996   0.25000   0.00000  Uiso   1.00
C127   C     0.32005   0.06995   0.75001   0.00000  Uiso   1.00
C128   C     0.17996   0.43004   0.24999   0.00000  Uiso   1.00
C129   C     0.07001   0.17999   0.75000   0.00000  Uiso   1.00
C130   C     0.43001   0.31999   0.25000   0.00000  Uiso   1.00
C131   C     0.13846   0.38840   0.21441   0.00000  Uiso   1.00
C132   C     0.36162   0.11154   0.78558   0.00000  Uiso   1.00
C133   C     0.08802   0.11505   0.24527   0.00000  Uiso   1.00
C134   C     0.41197   0.38495   0.75476   0.00000  Uiso   1.00
C135   C     0.36124   0.11139   0.21443   0.00000  Uiso   1.00
C136   C     0.27954   0.48570   0.41774   0.00000  Uiso   1.00
C137   C     0.13879   0.38856   0.78558   0.00000  Uiso   1.00
C138   C     0.39110   0.36400   0.21465   0.00000  Uiso   1.00
C139   C     0.10886   0.13584   0.78534   0.00000  Uiso   1.00
C140   C     0.13600   0.10891   0.78535   0.00000  Uiso   1.00
C141   C     0.36416   0.39114   0.21466   0.00000  Uiso   1.00
C142   C     0.11160   0.36154   0.78559   0.00000  Uiso   1.00
C143   C     0.38845   0.13838   0.21442   0.00000  Uiso   1.00
C144   C     0.38495   0.41198   0.75475   0.00000  Uiso   1.00
C145   C     0.11505   0.08802   0.24525   0.00000  Uiso   1.00
C146   C     0.38861   0.13876   0.78557   0.00000  Uiso   1.00
C147   C     0.21932   0.01302   0.58246   0.00000  Uiso   1.00
C148   C     0.11144   0.36121   0.21442   0.00000  Uiso   1.00
C149   C     0.38846   0.13839   0.71441   0.00000  Uiso   1.00
C150   C     0.11162   0.36155   0.28558   0.00000  Uiso   1.00
C151   C     0.33802   0.36505   0.74526   0.00000  Uiso   1.00
C152   C     0.16198   0.13495   0.25475   0.00000  Uiso   1.00
C153   C     0.11124   0.36139   0.71443   0.00000  Uiso   1.00
C154   C     0.38880   0.13856   0.28558   0.00000  Uiso   1.00
C155   C     0.14109   0.11400   0.71465   0.00000  Uiso   1.00
C156   C     0.35886   0.38584   0.28534   0.00000  Uiso   1.00
C157   C     0.38600   0.35891   0.28535   0.00000  Uiso   1.00
C158   C     0.23697   0.03067   0.91754   0.00000  Uiso   1.00
C159   C     0.11416   0.14114   0.71466   0.00000  Uiso   1.00
C160   C     0.36161   0.11154   0.28559   0.00000  Uiso   1.00
C161   C     0.13846   0.38838   0.71442   0.00000  Uiso   1.00
C162   C     0.13495   0.16198   0.25473   0.00000  Uiso   1.00
C163   C     0.36505   0.33802   0.74524   0.00000  Uiso   1.00
C164   C     0.13861   0.38876   0.28557   0.00000  Uiso   1.00
C165   C     0.36144   0.11120   0.71442   0.00000  Uiso   1.00
C166   C     0.01706   0.22113   0.45895   0.00000  Uiso   1.00
C167   C     0.48252   0.27920   0.54102   0.00000  Uiso   1.00
C168   C     0.27971   0.48474   0.45883   0.00000  Uiso   1.00
H169   H     0.06868   0.15221   0.46633   0.00000  Uiso   1.00
H170   H     0.42917   0.32844   0.44276   0.00000  Uiso   1.00
H171   H     0.01603   0.38128   0.35298   0.00000  Uiso   1.00
H172   H     0.48007   0.35284   0.33325   0.00000  Uiso   1.00
H173   H     0.48703   0.15534   0.58471   0.00000  Uiso   1.00
H174   H     0.47582   0.18147   0.62772   0.00000  Uiso   1.00
H175   H     0.02248   0.14786   0.66553   0.00000  Uiso   1.00
H176   H     0.48921   0.11745   0.64390   0.00000  Uiso   1.00
H177   H     0.03406   0.12145   0.62266   0.00000  Uiso   1.00
H178   H     0.24071   0.08045   0.38516   0.00000  Uiso   1.00
H179   H     0.21439   0.08971   0.42810   0.00000  Uiso   1.00
H180   H     0.15985   0.10318   0.38725   0.00000  Uiso   1.00
H181   H     0.03662   0.13713   0.53376   0.00000  Uiso   1.00
H182   H     0.19830   0.13138   0.37398   0.00000  Uiso   1.00
H183   H     0.18562   0.09280   0.34398   0.00000  Uiso   1.00
H184   H     0.29348   0.41280   0.57358   0.00000  Uiso   1.00
H185   H     0.26749   0.41970   0.61727   0.00000  Uiso   1.00
H186   H     0.32497   0.41470   0.65661   0.00000  Uiso   1.00
H187   H     0.31605   0.37435   0.62773   0.00000  Uiso   1.00
H188   H     0.35033   0.40672   0.61245   0.00000  Uiso   1.00
H189   H     0.08719   0.20650   0.42642   0.00000  Uiso   1.00
H190   H     0.08030   0.23250   0.38273   0.00000  Uiso   1.00
H191   H     0.08528   0.17502   0.34338   0.00000  Uiso   1.00
H192   H     0.07661   0.16099   0.53230   0.00000  Uiso   1.00
H193   H     0.12564   0.18394   0.37227   0.00000  Uiso   1.00
H194   H     0.09326   0.14965   0.38755   0.00000  Uiso   1.00
H195   H     0.41956   0.25931   0.61484   0.00000  Uiso   1.00
H196   H     0.41029   0.28562   0.57190   0.00000  Uiso   1.00
H197   H     0.39683   0.34016   0.61275   0.00000  Uiso   1.00
H198   H     0.36863   0.30172   0.62603   0.00000  Uiso   1.00
H199   H     0.40722   0.31440   0.65602   0.00000  Uiso   1.00
H200   H     0.34466   0.01296   0.41529   0.00000  Uiso   1.00
H201   H     0.31853   0.02418   0.37229   0.00000  Uiso   1.00
H202   H     0.35213   0.47752   0.33447   0.00000  Uiso   1.00
H203   H     0.15894   0.06653   0.44850   0.00000  Uiso   1.00
H204   H     0.38255   0.01079   0.35610   0.00000  Uiso   1.00
H205   H     0.37855   0.46594   0.37734   0.00000  Uiso   1.00
H206   H     0.18360   0.47399   0.63132   0.00000  Uiso   1.00
H207   H     0.15672   0.48086   0.58802   0.00000  Uiso   1.00
H208   H     0.12002   0.02802   0.62366   0.00000  Uiso   1.00
H209   H     0.11875   0.48398   0.64705   0.00000  Uiso   1.00
H210   H     0.14723   0.01989   0.66680   0.00000  Uiso   1.00
H211   H     0.27601   0.06640   0.86874   0.00000  Uiso   1.00
H212   H     0.26907   0.09331   0.91200   0.00000  Uiso   1.00
H213   H     0.22191   0.12993   0.87626   0.00000  Uiso   1.00
H214   H     0.14915   0.02104   0.44041   0.00000  Uiso   1.00
H215   H     0.26599   0.13124   0.85295   0.00000  Uiso   1.00
H216   H     0.23015   0.10271   0.83315   0.00000  Uiso   1.00
H217   H     0.23706   0.40534   0.08469   0.00000  Uiso   1.00
H218   H     0.22583   0.43146   0.12770   0.00000  Uiso   1.00
H219   H     0.27250   0.39786   0.16552   0.00000  Uiso   1.00
H220   H     0.23924   0.36744   0.14387   0.00000  Uiso   1.00
H221   H     0.28409   0.37146   0.12265   0.00000  Uiso   1.00
H222   H     0.49076   0.33045   0.88516   0.00000  Uiso   1.00
H223   H     0.46445   0.33974   0.92810   0.00000  Uiso   1.00
H224   H     0.40992   0.35324   0.88725   0.00000  Uiso   1.00
H225   H     0.34778   0.43130   0.53367   0.00000  Uiso   1.00
H226   H     0.44839   0.38141   0.87398   0.00000  Uiso   1.00
H227   H     0.43568   0.34284   0.84398   0.00000  Uiso   1.00
H228   H     0.04344   0.16278   0.07358   0.00000  Uiso   1.00
H229   H     0.01745   0.16969   0.11727   0.00000  Uiso   1.00
H230   H     0.07493   0.16466   0.15661   0.00000  Uiso   1.00
H231   H     0.06599   0.12432   0.12772   0.00000  Uiso   1.00
H232   H     0.10029   0.15667   0.11245   0.00000  Uiso   1.00
H233   H     0.33721   0.45655   0.92642   0.00000  Uiso   1.00
H234   H     0.33031   0.48255   0.88273   0.00000  Uiso   1.00
H235   H     0.33533   0.42506   0.84339   0.00000  Uiso   1.00
H236   H     0.36356   0.47505   0.53234   0.00000  Uiso   1.00
H237   H     0.37568   0.43401   0.87227   0.00000  Uiso   1.00
H238   H     0.34333   0.39970   0.88755   0.00000  Uiso   1.00
H239   H     0.16955   0.00924   0.11484   0.00000  Uiso   1.00
H240   H     0.16026   0.03554   0.07190   0.00000  Uiso   1.00
H241   H     0.14676   0.09007   0.11275   0.00000  Uiso   1.00
H242   H     0.11858   0.05161   0.12601   0.00000  Uiso   1.00
H243   H     0.15715   0.06431   0.15602   0.00000  Uiso   1.00
H244   H     0.09465   0.26294   0.91531   0.00000  Uiso   1.00
H245   H     0.06854   0.27416   0.87229   0.00000  Uiso   1.00
H246   H     0.10215   0.22749   0.83449   0.00000  Uiso   1.00
H247   H     0.31874   0.40224   0.96634   0.00000  Uiso   1.00
H248   H     0.13256   0.26076   0.85613   0.00000  Uiso   1.00
H249   H     0.12855   0.21591   0.87737   0.00000  Uiso   1.00
H250   H     0.43360   0.22400   0.13128   0.00000  Uiso   1.00
H251   H     0.40671   0.23091   0.08800   0.00000  Uiso   1.00
H252   H     0.37005   0.27807   0.12369   0.00000  Uiso   1.00
H253   H     0.36875   0.23400   0.14704   0.00000  Uiso   1.00
H254   H     0.39726   0.26987   0.16682   0.00000  Uiso   1.00
H255   H     0.27500   0.38645   0.96766   0.00000  Uiso   1.00
H256   H     0.18340   0.09101   0.05149   0.00000  Uiso   1.00
H257   H     0.02493   0.13644   0.46766   0.00000  Uiso   1.00
H258   H     0.22889   0.10084   0.05958   0.00000  Uiso   1.00
H259   H     0.11284   0.21331   0.96624   0.00000  Uiso   1.00
H260   H     0.08897   0.17334   0.96769   0.00000  Uiso   1.00
H261   H     0.39382   0.28289   0.05278   0.00000  Uiso   1.00
H262   H     0.42165   0.32090   0.05725   0.00000  Uiso   1.00
H263   H     0.21710   0.10617   0.94721   0.00000  Uiso   1.00
H264   H     0.17909   0.07834   0.94275   0.00000  Uiso   1.00
H265   H     0.28669   0.38715   0.03376   0.00000  Uiso   1.00
H266   H     0.32666   0.41103   0.03230   0.00000  Uiso   1.00
H267   H     0.40898   0.31659   0.94851   0.00000  Uiso   1.00
H268   H     0.43349   0.34107   0.55150   0.00000  Uiso   1.00
H269   H     0.39916   0.27110   0.94042   0.00000  Uiso   1.00
H270   H     0.09775   0.18125   0.03366   0.00000  Uiso   1.00
H271   H     0.11355   0.22499   0.03234   0.00000  Uiso   1.00
H272   H     0.16497   0.37980   0.16343   0.00000  Uiso   1.00
H273   H     0.13219   0.41257   0.16178   0.00000  Uiso   1.00
H274   H     0.33535   0.12003   0.83672   0.00000  Uiso   1.00
H275   H     0.36804   0.08718   0.83807   0.00000  Uiso   1.00
H276   H     0.04623   0.09150   0.21528   0.00000  Uiso   1.00
H277   H     0.04311   0.08798   0.26445   0.00000  Uiso   1.00
H278   H     0.45372   0.40847   0.78485   0.00000  Uiso   1.00
H279   H     0.47898   0.35086   0.55959   0.00000  Uiso   1.00
H280   H     0.45692   0.41204   0.73569   0.00000  Uiso   1.00
H281   H     0.33458   0.11969   0.16335   0.00000  Uiso   1.00
H282   H     0.36709   0.08666   0.16191   0.00000  Uiso   1.00
H283   H     0.16544   0.38025   0.83667   0.00000  Uiso   1.00
H284   H     0.13294   0.41329   0.83810   0.00000  Uiso   1.00
H285   H     0.38622   0.34141   0.16081   0.00000  Uiso   1.00
H286   H     0.41927   0.37386   0.16503   0.00000  Uiso   1.00
H287   H     0.11325   0.15759   0.83958   0.00000  Uiso   1.00
H288   H     0.08012   0.12541   0.83440   0.00000  Uiso   1.00
H289   H     0.15859   0.11378   0.83919   0.00000  Uiso   1.00
H290   H     0.36286   0.46336   0.46624   0.00000  Uiso   1.00
H291   H     0.12614   0.08073   0.83497   0.00000  Uiso   1.00
H292   H     0.34241   0.38675   0.16042   0.00000  Uiso   1.00
H293   H     0.37459   0.41989   0.16560   0.00000  Uiso   1.00
H294   H     0.12020   0.33503   0.83657   0.00000  Uiso   1.00
H295   H     0.08743   0.36781   0.83822   0.00000  Uiso   1.00
H296   H     0.37996   0.16465   0.16328   0.00000  Uiso   1.00
H297   H     0.41282   0.13196   0.16193   0.00000  Uiso   1.00
H298   H     0.40850   0.45376   0.78475   0.00000  Uiso   1.00
H299   H     0.41202   0.45689   0.73558   0.00000  Uiso   1.00
H300   H     0.09152   0.04627   0.21518   0.00000  Uiso   1.00
H301   H     0.33900   0.42337   0.46770   0.00000  Uiso   1.00
H302   H     0.08796   0.04309   0.26435   0.00000  Uiso   1.00
H303   H     0.38031   0.16541   0.83665   0.00000  Uiso   1.00
H304   H     0.41334   0.13290   0.83809   0.00000  Uiso   1.00
H305   H     0.11975   0.33456   0.16333   0.00000  Uiso   1.00
H306   H     0.08671   0.36706   0.16190   0.00000  Uiso   1.00
H307   H     0.41497   0.12980   0.66343   0.00000  Uiso   1.00
H308   H     0.38219   0.16257   0.66178   0.00000  Uiso   1.00
H309   H     0.08535   0.37003   0.33672   0.00000  Uiso   1.00
H310   H     0.11804   0.33718   0.33807   0.00000  Uiso   1.00
H311   H     0.29624   0.34150   0.71525   0.00000  Uiso   1.00
H312   H     0.14380   0.03281   0.55278   0.00000  Uiso   1.00
H313   H     0.29311   0.33798   0.76442   0.00000  Uiso   1.00
H314   H     0.20373   0.15847   0.28482   0.00000  Uiso   1.00
H315   H     0.20691   0.16204   0.23566   0.00000  Uiso   1.00
H316   H     0.08459   0.36969   0.66335   0.00000  Uiso   1.00
H317   H     0.11710   0.33666   0.66191   0.00000  Uiso   1.00
H318   H     0.41545   0.13025   0.33666   0.00000  Uiso   1.00
H319   H     0.38295   0.16329   0.33810   0.00000  Uiso   1.00
H320   H     0.13621   0.09141   0.66081   0.00000  Uiso   1.00
H321   H     0.16926   0.12385   0.66502   0.00000  Uiso   1.00
H322   H     0.36325   0.40760   0.33958   0.00000  Uiso   1.00
H323   H     0.17159   0.07086   0.55724   0.00000  Uiso   1.00
H324   H     0.33012   0.37541   0.33440   0.00000  Uiso   1.00
H325   H     0.40859   0.36379   0.33920   0.00000  Uiso   1.00
H326   H     0.37614   0.33073   0.33498   0.00000  Uiso   1.00
H327   H     0.09240   0.13674   0.66042   0.00000  Uiso   1.00
H328   H     0.12458   0.16988   0.66559   0.00000  Uiso   1.00
H329   H     0.37021   0.08503   0.33657   0.00000  Uiso   1.00
H330   H     0.33744   0.11780   0.33822   0.00000  Uiso   1.00
H331   H     0.12997   0.41464   0.66328   0.00000  Uiso   1.00
H332   H     0.16282   0.38196   0.66193   0.00000  Uiso   1.00
H333   H     0.15851   0.20377   0.28472   0.00000  Uiso   1.00
H334   H     0.46723   0.35621   0.44722   0.00000  Uiso   1.00
H335   H     0.16202   0.20689   0.23555   0.00000  Uiso   1.00
H336   H     0.34153   0.29628   0.71515   0.00000  Uiso   1.00
H337   H     0.33796   0.29308   0.76431   0.00000  Uiso   1.00
H338   H     0.13031   0.41541   0.33665   0.00000  Uiso   1.00
H339   H     0.16334   0.38290   0.33809   0.00000  Uiso   1.00
H340   H     0.36975   0.08455   0.66333   0.00000  Uiso   1.00
H341   H     0.33671   0.11706   0.66190   0.00000  Uiso   1.00
H342   H     0.02599   0.31640   0.36863   0.00000  Uiso   1.00
H343   H     0.01918   0.34324   0.41197   0.00000  Uiso   1.00
H344   H     0.47200   0.38001   0.37643   0.00000  Uiso   1.00
N345   N     0.04159   0.15819   0.45929   0.00000  Uiso   1.00
N346   N     0.20914   0.09339   0.03900   0.00000  Uiso   1.00
N347   N     0.08805   0.20069   0.95927   0.00000  Uiso   1.00
N348   N     0.41116   0.30093   0.03850   0.00000  Uiso   1.00
N349   N     0.19906   0.08883   0.96150   0.00000  Uiso   1.00
N350   N     0.29931   0.41195   0.04072   0.00000  Uiso   1.00
N351   N     0.40661   0.29085   0.96100   0.00000  Uiso   1.00
N352   N     0.09178   0.20835   0.04071   0.00000  Uiso   1.00
N353   N     0.15331   0.40162   0.17854   0.00000  Uiso   1.00
N354   N     0.34687   0.09823   0.82146   0.00000  Uiso   1.00
N355   N     0.05016   0.10529   0.24161   0.00000  Uiso   1.00
N356   N     0.45923   0.34343   0.53901   0.00000  Uiso   1.00
N357   N     0.44983   0.39471   0.75849   0.00000  Uiso   1.00
N358   N     0.34612   0.09792   0.17856   0.00000  Uiso   1.00
N359   N     0.15392   0.40203   0.82146   0.00000  Uiso   1.00
N360   N     0.40689   0.35170   0.17878   0.00000  Uiso   1.00
N361   N     0.09271   0.14773   0.82118   0.00000  Uiso   1.00
N362   N     0.14830   0.09311   0.82122   0.00000  Uiso   1.00
N363   N     0.35227   0.40729   0.17882   0.00000  Uiso   1.00
N364   N     0.09838   0.34669   0.82146   0.00000  Uiso   1.00
N365   N     0.40177   0.15313   0.17854   0.00000  Uiso   1.00
N366   N     0.39471   0.44984   0.75842   0.00000  Uiso   1.00
N367   N     0.33807   0.45073   0.45928   0.00000  Uiso   1.00
N368   N     0.10529   0.05017   0.24153   0.00000  Uiso   1.00
N369   N     0.40208   0.15388   0.82145   0.00000  Uiso   1.00
N370   N     0.09797   0.34608   0.17854   0.00000  Uiso   1.00
N371   N     0.40331   0.15162   0.67854   0.00000  Uiso   1.00
N372   N     0.09687   0.34823   0.32146   0.00000  Uiso   1.00
N373   N     0.30016   0.35529   0.74159   0.00000  Uiso   1.00
N374   N     0.19983   0.14471   0.25847   0.00000  Uiso   1.00
N375   N     0.09612   0.34791   0.67856   0.00000  Uiso   1.00
N376   N     0.40392   0.15203   0.32146   0.00000  Uiso   1.00
N377   N     0.15689   0.10170   0.67878   0.00000  Uiso   1.00
N378   N     0.16112   0.05087   0.53850   0.00000  Uiso   1.00
N379   N     0.34272   0.39773   0.32118   0.00000  Uiso   1.00
N380   N     0.39830   0.34311   0.32123   0.00000  Uiso   1.00
N381   N     0.10227   0.15728   0.67882   0.00000  Uiso   1.00
N382   N     0.34838   0.09668   0.32146   0.00000  Uiso   1.00
N383   N     0.15177   0.40313   0.67854   0.00000  Uiso   1.00
N384   N     0.14471   0.19984   0.25839   0.00000  Uiso   1.00
N385   N     0.35529   0.30017   0.74151   0.00000  Uiso   1.00
N386   N     0.15208   0.40388   0.32144   0.00000  Uiso   1.00
N387   N     0.34797   0.09608   0.67854   0.00000  Uiso   1.00
N388   N     0.44916   0.33890   0.46151   0.00000  Uiso   1.00
N389   N     0.04925   0.16192   0.54072   0.00000  Uiso   1.00
N390   N     0.15659   0.04079   0.46099   0.00000  Uiso   1.00
N391   N     0.34180   0.45840   0.54071   0.00000  Uiso   1.00
N392   N     0.29164   0.40822   0.95929   0.00000  Uiso   1.00
O393   O     0.25000  -0.00000   0.25000   0.00000  Uiso   1.00
O394   O     0.25000   0.46964   0.66245   0.00000  Uiso   1.00
O395   O     0.46963   0.25000   0.33755   0.00000  Uiso   1.00
O396   O     0.03036   0.25000   0.66245   0.00000  Uiso   1.00
O397   O    -0.00000   0.21963   0.83755   0.00000  Uiso   1.00
O398   O    -0.00000   0.28036   0.16245   0.00000  Uiso   1.00
O399   O     0.28036  -0.00000   0.83755   0.00000  Uiso   1.00
O400   O     0.21963  -0.00000   0.16245   0.00000  Uiso   1.00
O401   O    -0.00000   0.28036   0.83755   0.00000  Uiso   1.00
O402   O    -0.00000   0.21963   0.16245   0.00000  Uiso   1.00
O403   O     0.21963  -0.00000   0.83755   0.00000  Uiso   1.00
O404   O     0.25000  -0.00000   0.75000   0.00000  Uiso   1.00
O405   O     0.28036  -0.00000   0.16245   0.00000  Uiso   1.00
O406   O     0.20724   0.07307   0.27302   0.00000  Uiso   1.00
O407   O     0.29275   0.42692   0.72698   0.00000  Uiso   1.00
O408   O     0.42692   0.20724   0.27302   0.00000  Uiso   1.00
O409   O     0.07307   0.29276   0.72698   0.00000  Uiso   1.00
O410   O     0.29275   0.42692   0.27302   0.00000  Uiso   1.00
O411   O     0.20724   0.07307   0.72698   0.00000  Uiso   1.00
O412   O     0.07307   0.29276   0.27302   0.00000  Uiso   1.00
O413   O     0.42692   0.20724   0.72698   0.00000  Uiso   1.00
O414   O     0.20724   0.42693   0.72698   0.00000  Uiso   1.00
O415   O     0.00000   0.25000   0.25000   0.00000  Uiso   1.00
O416   O     0.29275   0.07307   0.27302   0.00000  Uiso   1.00
O417   O     0.42692   0.29275   0.72698   0.00000  Uiso   1.00
O418   O     0.07307   0.20725   0.27302   0.00000  Uiso   1.00
O419   O     0.29275   0.07307   0.72698   0.00000  Uiso   1.00
O420   O     0.20724   0.42693   0.27302   0.00000  Uiso   1.00
O421   O     0.07307   0.20725   0.72698   0.00000  Uiso   1.00
O422   O     0.42692   0.29275   0.27302   0.00000  Uiso   1.00
O423   O     0.45724   0.32307   0.77302   0.00000  Uiso   1.00
O424   O     0.04275   0.17693   0.22698   0.00000  Uiso   1.00
O425   O     0.17692   0.45725   0.77302   0.00000  Uiso   1.00
O426   O    -0.00000   0.25000   0.75000   0.00000  Uiso   1.00
O427   O     0.32307   0.04275   0.22698   0.00000  Uiso   1.00
O428   O     0.04275   0.17693   0.77302   0.00000  Uiso   1.00
O429   O     0.45724   0.32307   0.22698   0.00000  Uiso   1.00
O430   O     0.32307   0.04275   0.77302   0.00000  Uiso   1.00
O431   O     0.17692   0.45725   0.22698   0.00000  Uiso   1.00
O432   O     0.45724   0.17692   0.22698   0.00000  Uiso   1.00
O433   O     0.04275   0.32308   0.77302   0.00000  Uiso   1.00
O434   O     0.17692   0.04275   0.22698   0.00000  Uiso   1.00
O435   O     0.32307   0.45724   0.77302   0.00000  Uiso   1.00
O436   O     0.04275   0.32308   0.22698   0.00000  Uiso   1.00
O437   O     0.25000   0.46964   0.33755   0.00000  Uiso   1.00
O438   O     0.45724   0.17692   0.77302   0.00000  Uiso   1.00
O439   O     0.32307   0.45724   0.22698   0.00000  Uiso   1.00
O440   O     0.17692   0.04275   0.77302   0.00000  Uiso   1.00
O441   O     0.47501   0.31013   0.39581   0.00000  Uiso   1.00
O442   O     0.02758   0.19146   0.60384   0.00000  Uiso   1.00
O443   O     0.19934   0.04246   0.39732   0.00000  Uiso   1.00
O444   O     0.30360   0.46204   0.60315   0.00000  Uiso   1.00
O445   O     0.03796   0.19639   0.39685   0.00000  Uiso   1.00
O446   O     0.45755   0.30067   0.60269   0.00000  Uiso   1.00
O447   O     0.30854   0.47242   0.39616   0.00000  Uiso   1.00
O448   O     0.25000   0.03036   0.66245   0.00000  Uiso   1.00
O449   O     0.18988   0.02499   0.60419   0.00000  Uiso   1.00
O450   O     0.22499   0.06011   0.89581   0.00000  Uiso   1.00
O451   O     0.27760   0.44147   0.10384   0.00000  Uiso   1.00
O452   O     0.44937   0.29250   0.89732   0.00000  Uiso   1.00
O453   O     0.05359   0.21201   0.10315   0.00000  Uiso   1.00
O454   O     0.28799   0.44641   0.89685   0.00000  Uiso   1.00
O455   O     0.20750   0.05063   0.10268   0.00000  Uiso   1.00
O456   O     0.05853   0.22240   0.89616   0.00000  Uiso   1.00
O457   O     0.43989   0.27501   0.10419   0.00000  Uiso   1.00
O458   O     0.03036   0.25000   0.33755   0.00000  Uiso   1.00
O459   O     0.46963   0.25000   0.66245   0.00000  Uiso   1.00
O460   O     0.25000   0.03036   0.33755   0.00000  Uiso   1.00
Zn461  Zn    0.20659  -0.00000   0.21735   0.00000  Uiso   1.00
Zn462  Zn    0.04340   0.25000   0.28265   0.00000  Uiso   1.00
Zn463  Zn    0.25000   0.45660   0.71735   0.00000  Uiso   1.00
Zn464  Zn    0.25000   0.04340   0.28265   0.00000  Uiso   1.00
Zn465  Zn    0.04340   0.25000   0.71735   0.00000  Uiso   1.00
Zn466  Zn    0.45659   0.25000   0.28265   0.00000  Uiso   1.00
Zn467  Zn    0.25000   0.04340   0.71735   0.00000  Uiso   1.00
Zn468  Zn    0.25000   0.45660   0.28265   0.00000  Uiso   1.00
Zn469  Zn    0.29340  -0.00000   0.78265   0.00000  Uiso   1.00
Zn470  Zn   -0.00000   0.20659   0.21735   0.00000  Uiso   1.00
Zn471  Zn   -0.00000   0.29340   0.78265   0.00000  Uiso   1.00
Zn472  Zn    0.29340  -0.00000   0.21735   0.00000  Uiso   1.00
Zn473  Zn    0.20659  -0.00000   0.78265   0.00000  Uiso   1.00
Zn474  Zn   -0.00000   0.29340   0.21735   0.00000  Uiso   1.00
Zn475  Zn   -0.00000   0.20659   0.78265   0.00000  Uiso   1.00
Zn476  Zn    0.45659   0.25000   0.71735   0.00000  Uiso   1.00
C477   C     0.98699   0.28068   0.41754   0.00000  Uiso   1.00
C478   C     0.76431   0.47047   0.08226   0.00000  Uiso   1.00
C479   C     0.71935   0.01480   0.54136   0.00000  Uiso   1.00
C480   C     0.98521   0.28066   0.45864   0.00000  Uiso   1.00
C481   C     0.51525   0.22029   0.54117   0.00000  Uiso   1.00
C482   C     0.72081   0.01748   0.45898   0.00000  Uiso   1.00
C483   C     0.77887   0.48293   0.54105   0.00000  Uiso   1.00
C484   C     0.76708   0.47114   0.95895   0.00000  Uiso   1.00
C485   C     0.73250   0.02918   0.04102   0.00000  Uiso   1.00
C486   C     0.52970   0.23473   0.95883   0.00000  Uiso   1.00
C487   C     0.96936   0.26482   0.04136   0.00000  Uiso   1.00
C488   C     0.73518   0.03064   0.95864   0.00000  Uiso   1.00
C489   C     0.97312   0.27059   0.91817   0.00000  Uiso   1.00
C490   C     0.76527   0.47030   0.04117   0.00000  Uiso   1.00
C491   C     0.97082   0.26750   0.95898   0.00000  Uiso   1.00
C492   C     0.52886   0.23292   0.04105   0.00000  Uiso   1.00
C493   C     0.59820   0.34797   0.25001   0.00000  Uiso   1.00
C494   C     0.90183   0.15201   0.74998   0.00000  Uiso   1.00
C495   C     0.65189   0.09811   0.25000   0.00000  Uiso   1.00
C496   C     0.84811   0.40189   0.75000   0.00000  Uiso   1.00
C497   C     0.90203   0.15180   0.24999   0.00000  Uiso   1.00
C498   C     0.59799   0.34817   0.75002   0.00000  Uiso   1.00
C499   C     0.84811   0.40189   0.25000   0.00000  Uiso   1.00
C500   C     0.52736   0.23067   0.08196   0.00000  Uiso   1.00
C501   C     0.65192   0.09807   0.75000   0.00000  Uiso   1.00
C502   C     0.59811   0.15189   0.75000   0.00000  Uiso   1.00
C503   C     0.90193   0.34808   0.25000   0.00000  Uiso   1.00
C504   C     0.65203   0.40180   0.74999   0.00000  Uiso   1.00
C505   C     0.84799   0.09817   0.25002   0.00000  Uiso   1.00
C506   C     0.90189   0.34811   0.75000   0.00000  Uiso   1.00
C507   C     0.59811   0.15189   0.25000   0.00000  Uiso   1.00
C508   C     0.84820   0.09797   0.75001   0.00000  Uiso   1.00
C509   C     0.65183   0.40201   0.24998   0.00000  Uiso   1.00
C510   C     0.50069   0.25069   0.47937   0.00000  Uiso   1.00
C511   C     0.76933   0.47264   0.91804   0.00000  Uiso   1.00
C512   C     0.99944   0.25003   0.52050   0.00000  Uiso   1.00
C513   C     0.74997   0.00056   0.47950   0.00000  Uiso   1.00
C514   C     0.74931   0.49931   0.52063   0.00000  Uiso   1.00
C515   C     0.75069   0.00069   0.97937   0.00000  Uiso   1.00
C516   C     0.74944   0.00003   0.02050   0.00000  Uiso   1.00
C517   C     0.99997   0.25056   0.97950   0.00000  Uiso   1.00
C518   C     0.99931   0.24931   0.02063   0.00000  Uiso   1.00
C519   C     0.50545   0.33197   0.38559   0.00000  Uiso   1.00
C520   C     0.99252   0.36352   0.36051   0.00000  Uiso   1.00
C521   C     0.99830   0.16741   0.61199   0.00000  Uiso   1.00
C522   C     0.72941   0.02688   0.08183   0.00000  Uiso   1.00
C523   C     0.51195   0.13660   0.63764   0.00000  Uiso   1.00
C524   C     0.71290   0.07873   0.39792   0.00000  Uiso   1.00
C525   C     0.68756   0.10302   0.37430   0.00000  Uiso   1.00
C526   C     0.79448   0.42444   0.60350   0.00000  Uiso   1.00
C527   C     0.82328   0.40378   0.62653   0.00000  Uiso   1.00
C528   C     0.57555   0.20551   0.39650   0.00000  Uiso   1.00
C529   C     0.59621   0.17671   0.37346   0.00000  Uiso   1.00
C530   C     0.92128   0.28711   0.60208   0.00000  Uiso   1.00
C531   C     0.89699   0.31245   0.62570   0.00000  Uiso   1.00
C532   C     0.83259   0.00170   0.38801   0.00000  Uiso   1.00
C533   C     0.52953   0.23569   0.91774   0.00000  Uiso   1.00
C534   C     0.86339   0.48805   0.36236   0.00000  Uiso   1.00
C535   C     0.66803   0.49456   0.61440   0.00000  Uiso   1.00
C536   C     0.63651   0.00748   0.63954   0.00000  Uiso   1.00
C537   C     0.75541   0.08197   0.88562   0.00000  Uiso   1.00
C538   C     0.74250   0.11345   0.86043   0.00000  Uiso   1.00
C539   C     0.74832   0.41741   0.11198   0.00000  Uiso   1.00
C540   C     0.76197   0.38660   0.13762   0.00000  Uiso   1.00
C541   C     0.96295   0.32875   0.89792   0.00000  Uiso   1.00
C542   C     0.93763   0.35306   0.87431   0.00000  Uiso   1.00
C543   C     0.54445   0.17442   0.10349   0.00000  Uiso   1.00
C544   C     0.96933   0.26303   0.08246   0.00000  Uiso   1.00
C545   C     0.57323   0.15374   0.12653   0.00000  Uiso   1.00
C546   C     0.82558   0.45555   0.89651   0.00000  Uiso   1.00
C547   C     0.84626   0.42677   0.87346   0.00000  Uiso   1.00
C548   C     0.67124   0.03704   0.10208   0.00000  Uiso   1.00
C549   C     0.64694   0.06236   0.12569   0.00000  Uiso   1.00
C550   C     0.58259   0.25168   0.88802   0.00000  Uiso   1.00
C551   C     0.61340   0.23802   0.86239   0.00000  Uiso   1.00
C552   C     0.91803   0.24458   0.11438   0.00000  Uiso   1.00
C553   C     0.88653   0.25750   0.13955   0.00000  Uiso   1.00
C554   C     0.50137   0.25046   0.39800   0.00000  Uiso   1.00
C555   C     0.99868   0.24990   0.60192   0.00000  Uiso   1.00
C556   C     0.75010   0.00132   0.39808   0.00000  Uiso   1.00
C557   C     0.51430   0.22046   0.58226   0.00000  Uiso   1.00
C558   C     0.74955   0.49864   0.60200   0.00000  Uiso   1.00
C559   C     0.75136   0.00045   0.89800   0.00000  Uiso   1.00
C560   C     0.74868   0.49990   0.10192   0.00000  Uiso   1.00
C561   C     0.50010   0.25132   0.89808   0.00000  Uiso   1.00
C562   C     0.99955   0.24863   0.10200   0.00000  Uiso   1.00
C563   C     0.53039   0.19060   0.47966   0.00000  Uiso   1.00
C564   C     0.96938   0.30984   0.52022   0.00000  Uiso   1.00
C565   C     0.80892   0.46868   0.47956   0.00000  Uiso   1.00
C566   C     0.69043   0.03137   0.52023   0.00000  Uiso   1.00
C567   C     0.96864   0.30958   0.47977   0.00000  Uiso   1.00
C568   C     0.72311   0.02057   0.41817   0.00000  Uiso   1.00
C569   C     0.53131   0.19108   0.52044   0.00000  Uiso   1.00
C570   C     0.69017   0.03063   0.47978   0.00000  Uiso   1.00
C571   C     0.80939   0.46960   0.52034   0.00000  Uiso   1.00
C572   C     0.78042   0.44062   0.97966   0.00000  Uiso   1.00
C573   C     0.71932   0.05981   0.02022   0.00000  Uiso   1.00
C574   C     0.55890   0.21865   0.97956   0.00000  Uiso   1.00
C575   C     0.94046   0.28141   0.02023   0.00000  Uiso   1.00
C576   C     0.71858   0.05954   0.97977   0.00000  Uiso   1.00
C577   C     0.78135   0.44110   0.02044   0.00000  Uiso   1.00
C578   C     0.94019   0.28067   0.97978   0.00000  Uiso   1.00
C579   C     0.77737   0.48068   0.58196   0.00000  Uiso   1.00
C580   C     0.55938   0.21958   0.02034   0.00000  Uiso   1.00
C581   C     0.74940   0.00025   0.35578   0.00000  Uiso   1.00
C582   C     0.75055   0.49976   0.64425   0.00000  Uiso   1.00
C583   C     0.50024   0.24945   0.35575   0.00000  Uiso   1.00
C584   C     0.99975   0.25060   0.64422   0.00000  Uiso   1.00
C585   C     0.99940   0.25025   0.85578   0.00000  Uiso   1.00
C586   C     0.50055   0.24976   0.14425   0.00000  Uiso   1.00
C587   C     0.75024   0.49945   0.85575   0.00000  Uiso   1.00
C588   C     0.74975   0.00060   0.14422   0.00000  Uiso   1.00
C589   C     0.67996   0.07004   0.25000   0.00000  Uiso   1.00
C590   C     0.51931   0.22263   0.41804   0.00000  Uiso   1.00
C591   C     0.82004   0.42996   0.75000   0.00000  Uiso   1.00
C592   C     0.93005   0.17995   0.24999   0.00000  Uiso   1.00
C593   C     0.56996   0.32004   0.75001   0.00000  Uiso   1.00
C594   C     0.82001   0.42999   0.25000   0.00000  Uiso   1.00
C595   C     0.68001   0.06999   0.75000   0.00000  Uiso   1.00
C596   C     0.57005   0.31995   0.25001   0.00000  Uiso   1.00
C597   C     0.92996   0.18004   0.74999   0.00000  Uiso   1.00
C598   C     0.68005   0.42995   0.74999   0.00000  Uiso   1.00
C599   C     0.81996   0.07004   0.25001   0.00000  Uiso   1.00
C600   C     0.92996   0.32004   0.75000   0.00000  Uiso   1.00
C601   C     0.97944   0.27690   0.58183   0.00000  Uiso   1.00
C602   C     0.57004   0.17996   0.25000   0.00000  Uiso   1.00
C603   C     0.82005   0.06995   0.75001   0.00000  Uiso   1.00
C604   C     0.67996   0.43004   0.24999   0.00000  Uiso   1.00
C605   C     0.57001   0.17999   0.75000   0.00000  Uiso   1.00
C606   C     0.93001   0.31999   0.25000   0.00000  Uiso   1.00
C607   C     0.63846   0.38840   0.21441   0.00000  Uiso   1.00
C608   C     0.86162   0.11154   0.78558   0.00000  Uiso   1.00
C609   C     0.58802   0.11505   0.24527   0.00000  Uiso   1.00
C610   C     0.91197   0.38495   0.75476   0.00000  Uiso   1.00
C611   C     0.86124   0.11139   0.21443   0.00000  Uiso   1.00
C612   C     0.77954   0.48570   0.41774   0.00000  Uiso   1.00
C613   C     0.63879   0.38856   0.78558   0.00000  Uiso   1.00
C614   C     0.89110   0.36400   0.21465   0.00000  Uiso   1.00
C615   C     0.60886   0.13584   0.78534   0.00000  Uiso   1.00
C616   C     0.63600   0.10891   0.78535   0.00000  Uiso   1.00
C617   C     0.86416   0.39114   0.21466   0.00000  Uiso   1.00
C618   C     0.61160   0.36154   0.78559   0.00000  Uiso   1.00
C619   C     0.88845   0.13838   0.21442   0.00000  Uiso   1.00
C620   C     0.88495   0.41198   0.75475   0.00000  Uiso   1.00
C621   C     0.61505   0.08802   0.24525   0.00000  Uiso   1.00
C622   C     0.88861   0.13876   0.78557   0.00000  Uiso   1.00
C623   C     0.71932   0.01302   0.58246   0.00000  Uiso   1.00
C624   C     0.61144   0.36121   0.21442   0.00000  Uiso   1.00
C625   C     0.88846   0.13839   0.71441   0.00000  Uiso   1.00
C626   C     0.61162   0.36155   0.28558   0.00000  Uiso   1.00
C627   C     0.83802   0.36505   0.74526   0.00000  Uiso   1.00
C628   C     0.66198   0.13495   0.25475   0.00000  Uiso   1.00
C629   C     0.61124   0.36139   0.71443   0.00000  Uiso   1.00
C630   C     0.88880   0.13856   0.28558   0.00000  Uiso   1.00
C631   C     0.64109   0.11400   0.71465   0.00000  Uiso   1.00
C632   C     0.85886   0.38584   0.28534   0.00000  Uiso   1.00
C633   C     0.88600   0.35891   0.28535   0.00000  Uiso   1.00
C634   C     0.73697   0.03067   0.91754   0.00000  Uiso   1.00
C635   C     0.61416   0.14114   0.71466   0.00000  Uiso   1.00
C636   C     0.86161   0.11154   0.28559   0.00000  Uiso   1.00
C637   C     0.63846   0.38838   0.71442   0.00000  Uiso   1.00
C638   C     0.63495   0.16198   0.25473   0.00000  Uiso   1.00
C639   C     0.86505   0.33802   0.74524   0.00000  Uiso   1.00
C640   C     0.63861   0.38876   0.28557   0.00000  Uiso   1.00
C641   C     0.86144   0.11120   0.71442   0.00000  Uiso   1.00
C642   C     0.51706   0.22113   0.45895   0.00000  Uiso   1.00
C643   C     0.98252   0.27920   0.54102   0.00000  Uiso   1.00
C644   C     0.77971   0.48474   0.45883   0.00000  Uiso   1.00
H645   H     0.56868   0.15221   0.46633   0.00000  Uiso   1.00
H646   H     0.92917   0.32844   0.44276   0.00000  Uiso   1.00
H647   H     0.51603   0.38128   0.35298   0.00000  Uiso   1.00
H648   H     0.98007   0.35284   0.33325   0.00000  Uiso   1.00
H649   H     0.98703   0.15534   0.58471   0.00000  Uiso   1.00
H650   H     0.97582   0.18147   0.62772   0.00000  Uiso   1.00
H651   H     0.52248   0.14786   0.66553   0.00000  Uiso   1.00
H652   H     0.98921   0.11745   0.64390   0.00000  Uiso   1.00
H653   H     0.53406   0.12145   0.62266   0.00000  Uiso   1.00
H654   H     0.74071   0.08045   0.38516   0.00000  Uiso   1.00
H655   H     0.71439   0.08971   0.42810   0.00000  Uiso   1.00
H656   H     0.65985   0.10318   0.38725   0.00000  Uiso   1.00
H657   H     0.53662   0.13713   0.53376   0.00000  Uiso   1.00
H658   H     0.69830   0.13138   0.37398   0.00000  Uiso   1.00
H659   H     0.68562   0.09280   0.34398   0.00000  Uiso   1.00
H660   H     0.79348   0.41280   0.57358   0.00000  Uiso   1.00
H661   H     0.76749   0.41970   0.61727   0.00000  Uiso   1.00
H662   H     0.82497   0.41470   0.65661   0.00000  Uiso   1.00
H663   H     0.81605   0.37435   0.62773   0.00000  Uiso   1.00
H664   H     0.85033   0.40672   0.61245   0.00000  Uiso   1.00
H665   H     0.58719   0.20650   0.42642   0.00000  Uiso   1.00
H666   H     0.58030   0.23250   0.38273   0.00000  Uiso   1.00
H667   H     0.58528   0.17502   0.34338   0.00000  Uiso   1.00
H668   H     0.57661   0.16099   0.53230   0.00000  Uiso   1.00
H669   H     0.62564   0.18394   0.37227   0.00000  Uiso   1.00
H670   H     0.59326   0.14965   0.38755   0.00000  Uiso   1.00
H671   H     0.91956   0.25931   0.61484   0.00000  Uiso   1.00
H672   H     0.91029   0.28562   0.57190   0.00000  Uiso   1.00
H673   H     0.89683   0.34016   0.61275   0.00000  Uiso   1.00
H674   H     0.86863   0.30172   0.62603   0.00000  Uiso   1.00
H675   H     0.90722   0.31440   0.65602   0.00000  Uiso   1.00
H676   H     0.84466   0.01296   0.41529   0.00000  Uiso   1.00
H677   H     0.81853   0.02418   0.37229   0.00000  Uiso   1.00
H678   H     0.85213   0.47752   0.33447   0.00000  Uiso   1.00
H679   H     0.65894   0.06653   0.44850   0.00000  Uiso   1.00
H680   H     0.88255   0.01079   0.35610   0.00000  Uiso   1.00
H681   H     0.87855   0.46594   0.37734   0.00000  Uiso   1.00
H682   H     0.68360   0.47399   0.63132   0.00000  Uiso   1.00
H683   H     0.65672   0.48086   0.58802   0.00000  Uiso   1.00
H684   H     0.62002   0.02802   0.62366   0.00000  Uiso   1.00
H685   H     0.61875   0.48398   0.64705   0.00000  Uiso   1.00
H686   H     0.64723   0.01989   0.66680   0.00000  Uiso   1.00
H687   H     0.77601   0.06640   0.86874   0.00000  Uiso   1.00
H688   H     0.76907   0.09331   0.91200   0.00000  Uiso   1.00
H689   H     0.72191   0.12993   0.87626   0.00000  Uiso   1.00
H690   H     0.64915   0.02104   0.44041   0.00000  Uiso   1.00
H691   H     0.76599   0.13124   0.85295   0.00000  Uiso   1.00
H692   H     0.73015   0.10271   0.83315   0.00000  Uiso   1.00
H693   H     0.73706   0.40534   0.08469   0.00000  Uiso   1.00
H694   H     0.72583   0.43146   0.12770   0.00000  Uiso   1.00
H695   H     0.77250   0.39786   0.16552   0.00000  Uiso   1.00
H696   H     0.73924   0.36744   0.14387   0.00000  Uiso   1.00
H697   H     0.78409   0.37146   0.12265   0.00000  Uiso   1.00
H698   H     0.99076   0.33045   0.88516   0.00000  Uiso   1.00
H699   H     0.96445   0.33974   0.92810   0.00000  Uiso   1.00
H700   H     0.90992   0.35324   0.88725   0.00000  Uiso   1.00
H701   H     0.84778   0.43130   0.53367   0.00000  Uiso   1.00
H702   H     0.94839   0.38141   0.87398   0.00000  Uiso   1.00
H703   H     0.93568   0.34284   0.84398   0.00000  Uiso   1.00
H704   H     0.54344   0.16278   0.07358   0.00000  Uiso   1.00
H705   H     0.51745   0.16969   0.11727   0.00000  Uiso   1.00
H706   H     0.57493   0.16466   0.15661   0.00000  Uiso   1.00
H707   H     0.56599   0.12432   0.12772   0.00000  Uiso   1.00
H708   H     0.60029   0.15667   0.11245   0.00000  Uiso   1.00
H709   H     0.83721   0.45655   0.92642   0.00000  Uiso   1.00
H710   H     0.83031   0.48255   0.88273   0.00000  Uiso   1.00
H711   H     0.83533   0.42506   0.84339   0.00000  Uiso   1.00
H712   H     0.86356   0.47505   0.53234   0.00000  Uiso   1.00
H713   H     0.87568   0.43401   0.87227   0.00000  Uiso   1.00
H714   H     0.84333   0.39970   0.88755   0.00000  Uiso   1.00
H715   H     0.66955   0.00924   0.11484   0.00000  Uiso   1.00
H716   H     0.66026   0.03554   0.07190   0.00000  Uiso   1.00
H717   H     0.64676   0.09007   0.11275   0.00000  Uiso   1.00
H718   H     0.61858   0.05161   0.12601   0.00000  Uiso   1.00
H719   H     0.65715   0.06431   0.15602   0.00000  Uiso   1.00
H720   H     0.59465   0.26294   0.91531   0.00000  Uiso   1.00
H721   H     0.56854   0.27416   0.87229   0.00000  Uiso   1.00
H722   H     0.60215   0.22749   0.83449   0.00000  Uiso   1.00
H723   H     0.81874   0.40224   0.96634   0.00000  Uiso   1.00
H724   H     0.63256   0.26076   0.85613   0.00000  Uiso   1.00
H725   H     0.62855   0.21591   0.87737   0.00000  Uiso   1.00
H726   H     0.93360   0.22400   0.13128   0.00000  Uiso   1.00
H727   H     0.90671   0.23091   0.08800   0.00000  Uiso   1.00
H728   H     0.87005   0.27807   0.12369   0.00000  Uiso   1.00
H729   H     0.86875   0.23400   0.14704   0.00000  Uiso   1.00
H730   H     0.89726   0.26987   0.16682   0.00000  Uiso   1.00
H731   H     0.77500   0.38645   0.96766   0.00000  Uiso   1.00
H732   H     0.68340   0.09101   0.05149   0.00000  Uiso   1.00
H733   H     0.52493   0.13644   0.46766   0.00000  Uiso   1.00
H734   H     0.72889   0.10084   0.05958   0.00000  Uiso   1.00
H735   H     0.61284   0.21331   0.96624   0.00000  Uiso   1.00
H736   H     0.58897   0.17334   0.96769   0.00000  Uiso   1.00
H737   H     0.89382   0.28289   0.05278   0.00000  Uiso   1.00
H738   H     0.92165   0.32090   0.05725   0.00000  Uiso   1.00
H739   H     0.71710   0.10617   0.94721   0.00000  Uiso   1.00
H740   H     0.67909   0.07834   0.94275   0.00000  Uiso   1.00
H741   H     0.78669   0.38715   0.03376   0.00000  Uiso   1.00
H742   H     0.82666   0.41103   0.03230   0.00000  Uiso   1.00
H743   H     0.90898   0.31659   0.94851   0.00000  Uiso   1.00
H744   H     0.93349   0.34107   0.55150   0.00000  Uiso   1.00
H745   H     0.89916   0.27110   0.94042   0.00000  Uiso   1.00
H746   H     0.59775   0.18125   0.03366   0.00000  Uiso   1.00
H747   H     0.61355   0.22499   0.03234   0.00000  Uiso   1.00
H748   H     0.66497   0.37980   0.16343   0.00000  Uiso   1.00
H749   H     0.63219   0.41257   0.16178   0.00000  Uiso   1.00
H750   H     0.83535   0.12003   0.83672   0.00000  Uiso   1.00
H751   H     0.86804   0.08718   0.83807   0.00000  Uiso   1.00
H752   H     0.54623   0.09150   0.21528   0.00000  Uiso   1.00
H753   H     0.54311   0.08798   0.26445   0.00000  Uiso   1.00
H754   H     0.95372   0.40847   0.78485   0.00000  Uiso   1.00
H755   H     0.97898   0.35086   0.55959   0.00000  Uiso   1.00
H756   H     0.95692   0.41204   0.73569   0.00000  Uiso   1.00
H757   H     0.83458   0.11969   0.16335   0.00000  Uiso   1.00
H758   H     0.86709   0.08666   0.16191   0.00000  Uiso   1.00
H759   H     0.66544   0.38025   0.83667   0.00000  Uiso   1.00
H760   H     0.63294   0.41329   0.83810   0.00000  Uiso   1.00
H761   H     0.88622   0.34141   0.16081   0.00000  Uiso   1.00
H762   H     0.91927   0.37386   0.16503   0.00000  Uiso   1.00
H763   H     0.61325   0.15759   0.83958   0.00000  Uiso   1.00
H764   H     0.58012   0.12541   0.83440   0.00000  Uiso   1.00
H765   H     0.65859   0.11378   0.83919   0.00000  Uiso   1.00
H766   H     0.86286   0.46336   0.46624   0.00000  Uiso   1.00
H767   H     0.62614   0.08073   0.83497   0.00000  Uiso   1.00
H768   H     0.84241   0.38675   0.16042   0.00000  Uiso   1.00
H769   H     0.87459   0.41989   0.16560   0.00000  Uiso   1.00
H770   H     0.62020   0.33503   0.83657   0.00000  Uiso   1.00
H771   H     0.58743   0.36781   0.83822   0.00000  Uiso   1.00
H772   H     0.87996   0.16465   0.16328   0.00000  Uiso   1.00
H773   H     0.91282   0.13196   0.16193   0.00000  Uiso   1.00
H774   H     0.90850   0.45376   0.78475   0.00000  Uiso   1.00
H775   H     0.91202   0.45689   0.73558   0.00000  Uiso   1.00
H776   H     0.59152   0.04627   0.21518   0.00000  Uiso   1.00
H777   H     0.83900   0.42337   0.46770   0.00000  Uiso   1.00
H778   H     0.58796   0.04309   0.26435   0.00000  Uiso   1.00
H779   H     0.88031   0.16541   0.83665   0.00000  Uiso   1.00
H780   H     0.91334   0.13290   0.83809   0.00000  Uiso   1.00
H781   H     0.61975   0.33456   0.16333   0.00000  Uiso   1.00
H782   H     0.58671   0.36706   0.16190   0.00000  Uiso   1.00
H783   H     0.91497   0.12980   0.66343   0.00000  Uiso   1.00
H784   H     0.88219   0.16257   0.66178   0.00000  Uiso   1.00
H785   H     0.58535   0.37003   0.33672   0.00000  Uiso   1.00
H786   H     0.61804   0.33718   0.33807   0.00000  Uiso   1.00
H787   H     0.79624   0.34150   0.71525   0.00000  Uiso   1.00
H788   H     0.64380   0.03281   0.55278   0.00000  Uiso   1.00
H789   H     0.79311   0.33798   0.76442   0.00000  Uiso   1.00
H790   H     0.70373   0.15847   0.28482   0.00000  Uiso   1.00
H791   H     0.70691   0.16204   0.23566   0.00000  Uiso   1.00
H792   H     0.58459   0.36969   0.66335   0.00000  Uiso   1.00
H793   H     0.61710   0.33666   0.66191   0.00000  Uiso   1.00
H794   H     0.91545   0.13025   0.33666   0.00000  Uiso   1.00
H795   H     0.88295   0.16329   0.33810   0.00000  Uiso   1.00
H796   H     0.63621   0.09141   0.66081   0.00000  Uiso   1.00
H797   H     0.66926   0.12385   0.66502   0.00000  Uiso   1.00
H798   H     0.86325   0.40760   0.33958   0.00000  Uiso   1.00
H799   H     0.67159   0.07086   0.55724   0.00000  Uiso   1.00
H800   H     0.83012   0.37541   0.33440   0.00000  Uiso   1.00
H801   H     0.90859   0.36379   0.33920   0.00000  Uiso   1.00
H802   H     0.87614   0.33073   0.33498   0.00000  Uiso   1.00
H803   H     0.59240   0.13674   0.66042   0.00000  Uiso   1.00
H804   H     0.62458   0.16988   0.66559   0.00000  Uiso   1.00
H805   H     0.87021   0.08503   0.33657   0.00000  Uiso   1.00
H806   H     0.83744   0.11780   0.33822   0.00000  Uiso   1.00
H807   H     0.62997   0.41464   0.66328   0.00000  Uiso   1.00
H808   H     0.66282   0.38196   0.66193   0.00000  Uiso   1.00
H809   H     0.65851   0.20377   0.28472   0.00000  Uiso   1.00
H810   H     0.96723   0.35621   0.44722   0.00000  Uiso   1.00
H811   H     0.66202   0.20689   0.23555   0.00000  Uiso   1.00
H812   H     0.84153   0.29628   0.71515   0.00000  Uiso   1.00
H813   H     0.83796   0.29308   0.76431   0.00000  Uiso   1.00
H814   H     0.63031   0.41541   0.33665   0.00000  Uiso   1.00
H815   H     0.66334   0.38290   0.33809   0.00000  Uiso   1.00
H816   H     0.86975   0.08455   0.66333   0.00000  Uiso   1.00
H817   H     0.83671   0.11706   0.66190   0.00000  Uiso   1.00
H818   H     0.52599   0.31640   0.36863   0.00000  Uiso   1.00
H819   H     0.51918   0.34324   0.41197   0.00000  Uiso   1.00
H820   H     0.97200   0.38001   0.37643   0.00000  Uiso   1.00
N821   N     0.54159   0.15819   0.45929   0.00000  Uiso   1.00
N822   N     0.70914   0.09339   0.03900   0.00000  Uiso   1.00
N823   N     0.58805   0.20069   0.95927   0.00000  Uiso   1.00
N824   N     0.91116   0.30093   0.03850   0.00000  Uiso   1.00
N825   N     0.69906   0.08883   0.96150   0.00000  Uiso   1.00
N826   N     0.79931   0.41195   0.04072   0.00000  Uiso   1.00
N827   N     0.90661   0.29085   0.96100   0.00000  Uiso   1.00
N828   N     0.59178   0.20835   0.04071   0.00000  Uiso   1.00
N829   N     0.65331   0.40162   0.17854   0.00000  Uiso   1.00
N830   N     0.84687   0.09823   0.82146   0.00000  Uiso   1.00
N831   N     0.55016   0.10529   0.24161   0.00000  Uiso   1.00
N832   N     0.95923   0.34343   0.53901   0.00000  Uiso   1.00
N833   N     0.94983   0.39471   0.75849   0.00000  Uiso   1.00
N834   N     0.84612   0.09792   0.17856   0.00000  Uiso   1.00
N835   N     0.65392   0.40203   0.82146   0.00000  Uiso   1.00
N836   N     0.90689   0.35170   0.17878   0.00000  Uiso   1.00
N837   N     0.59271   0.14773   0.82118   0.00000  Uiso   1.00
N838   N     0.64830   0.09311   0.82122   0.00000  Uiso   1.00
N839   N     0.85227   0.40729   0.17882   0.00000  Uiso   1.00
N840   N     0.59838   0.34669   0.82146   0.00000  Uiso   1.00
N841   N     0.90177   0.15313   0.17854   0.00000  Uiso   1.00
N842   N     0.89471   0.44984   0.75842   0.00000  Uiso   1.00
N843   N     0.83807   0.45073   0.45928   0.00000  Uiso   1.00
N844   N     0.60529   0.05017   0.24153   0.00000  Uiso   1.00
N845   N     0.90208   0.15388   0.82145   0.00000  Uiso   1.00
N846   N     0.59797   0.34608   0.17854   0.00000  Uiso   1.00
N847   N     0.90331   0.15162   0.67854   0.00000  Uiso   1.00
N848   N     0.59687   0.34823   0.32146   0.00000  Uiso   1.00
N849   N     0.80016   0.35529   0.74159   0.00000  Uiso   1.00
N850   N     0.69983   0.14471   0.25847   0.00000  Uiso   1.00
N851   N     0.59612   0.34791   0.67856   0.00000  Uiso   1.00
N852   N     0.90392   0.15203   0.32146   0.00000  Uiso   1.00
N853   N     0.65689   0.10170   0.67878   0.00000  Uiso   1.00
N854   N     0.66112   0.05087   0.53850   0.00000  Uiso   1.00
N855   N     0.84272   0.39773   0.32118   0.00000  Uiso   1.00
N856   N     0.89830   0.34311   0.32123   0.00000  Uiso   1.00
N857   N     0.60227   0.15728   0.67882   0.00000  Uiso   1.00
N858   N     0.84838   0.09668   0.32146   0.00000  Uiso   1.00
N859   N     0.65177   0.40313   0.67854   0.00000  Uiso   1.00
N860   N     0.64471   0.19984   0.25839   0.00000  Uiso   1.00
N861   N     0.85529   0.30017   0.74151   0.00000  Uiso   1.00
N862   N     0.65208   0.40388   0.32144   0.00000  Uiso   1.00
N863   N     0.84797   0.09608   0.67854   0.00000  Uiso   1.00
N864   N     0.94916   0.33890   0.46151   0.00000  Uiso   1.00
N865   N     0.54925   0.16192   0.54072   0.00000  Uiso   1.00
N866   N     0.65659   0.04079   0.46099   0.00000  Uiso   1.00
N867   N     0.84180   0.45840   0.54071   0.00000  Uiso   1.00
N868   N     0.79164   0.40822   0.95929   0.00000  Uiso   1.00
O869   O     0.75000  -0.00000   0.25000   0.00000  Uiso   1.00
O870   O     0.75000   0.46964   0.66245   0.00000  Uiso   1.00
O871   O     0.96963   0.25000   0.33755   0.00000  Uiso   1.00
O872   O     0.53036   0.25000   0.66245   0.00000  Uiso   1.00
O873   O     0.50000   0.21963   0.83755   0.00000  Uiso   1.00
O874   O     0.50000   0.28036   0.16245   0.00000  Uiso   1.00
O875   O     0.78036  -0.00000   0.83755   0.00000  Uiso   1.00
O876   O     0.71963  -0.00000   0.16245   0.00000  Uiso   1.00
O877   O     0.50000   0.28036   0.83755   0.00000  Uiso   1.00
O878   O     0.50000   0.21963   0.16245   0.00000  Uiso   1.00
O879   O     0.71963  -0.00000   0.83755   0.00000  Uiso   1.00
O880   O     0.75000  -0.00000   0.75000   0.00000  Uiso   1.00
O881   O     0.78036  -0.00000   0.16245   0.00000  Uiso   1.00
O882   O     0.70724   0.07307   0.27302   0.00000  Uiso   1.00
O883   O     0.79275   0.42692   0.72698   0.00000  Uiso   1.00
O884   O     0.92692   0.20724   0.27302   0.00000  Uiso   1.00
O885   O     0.57307   0.29276   0.72698   0.00000  Uiso   1.00
O886   O     0.79275   0.42692   0.27302   0.00000  Uiso   1.00
O887   O     0.70724   0.07307   0.72698   0.00000  Uiso   1.00
O888   O     0.57307   0.29276   0.27302   0.00000  Uiso   1.00
O889   O     0.92692   0.20724   0.72698   0.00000  Uiso   1.00
O890   O     0.70724   0.42693   0.72698   0.00000  Uiso   1.00
O891   O     0.50000   0.25000   0.25000   0.00000  Uiso   1.00
O892   O     0.79275   0.07307   0.27302   0.00000  Uiso   1.00
O893   O     0.92692   0.29275   0.72698   0.00000  Uiso   1.00
O894   O     0.57307   0.20725   0.27302   0.00000  Uiso   1.00
O895   O     0.79275   0.07307   0.72698   0.00000  Uiso   1.00
O896   O     0.70724   0.42693   0.27302   0.00000  Uiso   1.00
O897   O     0.57307   0.20725   0.72698   0.00000  Uiso   1.00
O898   O     0.92692   0.29275   0.27302   0.00000  Uiso   1.00
O899   O     0.95724   0.32307   0.77302   0.00000  Uiso   1.00
O900   O     0.54275   0.17693   0.22698   0.00000  Uiso   1.00
O901   O     0.67692   0.45725   0.77302   0.00000  Uiso   1.00
O902   O     0.50000   0.25000   0.75000   0.00000  Uiso   1.00
O903   O     0.82307   0.04275   0.22698   0.00000  Uiso   1.00
O904   O     0.54275   0.17693   0.77302   0.00000  Uiso   1.00
O905   O     0.95724   0.32307   0.22698   0.00000  Uiso   1.00
O906   O     0.82307   0.04275   0.77302   0.00000  Uiso   1.00
O907   O     0.67692   0.45725   0.22698   0.00000  Uiso   1.00
O908   O     0.95724   0.17692   0.22698   0.00000  Uiso   1.00
O909   O     0.54275   0.32308   0.77302   0.00000  Uiso   1.00
O910   O     0.67692   0.04275   0.22698   0.00000  Uiso   1.00
O911   O     0.82307   0.45724   0.77302   0.00000  Uiso   1.00
O912   O     0.54275   0.32308   0.22698   0.00000  Uiso   1.00
O913   O     0.75000   0.46964   0.33755   0.00000  Uiso   1.00
O914   O     0.95724   0.17692   0.77302   0.00000  Uiso   1.00
O915   O     0.82307   0.45724   0.22698   0.00000  Uiso   1.00
O916   O     0.67692   0.04275   0.77302   0.00000  Uiso   1.00
O917   O     0.97501   0.31013   0.39581   0.00000  Uiso   1.00
O918   O     0.52758   0.19146   0.60384   0.00000  Uiso   1.00
O919   O     0.69934   0.04246   0.39732   0.00000  Uiso   1.00
O920   O     0.80360   0.46204   0.60315   0.00000  Uiso   1.00
O921   O     0.53796   0.19639   0.39685   0.00000  Uiso   1.00
O922   O     0.95755   0.30067   0.60269   0.00000  Uiso   1.00
O923   O     0.80854   0.47242   0.39616   0.00000  Uiso   1.00
O924   O     0.75000   0.03036   0.66245   0.00000  Uiso   1.00
O925   O     0.68988   0.02499   0.60419   0.00000  Uiso   1.00
O926   O     0.72499   0.06011   0.89581   0.00000  Uiso   1.00
O927   O     0.77760   0.44147   0.10384   0.00000  Uiso   1.00
O928   O     0.94937   0.29250   0.89732   0.00000  Uiso   1.00
O929   O     0.55359   0.21201   0.10315   0.00000  Uiso   1.00
O930   O     0.78799   0.44641   0.89685   0.00000  Uiso   1.00
O931   O     0.70750   0.05063   0.10268   0.00000  Uiso   1.00
O932   O     0.55853   0.22240   0.89616   0.00000  Uiso   1.00
O933   O     0.93989   0.27501   0.10419   0.00000  Uiso   1.00
O934   O     0.53036   0.25000   0.33755   0.00000  Uiso   1.00
O935   O     0.96963   0.25000   0.66245   0.00000  Uiso   1.00
O936   O     0.75000   0.03036   0.33755   0.00000  Uiso   1.00
Zn937  Zn    0.70659  -0.00000   0.21735   0.00000  Uiso   1.00
Zn938  Zn    0.54340   0.25000   0.28265   0.00000  Uiso   1.00
Zn939  Zn    0.75000   0.45660   0.71735   0.00000  Uiso   1.00
Zn940  Zn    0.75000   0.04340   0.28265   0.00000  Uiso   1.00
Zn941  Zn    0.54340   0.25000   0.71735   0.00000  Uiso   1.00
Zn942  Zn    0.95659   0.25000   0.28265   0.00000  Uiso   1.00
Zn943  Zn    0.75000   0.04340   0.71735   0.00000  Uiso   1.00
Zn944  Zn    0.75000   0.45660   0.28265   0.00000  Uiso   1.00
Zn945  Zn    0.79340  -0.00000   0.78265   0.00000  Uiso   1.00
Zn946  Zn    0.50000   0.20659   0.21735   0.00000  Uiso   1.00
Zn947  Zn    0.50000   0.29340   0.78265   0.00000  Uiso   1.00
Zn948  Zn    0.79340  -0.00000   0.21735   0.00000  Uiso   1.00
Zn949  Zn    0.70659  -0.00000   0.78265   0.00000  Uiso   1.00
Zn950  Zn    0.50000   0.29340   0.21735   0.00000  Uiso   1.00
Zn951  Zn    0.50000   0.20659   0.78265   0.00000  Uiso   1.00
Zn952  Zn    0.95659   0.25000   0.71735   0.00000  Uiso   1.00
C953   C     0.48699   0.78068   0.41754   0.00000  Uiso   1.00
C954   C     0.26431   0.97047   0.08226   0.00000  Uiso   1.00
C955   C     0.21935   0.51480   0.54136   0.00000  Uiso   1.00
C956   C     0.48521   0.78066   0.45864   0.00000  Uiso   1.00
C957   C     0.01525   0.72029   0.54117   0.00000  Uiso   1.00
C958   C     0.22081   0.51748   0.45898   0.00000  Uiso   1.00
C959   C     0.27887   0.98293   0.54105   0.00000  Uiso   1.00
C960   C     0.26708   0.97114   0.95895   0.00000  Uiso   1.00
C961   C     0.23250   0.52918   0.04102   0.00000  Uiso   1.00
C962   C     0.02970   0.73473   0.95883   0.00000  Uiso   1.00
C963   C     0.46936   0.76482   0.04136   0.00000  Uiso   1.00
C964   C     0.23518   0.53064   0.95864   0.00000  Uiso   1.00
C965   C     0.47312   0.77059   0.91817   0.00000  Uiso   1.00
C966   C     0.26527   0.97030   0.04117   0.00000  Uiso   1.00
C967   C     0.47082   0.76750   0.95898   0.00000  Uiso   1.00
C968   C     0.02886   0.73292   0.04105   0.00000  Uiso   1.00
C969   C     0.09820   0.84797   0.25001   0.00000  Uiso   1.00
C970   C     0.40183   0.65201   0.74998   0.00000  Uiso   1.00
C971   C     0.15189   0.59811   0.25000   0.00000  Uiso   1.00
C972   C     0.34811   0.90189   0.75000   0.00000  Uiso   1.00
C973   C     0.40203   0.65180   0.24999   0.00000  Uiso   1.00
C974   C     0.09799   0.84817   0.75002   0.00000  Uiso   1.00
C975   C     0.34811   0.90189   0.25000   0.00000  Uiso   1.00
C976   C     0.02736   0.73067   0.08196   0.00000  Uiso   1.00
C977   C     0.15192   0.59807   0.75000   0.00000  Uiso   1.00
C978   C     0.09811   0.65189   0.75000   0.00000  Uiso   1.00
C979   C     0.40193   0.84808   0.25000   0.00000  Uiso   1.00
C980   C     0.15203   0.90180   0.74999   0.00000  Uiso   1.00
C981   C     0.34799   0.59817   0.25002   0.00000  Uiso   1.00
C982   C     0.40189   0.84811   0.75000   0.00000  Uiso   1.00
C983   C     0.09811   0.65189   0.25000   0.00000  Uiso   1.00
C984   C     0.34820   0.59797   0.75001   0.00000  Uiso   1.00
C985   C     0.15183   0.90201   0.24998   0.00000  Uiso   1.00
C986   C     0.00069   0.75069   0.47937   0.00000  Uiso   1.00
C987   C     0.26933   0.97264   0.91804   0.00000  Uiso   1.00
C988   C     0.49944   0.75003   0.52050   0.00000  Uiso   1.00
C989   C     0.24997   0.50056   0.47950   0.00000  Uiso   1.00
C990   C     0.24931   0.99931   0.52063   0.00000  Uiso   1.00
C991   C     0.25069   0.50069   0.97937   0.00000  Uiso   1.00
C992   C     0.24944   0.50003   0.02050   0.00000  Uiso   1.00
C993   C     0.49997   0.75056   0.97950   0.00000  Uiso   1.00
C994   C     0.49931   0.74931   0.02063   0.00000  Uiso   1.00
C995   C     0.00545   0.83197   0.38559   0.00000  Uiso   1.00
C996   C     0.49252   0.86352   0.36051   0.00000  Uiso   1.00
C997   C     0.49830   0.66741   0.61199   0.00000  Uiso   1.00
C998   C     0.22941   0.52688   0.08183   0.00000  Uiso   1.00
C999   C     0.01195   0.63660   0.63764   0.00000  Uiso   1.00
C1000  C     0.21290   0.57873   0.39792   0.00000  Uiso   1.00
C1001  C     0.18756   0.60302   0.37430   0.00000  Uiso   1.00
C1002  C     0.29448   0.92444   0.60350   0.00000  Uiso   1.00
C1003  C     0.32328   0.90378   0.62653   0.00000  Uiso   1.00
C1004  C     0.07555   0.70551   0.39650   0.00000  Uiso   1.00
C1005  C     0.09621   0.67671   0.37346   0.00000  Uiso   1.00
C1006  C     0.42128   0.78711   0.60208   0.00000  Uiso   1.00
C1007  C     0.39699   0.81245   0.62570   0.00000  Uiso   1.00
C1008  C     0.33259   0.50170   0.38801   0.00000  Uiso   1.00
C1009  C     0.02953   0.73569   0.91774   0.00000  Uiso   1.00
C1010  C     0.36339   0.98805   0.36236   0.00000  Uiso   1.00
C1011  C     0.16803   0.99456   0.61440   0.00000  Uiso   1.00
C1012  C     0.13651   0.50748   0.63954   0.00000  Uiso   1.00
C1013  C     0.25541   0.58197   0.88562   0.00000  Uiso   1.00
C1014  C     0.24250   0.61345   0.86043   0.00000  Uiso   1.00
C1015  C     0.24832   0.91741   0.11198   0.00000  Uiso   1.00
C1016  C     0.26197   0.88660   0.13762   0.00000  Uiso   1.00
C1017  C     0.46295   0.82875   0.89792   0.00000  Uiso   1.00
C1018  C     0.43763   0.85306   0.87431   0.00000  Uiso   1.00
C1019  C     0.04445   0.67442   0.10349   0.00000  Uiso   1.00
C1020  C     0.46933   0.76303   0.08246   0.00000  Uiso   1.00
C1021  C     0.07323   0.65374   0.12653   0.00000  Uiso   1.00
C1022  C     0.32558   0.95555   0.89651   0.00000  Uiso   1.00
C1023  C     0.34626   0.92677   0.87346   0.00000  Uiso   1.00
C1024  C     0.17124   0.53704   0.10208   0.00000  Uiso   1.00
C1025  C     0.14694   0.56236   0.12569   0.00000  Uiso   1.00
C1026  C     0.08259   0.75168   0.88802   0.00000  Uiso   1.00
C1027  C     0.11340   0.73802   0.86239   0.00000  Uiso   1.00
C1028  C     0.41803   0.74458   0.11438   0.00000  Uiso   1.00
C1029  C     0.38653   0.75750   0.13955   0.00000  Uiso   1.00
C1030  C     0.00137   0.75046   0.39800   0.00000  Uiso   1.00
C1031  C     0.49868   0.74990   0.60192   0.00000  Uiso   1.00
C1032  C     0.25010   0.50132   0.39808   0.00000  Uiso   1.00
C1033  C     0.01430   0.72046   0.58226   0.00000  Uiso   1.00
C1034  C     0.24955   0.99864   0.60200   0.00000  Uiso   1.00
C1035  C     0.25136   0.50045   0.89800   0.00000  Uiso   1.00
C1036  C     0.24868   0.99990   0.10192   0.00000  Uiso   1.00
C1037  C     0.00010   0.75132   0.89808   0.00000  Uiso   1.00
C1038  C     0.49955   0.74863   0.10200   0.00000  Uiso   1.00
C1039  C     0.03039   0.69060   0.47966   0.00000  Uiso   1.00
C1040  C     0.46938   0.80984   0.52022   0.00000  Uiso   1.00
C1041  C     0.30892   0.96868   0.47956   0.00000  Uiso   1.00
C1042  C     0.19043   0.53137   0.52023   0.00000  Uiso   1.00
C1043  C     0.46864   0.80958   0.47977   0.00000  Uiso   1.00
C1044  C     0.22311   0.52057   0.41817   0.00000  Uiso   1.00
C1045  C     0.03131   0.69108   0.52044   0.00000  Uiso   1.00
C1046  C     0.19017   0.53063   0.47978   0.00000  Uiso   1.00
C1047  C     0.30939   0.96960   0.52034   0.00000  Uiso   1.00
C1048  C     0.28042   0.94062   0.97966   0.00000  Uiso   1.00
C1049  C     0.21932   0.55981   0.02022   0.00000  Uiso   1.00
C1050  C     0.05890   0.71865   0.97956   0.00000  Uiso   1.00
C1051  C     0.44046   0.78141   0.02023   0.00000  Uiso   1.00
C1052  C     0.21858   0.55954   0.97977   0.00000  Uiso   1.00
C1053  C     0.28135   0.94110   0.02044   0.00000  Uiso   1.00
C1054  C     0.44019   0.78067   0.97978   0.00000  Uiso   1.00
C1055  C     0.27737   0.98068   0.58196   0.00000  Uiso   1.00
C1056  C     0.05938   0.71958   0.02034   0.00000  Uiso   1.00
C1057  C     0.24940   0.50025   0.35578   0.00000  Uiso   1.00
C1058  C     0.25055   0.99976   0.64425   0.00000  Uiso   1.00
C1059  C     0.00024   0.74945   0.35575   0.00000  Uiso   1.00
C1060  C     0.49975   0.75060   0.64422   0.00000  Uiso   1.00
C1061  C     0.49940   0.75025   0.85578   0.00000  Uiso   1.00
C1062  C     0.00055   0.74976   0.14425   0.00000  Uiso   1.00
C1063  C     0.25024   0.99945   0.85575   0.00000  Uiso   1.00
C1064  C     0.24975   0.50060   0.14422   0.00000  Uiso   1.00
C1065  C     0.17996   0.57004   0.25000   0.00000  Uiso   1.00
C1066  C     0.01931   0.72263   0.41804   0.00000  Uiso   1.00
C1067  C     0.32004   0.92996   0.75000   0.00000  Uiso   1.00
C1068  C     0.43005   0.67995   0.24999   0.00000  Uiso   1.00
C1069  C     0.06996   0.82004   0.75001   0.00000  Uiso   1.00
C1070  C     0.32001   0.92999   0.25000   0.00000  Uiso   1.00
C1071  C     0.18001   0.56999   0.75000   0.00000  Uiso   1.00
C1072  C     0.07005   0.81995   0.25001   0.00000  Uiso   1.00
C1073  C     0.42996   0.68004   0.74999   0.00000  Uiso   1.00
C1074  C     0.18005   0.92995   0.74999   0.00000  Uiso   1.00
C1075  C     0.31996   0.57004   0.25001   0.00000  Uiso   1.00
C1076  C     0.42996   0.82004   0.75000   0.00000  Uiso   1.00
C1077  C     0.47944   0.77690   0.58183   0.00000  Uiso   1.00
C1078  C     0.07004   0.67996   0.25000   0.00000  Uiso   1.00
C1079  C     0.32005   0.56995   0.75001   0.00000  Uiso   1.00
C1080  C     0.17996   0.93004   0.24999   0.00000  Uiso   1.00
C1081  C     0.07001   0.67999   0.75000   0.00000  Uiso   1.00
C1082  C     0.43001   0.81999   0.25000   0.00000  Uiso   1.00
C1083  C     0.13846   0.88840   0.21441   0.00000  Uiso   1.00
C1084  C     0.36162   0.61154   0.78558   0.00000  Uiso   1.00
C1085  C     0.08802   0.61505   0.24527   0.00000  Uiso   1.00
C1086  C     0.41197   0.88495   0.75476   0.00000  Uiso   1.00
C1087  C     0.36124   0.61139   0.21443   0.00000  Uiso   1.00
C1088  C     0.27954   0.98570   0.41774   0.00000  Uiso   1.00
C1089  C     0.13879   0.88856   0.78558   0.00000  Uiso   1.00
C1090  C     0.39110   0.86400   0.21465   0.00000  Uiso   1.00
C1091  C     0.10886   0.63584   0.78534   0.00000  Uiso   1.00
C1092  C     0.13600   0.60891   0.78535   0.00000  Uiso   1.00
C1093  C     0.36416   0.89114   0.21466   0.00000  Uiso   1.00
C1094  C     0.11160   0.86154   0.78559   0.00000  Uiso   1.00
C1095  C     0.38845   0.63838   0.21442   0.00000  Uiso   1.00
C1096  C     0.38495   0.91198   0.75475   0.00000  Uiso   1.00
C1097  C     0.11505   0.58802   0.24525   0.00000  Uiso   1.00
C1098  C     0.38861   0.63876   0.78557   0.00000  Uiso   1.00
C1099  C     0.21932   0.51302   0.58246   0.00000  Uiso   1.00
C1100  C     0.11144   0.86121   0.21442   0.00000  Uiso   1.00
C1101  C     0.38846   0.63839   0.71441   0.00000  Uiso   1.00
C1102  C     0.11162   0.86155   0.28558   0.00000  Uiso   1.00
C1103  C     0.33802   0.86505   0.74526   0.00000  Uiso   1.00
C1104  C     0.16198   0.63495   0.25475   0.00000  Uiso   1.00
C1105  C     0.11124   0.86139   0.71443   0.00000  Uiso   1.00
C1106  C     0.38880   0.63856   0.28558   0.00000  Uiso   1.00
C1107  C     0.14109   0.61400   0.71465   0.00000  Uiso   1.00
C1108  C     0.35886   0.88584   0.28534   0.00000  Uiso   1.00
C1109  C     0.38600   0.85891   0.28535   0.00000  Uiso   1.00
C1110  C     0.23697   0.53067   0.91754   0.00000  Uiso   1.00
C1111  C     0.11416   0.64114   0.71466   0.00000  Uiso   1.00
C1112  C     0.36161   0.61154   0.28559   0.00000  Uiso   1.00
C1113  C     0.13846   0.88838   0.71442   0.00000  Uiso   1.00
C1114  C     0.13495   0.66198   0.25473   0.00000  Uiso   1.00
C1115  C     0.36505   0.83802   0.74524   0.00000  Uiso   1.00
C1116  C     0.13861   0.88876   0.28557   0.00000  Uiso   1.00
C1117  C     0.36144   0.61120   0.71442   0.00000  Uiso   1.00
C1118  C     0.01706   0.72113   0.45895   0.00000  Uiso   1.00
C1119  C     0.48252   0.77920   0.54102   0.00000  Uiso   1.00
C1120  C     0.27971   0.98474   0.45883   0.00000  Uiso   1.00
H1121  H     0.06868   0.65221   0.46633   0.00000  Uiso   1.00
H1122  H     0.42917   0.82844   0.44276   0.00000  Uiso   1.00
H1123  H     0.01603   0.88128   0.35298   0.00000  Uiso   1.00
H1124  H     0.48007   0.85284   0.33325   0.00000  Uiso   1.00
H1125  H     0.48703   0.65534   0.58471   0.00000  Uiso   1.00
H1126  H     0.47582   0.68147   0.62772   0.00000  Uiso   1.00
H1127  H     0.02248   0.64786   0.66553   0.00000  Uiso   1.00
H1128  H     0.48921   0.61745   0.64390   0.00000  Uiso   1.00
H1129  H     0.03406   0.62145   0.62266   0.00000  Uiso   1.00
H1130  H     0.24071   0.58045   0.38516   0.00000  Uiso   1.00
H1131  H     0.21439   0.58971   0.42810   0.00000  Uiso   1.00
H1132  H     0.15985   0.60318   0.38725   0.00000  Uiso   1.00
H1133  H     0.03662   0.63713   0.53376   0.00000  Uiso   1.00
H1134  H     0.19830   0.63138   0.37398   0.00000  Uiso   1.00
H1135  H     0.18562   0.59280   0.34398   0.00000  Uiso   1.00
H1136  H     0.29348   0.91280   0.57358   0.00000  Uiso   1.00
H1137  H     0.26749   0.91970   0.61727   0.00000  Uiso   1.00
H1138  H     0.32497   0.91470   0.65661   0.00000  Uiso   1.00
H1139  H     0.31605   0.87435   0.62773   0.00000  Uiso   1.00
H1140  H     0.35033   0.90672   0.61245   0.00000  Uiso   1.00
H1141  H     0.08719   0.70650   0.42642   0.00000  Uiso   1.00
H1142  H     0.08030   0.73250   0.38273   0.00000  Uiso   1.00
H1143  H     0.08528   0.67502   0.34338   0.00000  Uiso   1.00
H1144  H     0.07661   0.66099   0.53230   0.00000  Uiso   1.00
H1145  H     0.12564   0.68394   0.37227   0.00000  Uiso   1.00
H1146  H     0.09326   0.64965   0.38755   0.00000  Uiso   1.00
H1147  H     0.41956   0.75931   0.61484   0.00000  Uiso   1.00
H1148  H     0.41029   0.78562   0.57190   0.00000  Uiso   1.00
H1149  H     0.39683   0.84016   0.61275   0.00000  Uiso   1.00
H1150  H     0.36863   0.80172   0.62603   0.00000  Uiso   1.00
H1151  H     0.40722   0.81440   0.65602   0.00000  Uiso   1.00
H1152  H     0.34466   0.51296   0.41529   0.00000  Uiso   1.00
H1153  H     0.31853   0.52418   0.37229   0.00000  Uiso   1.00
H1154  H     0.35213   0.97752   0.33447   0.00000  Uiso   1.00
H1155  H     0.15894   0.56653   0.44850   0.00000  Uiso   1.00
H1156  H     0.38255   0.51079   0.35610   0.00000  Uiso   1.00
H1157  H     0.37855   0.96594   0.37734   0.00000  Uiso   1.00
H1158  H     0.18360   0.97399   0.63132   0.00000  Uiso   1.00
H1159  H     0.15672   0.98086   0.58802   0.00000  Uiso   1.00
H1160  H     0.12002   0.52802   0.62366   0.00000  Uiso   1.00
H1161  H     0.11875   0.98398   0.64705   0.00000  Uiso   1.00
H1162  H     0.14723   0.51989   0.66680   0.00000  Uiso   1.00
H1163  H     0.27601   0.56640   0.86874   0.00000  Uiso   1.00
H1164  H     0.26907   0.59331   0.91200   0.00000  Uiso   1.00
H1165  H     0.22191   0.62993   0.87626   0.00000  Uiso   1.00
H1166  H     0.14915   0.52104   0.44041   0.00000  Uiso   1.00
H1167  H     0.26599   0.63124   0.85295   0.00000  Uiso   1.00
H1168  H     0.23015   0.60271   0.83315   0.00000  Uiso   1.00
H1169  H     0.23706   0.90534   0.08469   0.00000  Uiso   1.00
H1170  H     0.22583   0.93146   0.12770   0.00000  Uiso   1.00
H1171  H     0.27250   0.89786   0.16552   0.00000  Uiso   1.00
H1172  H     0.23924   0.86744   0.14387   0.00000  Uiso   1.00
H1173  H     0.28409   0.87146   0.12265   0.00000  Uiso   1.00
H1174  H     0.49076   0.83045   0.88516   0.00000  Uiso   1.00
H1175  H     0.46445   0.83974   0.92810   0.00000  Uiso   1.00
H1176  H     0.40992   0.85324   0.88725   0.00000  Uiso   1.00
H1177  H     0.34778   0.93130   0.53367   0.00000  Uiso   1.00
H1178  H     0.44839   0.88141   0.87398   0.00000  Uiso   1.00
H1179  H     0.43568   0.84284   0.84398   0.00000  Uiso   1.00
H1180  H     0.04344   0.66278   0.07358   0.00000  Uiso   1.00
H1181  H     0.01745   0.66969   0.11727   0.00000  Uiso   1.00
H1182  H     0.07493   0.66466   0.15661   0.00000  Uiso   1.00
H1183  H     0.06599   0.62432   0.12772   0.00000  Uiso   1.00
H1184  H     0.10029   0.65667   0.11245   0.00000  Uiso   1.00
H1185  H     0.33721   0.95655   0.92642   0.00000  Uiso   1.00
H1186  H     0.33031   0.98255   0.88273   0.00000  Uiso   1.00
H1187  H     0.33533   0.92506   0.84339   0.00000  Uiso   1.00
H1188  H     0.36356   0.97505   0.53234   0.00000  Uiso   1.00
H1189  H     0.37568   0.93401   0.87227   0.00000  Uiso   1.00
H1190  H     0.34333   0.89970   0.88755   0.00000  Uiso   1.00
H1191  H     0.16955   0.50924   0.11484   0.00000  Uiso   1.00
H1192  H     0.16026   0.53554   0.07190   0.00000  Uiso   1.00
H1193  H     0.14676   0.59007   0.11275   0.00000  Uiso   1.00
H1194  H     0.11858   0.55161   0.12601   0.00000  Uiso   1.00
H1195  H     0.15715   0.56431   0.15602   0.00000  Uiso   1.00
H1196  H     0.09465   0.76294   0.91531   0.00000  Uiso   1.00
H1197  H     0.06854   0.77416   0.87229   0.00000  Uiso   1.00
H1198  H     0.10215   0.72749   0.83449   0.00000  Uiso   1.00
H1199  H     0.31874   0.90224   0.96634   0.00000  Uiso   1.00
H1200  H     0.13256   0.76076   0.85613   0.00000  Uiso   1.00
H1201  H     0.12855   0.71591   0.87737   0.00000  Uiso   1.00
H1202  H     0.43360   0.72400   0.13128   0.00000  Uiso   1.00
H1203  H     0.40671   0.73091   0.08800   0.00000  Uiso   1.00
H1204  H     0.37005   0.77807   0.12369   0.00000  Uiso   1.00
H1205  H     0.36875   0.73400   0.14704   0.00000  Uiso   1.00
H1206  H     0.39726   0.76987   0.16682   0.00000  Uiso   1.00
H1207  H     0.27500   0.88645   0.96766   0.00000  Uiso   1.00
H1208  H     0.18340   0.59101   0.05149   0.00000  Uiso   1.00
H1209  H     0.02493   0.63644   0.46766   0.00000  Uiso   1.00
H1210  H     0.22889   0.60084   0.05958   0.00000  Uiso   1.00
H1211  H     0.11284   0.71331   0.96624   0.00000  Uiso   1.00
H1212  H     0.08897   0.67334   0.96769   0.00000  Uiso   1.00
H1213  H     0.39382   0.78289   0.05278   0.00000  Uiso   1.00
H1214  H     0.42165   0.82090   0.05725   0.00000  Uiso   1.00
H1215  H     0.21710   0.60617   0.94721   0.00000  Uiso   1.00
H1216  H     0.17909   0.57834   0.94275   0.00000  Uiso   1.00
H1217  H     0.28669   0.88715   0.03376   0.00000  Uiso   1.00
H1218  H     0.32666   0.91103   0.03230   0.00000  Uiso   1.00
H1219  H     0.40898   0.81659   0.94851   0.00000  Uiso   1.00
H1220  H     0.43349   0.84107   0.55150   0.00000  Uiso   1.00
H1221  H     0.39916   0.77110   0.94042   0.00000  Uiso   1.00
H1222  H     0.09775   0.68125   0.03366   0.00000  Uiso   1.00
H1223  H     0.11355   0.72499   0.03234   0.00000  Uiso   1.00
H1224  H     0.16497   0.87980   0.16343   0.00000  Uiso   1.00
H1225  H     0.13219   0.91257   0.16178   0.00000  Uiso   1.00
H1226  H     0.33535   0.62003   0.83672   0.00000  Uiso   1.00
H1227  H     0.36804   0.58718   0.83807   0.00000  Uiso   1.00
H1228  H     0.04623   0.59150   0.21528   0.00000  Uiso   1.00
H1229  H     0.04311   0.58798   0.26445   0.00000  Uiso   1.00
H1230  H     0.45372   0.90847   0.78485   0.00000  Uiso   1.00
H1231  H     0.47898   0.85086   0.55959   0.00000  Uiso   1.00
H1232  H     0.45692   0.91204   0.73569   0.00000  Uiso   1.00
H1233  H     0.33458   0.61969   0.16335   0.00000  Uiso   1.00
H1234  H     0.36709   0.58666   0.16191   0.00000  Uiso   1.00
H1235  H     0.16544   0.88025   0.83667   0.00000  Uiso   1.00
H1236  H     0.13294   0.91329   0.83810   0.00000  Uiso   1.00
H1237  H     0.38622   0.84141   0.16081   0.00000  Uiso   1.00
H1238  H     0.41927   0.87386   0.16503   0.00000  Uiso   1.00
H1239  H     0.11325   0.65759   0.83958   0.00000  Uiso   1.00
H1240  H     0.08012   0.62541   0.83440   0.00000  Uiso   1.00
H1241  H     0.15859   0.61378   0.83919   0.00000  Uiso   1.00
H1242  H     0.36286   0.96336   0.46624   0.00000  Uiso   1.00
H1243  H     0.12614   0.58073   0.83497   0.00000  Uiso   1.00
H1244  H     0.34241   0.88675   0.16042   0.00000  Uiso   1.00
H1245  H     0.37459   0.91989   0.16560   0.00000  Uiso   1.00
H1246  H     0.12020   0.83503   0.83657   0.00000  Uiso   1.00
H1247  H     0.08743   0.86781   0.83822   0.00000  Uiso   1.00
H1248  H     0.37996   0.66465   0.16328   0.00000  Uiso   1.00
H1249  H     0.41282   0.63196   0.16193   0.00000  Uiso   1.00
H1250  H     0.40850   0.95376   0.78475   0.00000  Uiso   1.00
H1251  H     0.41202   0.95689   0.73558   0.00000  Uiso   1.00
H1252  H     0.09152   0.54627   0.21518   0.00000  Uiso   1.00
H1253  H     0.33900   0.92337   0.46770   0.00000  Uiso   1.00
H1254  H     0.08796   0.54309   0.26435   0.00000  Uiso   1.00
H1255  H     0.38031   0.66541   0.83665   0.00000  Uiso   1.00
H1256  H     0.41334   0.63290   0.83809   0.00000  Uiso   1.00
H1257  H     0.11975   0.83456   0.16333   0.00000  Uiso   1.00
H1258  H     0.08671   0.86706   0.16190   0.00000  Uiso   1.00
H1259  H     0.41497   0.62980   0.66343   0.00000  Uiso   1.00
H1260  H     0.38219   0.66257   0.66178   0.00000  Uiso   1.00
H1261  H     0.08535   0.87003   0.33672   0.00000  Uiso   1.00
H1262  H     0.11804   0.83718   0.33807   0.00000  Uiso   1.00
H1263  H     0.29624   0.84150   0.71525   0.00000  Uiso   1.00
H1264  H     0.14380   0.53281   0.55278   0.00000  Uiso   1.00
H1265  H     0.29311   0.83798   0.76442   0.00000  Uiso   1.00
H1266  H     0.20373   0.65847   0.28482   0.00000  Uiso   1.00
H1267  H     0.20691   0.66204   0.23566   0.00000  Uiso   1.00
H1268  H     0.08459   0.86969   0.66335   0.00000  Uiso   1.00
H1269  H     0.11710   0.83666   0.66191   0.00000  Uiso   1.00
H1270  H     0.41545   0.63025   0.33666   0.00000  Uiso   1.00
H1271  H     0.38295   0.66329   0.33810   0.00000  Uiso   1.00
H1272  H     0.13621   0.59141   0.66081   0.00000  Uiso   1.00
H1273  H     0.16926   0.62385   0.66502   0.00000  Uiso   1.00
H1274  H     0.36325   0.90760   0.33958   0.00000  Uiso   1.00
H1275  H     0.17159   0.57086   0.55724   0.00000  Uiso   1.00
H1276  H     0.33012   0.87541   0.33440   0.00000  Uiso   1.00
H1277  H     0.40859   0.86379   0.33920   0.00000  Uiso   1.00
H1278  H     0.37614   0.83073   0.33498   0.00000  Uiso   1.00
H1279  H     0.09240   0.63674   0.66042   0.00000  Uiso   1.00
H1280  H     0.12458   0.66988   0.66559   0.00000  Uiso   1.00
H1281  H     0.37021   0.58503   0.33657   0.00000  Uiso   1.00
H1282  H     0.33744   0.61780   0.33822   0.00000  Uiso   1.00
H1283  H     0.12997   0.91464   0.66328   0.00000  Uiso   1.00
H1284  H     0.16282   0.88196   0.66193   0.00000  Uiso   1.00
H1285  H     0.15851   0.70377   0.28472   0.00000  Uiso   1.00
H1286  H     0.46723   0.85621   0.44722   0.00000  Uiso   1.00
H1287  H     0.16202   0.70689   0.23555   0.00000  Uiso   1.00
H1288  H     0.34153   0.79628   0.71515   0.00000  Uiso   1.00
H1289  H     0.33796   0.79308   0.76431   0.00000  Uiso   1.00
H1290  H     0.13031   0.91541   0.33665   0.00000  Uiso   1.00
H1291  H     0.16334   0.88290   0.33809   0.00000  Uiso   1.00
H1292  H     0.36975   0.58455   0.66333   0.00000  Uiso   1.00
H1293  H     0.33671   0.61706   0.66190   0.00000  Uiso   1.00
H1294  H     0.02599   0.81640   0.36863   0.00000  Uiso   1.00
H1295  H     0.01918   0.84324   0.41197   0.00000  Uiso   1.00
H1296  H     0.47200   0.88001   0.37643   0.00000  Uiso   1.00
N1297  N     0.04159   0.65819   0.45929   0.00000  Uiso   1.00
N1298  N     0.20914   0.59339   0.03900   0.00000  Uiso   1.00
N1299  N     0.08805   0.70069   0.95927   0.00000  Uiso   1.00
N1300  N     0.41116   0.80093   0.03850   0.00000  Uiso   1.00
N1301  N     0.19906   0.58883   0.96150   0.00000  Uiso   1.00
N1302  N     0.29931   0.91195   0.04072   0.00000  Uiso   1.00
N1303  N     0.40661   0.79085   0.96100   0.00000  Uiso   1.00
N1304  N     0.09178   0.70835   0.04071   0.00000  Uiso   1.00
N1305  N     0.15331   0.90162   0.17854   0.00000  Uiso   1.00
N1306  N     0.34687   0.59823   0.82146   0.00000  Uiso   1.00
N1307  N     0.05016   0.60529   0.24161   0.00000  Uiso   1.00
N1308  N     0.45923   0.84343   0.53901   0.00000  Uiso   1.00
N1309  N     0.44983   0.89471   0.75849   0.00000  Uiso   1.00
N1310  N     0.34612   0.59792   0.17856   0.00000  Uiso   1.00
N1311  N     0.15392   0.90203   0.82146   0.00000  Uiso   1.00
N1312  N     0.40689   0.85170   0.17878   0.00000  Uiso   1.00
N1313  N     0.09271   0.64773   0.82118   0.00000  Uiso   1.00
N1314  N     0.14830   0.59311   0.82122   0.00000  Uiso   1.00
N1315  N     0.35227   0.90729   0.17882   0.00000  Uiso   1.00
N1316  N     0.09838   0.84669   0.82146   0.00000  Uiso   1.00
N1317  N     0.40177   0.65313   0.17854   0.00000  Uiso   1.00
N1318  N     0.39471   0.94984   0.75842   0.00000  Uiso   1.00
N1319  N     0.33807   0.95073   0.45928   0.00000  Uiso   1.00
N1320  N     0.10529   0.55017   0.24153   0.00000  Uiso   1.00
N1321  N     0.40208   0.65388   0.82145   0.00000  Uiso   1.00
N1322  N     0.09797   0.84608   0.17854   0.00000  Uiso   1.00
N1323  N     0.40331   0.65162   0.67854   0.00000  Uiso   1.00
N1324  N     0.09687   0.84823   0.32146   0.00000  Uiso   1.00
N1325  N     0.30016   0.85529   0.74159   0.00000  Uiso   1.00
N1326  N     0.19983   0.64471   0.25847   0.00000  Uiso   1.00
N1327  N     0.09612   0.84791   0.67856   0.00000  Uiso   1.00
N1328  N     0.40392   0.65203   0.32146   0.00000  Uiso   1.00
N1329  N     0.15689   0.60170   0.67878   0.00000  Uiso   1.00
N1330  N     0.16112   0.55087   0.53850   0.00000  Uiso   1.00
N1331  N     0.34272   0.89773   0.32118   0.00000  Uiso   1.00
N1332  N     0.39830   0.84311   0.32123   0.00000  Uiso   1.00
N1333  N     0.10227   0.65728   0.67882   0.00000  Uiso   1.00
N1334  N     0.34838   0.59668   0.32146   0.00000  Uiso   1.00
N1335  N     0.15177   0.90313   0.67854   0.00000  Uiso   1.00
N1336  N     0.14471   0.69984   0.25839   0.00000  Uiso   1.00
N1337  N     0.35529   0.80017   0.74151   0.00000  Uiso   1.00
N1338  N     0.15208   0.90388   0.32144   0.00000  Uiso   1.00
N1339  N     0.34797   0.59608   0.67854   0.00000  Uiso   1.00
N1340  N     0.44916   0.83890   0.46151   0.00000  Uiso   1.00
N1341  N     0.04925   0.66192   0.54072   0.00000  Uiso   1.00
N1342  N     0.15659   0.54079   0.46099   0.00000  Uiso   1.00
N1343  N     0.34180   0.95840   0.54071   0.00000  Uiso   1.00
N1344  N     0.29164   0.90822   0.95929   0.00000  Uiso   1.00
O1345  O     0.25000   0.50000   0.25000   0.00000  Uiso   1.00
O1346  O     0.25000   0.96964   0.66245   0.00000  Uiso   1.00
O1347  O     0.46963   0.75000   0.33755   0.00000  Uiso   1.00
O1348  O     0.03036   0.75000   0.66245   0.00000  Uiso   1.00
O1349  O    -0.00000   0.71963   0.83755   0.00000  Uiso   1.00
O1350  O    -0.00000   0.78036   0.16245   0.00000  Uiso   1.00
O1351  O     0.28036   0.50000   0.83755   0.00000  Uiso   1.00
O1352  O     0.21963   0.50000   0.16245   0.00000  Uiso   1.00
O1353  O    -0.00000   0.78036   0.83755   0.00000  Uiso   1.00
O1354  O    -0.00000   0.71963   0.16245   0.00000  Uiso   1.00
O1355  O     0.21963   0.50000   0.83755   0.00000  Uiso   1.00
O1356  O     0.25000   0.50000   0.75000   0.00000  Uiso   1.00
O1357  O     0.28036   0.50000   0.16245   0.00000  Uiso   1.00
O1358  O     0.20724   0.57307   0.27302   0.00000  Uiso   1.00
O1359  O     0.29275   0.92692   0.72698   0.00000  Uiso   1.00
O1360  O     0.42692   0.70724   0.27302   0.00000  Uiso   1.00
O1361  O     0.07307   0.79276   0.72698   0.00000  Uiso   1.00
O1362  O     0.29275   0.92692   0.27302   0.00000  Uiso   1.00
O1363  O     0.20724   0.57307   0.72698   0.00000  Uiso   1.00
O1364  O     0.07307   0.79276   0.27302   0.00000  Uiso   1.00
O1365  O     0.42692   0.70724   0.72698   0.00000  Uiso   1.00
O1366  O     0.20724   0.92693   0.72698   0.00000  Uiso   1.00
O1367  O     0.00000   0.75000   0.25000   0.00000  Uiso   1.00
O1368  O     0.29275   0.57307   0.27302   0.00000  Uiso   1.00
O1369  O     0.42692   0.79275   0.72698   0.00000  Uiso   1.00
O1370  O     0.07307   0.70725   0.27302   0.00000  Uiso   1.00
O1371  O     0.29275   0.57307   0.72698   0.00000  Uiso   1.00
O1372  O     0.20724   0.92693   0.27302   0.00000  Uiso   1.00
O1373  O     0.07307   0.70725   0.72698   0.00000  Uiso   1.00
O1374  O     0.42692   0.79275   0.27302   0.00000  Uiso   1.00
O1375  O     0.45724   0.82307   0.77302   0.00000  Uiso   1.00
O1376  O     0.04275   0.67693   0.22698   0.00000  Uiso   1.00
O1377  O     0.17692   0.95725   0.77302   0.00000  Uiso   1.00
O1378  O    -0.00000   0.75000   0.75000   0.00000  Uiso   1.00
O1379  O     0.32307   0.54275   0.22698   0.00000  Uiso   1.00
O1380  O     0.04275   0.67693   0.77302   0.00000  Uiso   1.00
O1381  O     0.45724   0.82307   0.22698   0.00000  Uiso   1.00
O1382  O     0.32307   0.54275   0.77302   0.00000  Uiso   1.00
O1383  O     0.17692   0.95725   0.22698   0.00000  Uiso   1.00
O1384  O     0.45724   0.67692   0.22698   0.00000  Uiso   1.00
O1385  O     0.04275   0.82308   0.77302   0.00000  Uiso   1.00
O1386  O     0.17692   0.54275   0.22698   0.00000  Uiso   1.00
O1387  O     0.32307   0.95724   0.77302   0.00000  Uiso   1.00
O1388  O     0.04275   0.82308   0.22698   0.00000  Uiso   1.00
O1389  O     0.25000   0.96964   0.33755   0.00000  Uiso   1.00
O1390  O     0.45724   0.67692   0.77302   0.00000  Uiso   1.00
O1391  O     0.32307   0.95724   0.22698   0.00000  Uiso   1.00
O1392  O     0.17692   0.54275   0.77302   0.00000  Uiso   1.00
O1393  O     0.47501   0.81013   0.39581   0.00000  Uiso   1.00
O1394  O     0.02758   0.69146   0.60384   0.00000  Uiso   1.00
O1395  O     0.19934   0.54246   0.39732   0.00000  Uiso   1.00
O1396  O     0.30360   0.96204   0.60315   0.00000  Uiso   1.00
O1397  O     0.03796   0.69639   0.39685   0.00000  Uiso   1.00
O1398  O     0.45755   0.80067   0.60269   0.00000  Uiso   1.00
O1399  O     0.30854   0.97242   0.39616   0.00000  Uiso   1.00
O1400  O     0.25000   0.53036   0.66245   0.00000  Uiso   1.00
O1401  O     0.18988   0.52499   0.60419   0.00000  Uiso   1.00
O1402  O     0.22499   0.56011   0.89581   0.00000  Uiso   1.00
O1403  O     0.27760   0.94147   0.10384   0.00000  Uiso   1.00
O1404  O     0.44937   0.79250   0.89732   0.00000  Uiso   1.00
O1405  O     0.05359   0.71201   0.10315   0.00000  Uiso   1.00
O1406  O     0.28799   0.94641   0.89685   0.00000  Uiso   1.00
O1407  O     0.20750   0.55063   0.10268   0.00000  Uiso   1.00
O1408  O     0.05853   0.72240   0.89616   0.00000  Uiso   1.00
O1409  O     0.43989   0.77501   0.10419   0.00000  Uiso   1.00
O1410  O     0.03036   0.75000   0.33755   0.00000  Uiso   1.00
O1411  O     0.46963   0.75000   0.66245   0.00000  Uiso   1.00
O1412  O     0.25000   0.53036   0.33755   0.00000  Uiso   1.00
Zn1413 Zn    0.20659   0.50000   0.21735   0.00000  Uiso   1.00
Zn1414 Zn    0.04340   0.75000   0.28265   0.00000  Uiso   1.00
Zn1415 Zn    0.25000   0.95660   0.71735   0.00000  Uiso   1.00
Zn1416 Zn    0.25000   0.54340   0.28265   0.00000  Uiso   1.00
Zn1417 Zn    0.04340   0.75000   0.71735   0.00000  Uiso   1.00
Zn1418 Zn    0.45659   0.75000   0.28265   0.00000  Uiso   1.00
Zn1419 Zn    0.25000   0.54340   0.71735   0.00000  Uiso   1.00
Zn1420 Zn    0.25000   0.95660   0.28265   0.00000  Uiso   1.00
Zn1421 Zn    0.29340   0.50000   0.78265   0.00000  Uiso   1.00
Zn1422 Zn   -0.00000   0.70659   0.21735   0.00000  Uiso   1.00
Zn1423 Zn   -0.00000   0.79340   0.78265   0.00000  Uiso   1.00
Zn1424 Zn    0.29340   0.50000   0.21735   0.00000  Uiso   1.00
Zn1425 Zn    0.20659   0.50000   0.78265   0.00000  Uiso   1.00
Zn1426 Zn   -0.00000   0.79340   0.21735   0.00000  Uiso   1.00
Zn1427 Zn   -0.00000   0.70659   0.78265   0.00000  Uiso   1.00
Zn1428 Zn    0.45659   0.75000   0.71735   0.00000  Uiso   1.00
C1429  C     0.98699   0.78068   0.41754   0.00000  Uiso   1.00
C1430  C     0.76431   0.97047   0.08226   0.00000  Uiso   1.00
C1431  C     0.71935   0.51480   0.54136   0.00000  Uiso   1.00
C1432  C     0.98521   0.78066   0.45864   0.00000  Uiso   1.00
C1433  C     0.51525   0.72029   0.54117   0.00000  Uiso   1.00
C1434  C     0.72081   0.51748   0.45898   0.00000  Uiso   1.00
C1435  C     0.77887   0.98293   0.54105   0.00000  Uiso   1.00
C1436  C     0.76708   0.97114   0.95895   0.00000  Uiso   1.00
C1437  C     0.73250   0.52918   0.04102   0.00000  Uiso   1.00
C1438  C     0.52970   0.73473   0.95883   0.00000  Uiso   1.00
C1439  C     0.96936   0.76482   0.04136   0.00000  Uiso   1.00
C1440  C     0.73518   0.53064   0.95864   0.00000  Uiso   1.00
C1441  C     0.97312   0.77059   0.91817   0.00000  Uiso   1.00
C1442  C     0.76527   0.97030   0.04117   0.00000  Uiso   1.00
C1443  C     0.97082   0.76750   0.95898   0.00000  Uiso   1.00
C1444  C     0.52886   0.73292   0.04105   0.00000  Uiso   1.00
C1445  C     0.59820   0.84797   0.25001   0.00000  Uiso   1.00
C1446  C     0.90183   0.65201   0.74998   0.00000  Uiso   1.00
C1447  C     0.65189   0.59811   0.25000   0.00000  Uiso   1.00
C1448  C     0.84811   0.90189   0.75000   0.00000  Uiso   1.00
C1449  C     0.90203   0.65180   0.24999   0.00000  Uiso   1.00
C1450  C     0.59799   0.84817   0.75002   0.00000  Uiso   1.00
C1451  C     0.84811   0.90189   0.25000   0.00000  Uiso   1.00
C1452  C     0.52736   0.73067   0.08196   0.00000  Uiso   1.00
C1453  C     0.65192   0.59807   0.75000   0.00000  Uiso   1.00
C1454  C     0.59811   0.65189   0.75000   0.00000  Uiso   1.00
C1455  C     0.90193   0.84808   0.25000   0.00000  Uiso   1.00
C1456  C     0.65203   0.90180   0.74999   0.00000  Uiso   1.00
C1457  C     0.84799   0.59817   0.25002   0.00000  Uiso   1.00
C1458  C     0.90189   0.84811   0.75000   0.00000  Uiso   1.00
C1459  C     0.59811   0.65189   0.25000   0.00000  Uiso   1.00
C1460  C     0.84820   0.59797   0.75001   0.00000  Uiso   1.00
C1461  C     0.65183   0.90201   0.24998   0.00000  Uiso   1.00
C1462  C     0.50069   0.75069   0.47937   0.00000  Uiso   1.00
C1463  C     0.76933   0.97264   0.91804   0.00000  Uiso   1.00
C1464  C     0.99944   0.75003   0.52050   0.00000  Uiso   1.00
C1465  C     0.74997   0.50056   0.47950   0.00000  Uiso   1.00
C1466  C     0.74931   0.99931   0.52063   0.00000  Uiso   1.00
C1467  C     0.75069   0.50069   0.97937   0.00000  Uiso   1.00
C1468  C     0.74944   0.50003   0.02050   0.00000  Uiso   1.00
C1469  C     0.99997   0.75056   0.97950   0.00000  Uiso   1.00
C1470  C     0.99931   0.74931   0.02063   0.00000  Uiso   1.00
C1471  C     0.50545   0.83197   0.38559   0.00000  Uiso   1.00
C1472  C     0.99252   0.86352   0.36051   0.00000  Uiso   1.00
C1473  C     0.99830   0.66741   0.61199   0.00000  Uiso   1.00
C1474  C     0.72941   0.52688   0.08183   0.00000  Uiso   1.00
C1475  C     0.51195   0.63660   0.63764   0.00000  Uiso   1.00
C1476  C     0.71290   0.57873   0.39792   0.00000  Uiso   1.00
C1477  C     0.68756   0.60302   0.37430   0.00000  Uiso   1.00
C1478  C     0.79448   0.92444   0.60350   0.00000  Uiso   1.00
C1479  C     0.82328   0.90378   0.62653   0.00000  Uiso   1.00
C1480  C     0.57555   0.70551   0.39650   0.00000  Uiso   1.00
C1481  C     0.59621   0.67671   0.37346   0.00000  Uiso   1.00
C1482  C     0.92128   0.78711   0.60208   0.00000  Uiso   1.00
C1483  C     0.89699   0.81245   0.62570   0.00000  Uiso   1.00
C1484  C     0.83259   0.50170   0.38801   0.00000  Uiso   1.00
C1485  C     0.52953   0.73569   0.91774   0.00000  Uiso   1.00
C1486  C     0.86339   0.98805   0.36236   0.00000  Uiso   1.00
C1487  C     0.66803   0.99456   0.61440   0.00000  Uiso   1.00
C1488  C     0.63651   0.50748   0.63954   0.00000  Uiso   1.00
C1489  C     0.75541   0.58197   0.88562   0.00000  Uiso   1.00
C1490  C     0.74250   0.61345   0.86043   0.00000  Uiso   1.00
C1491  C     0.74832   0.91741   0.11198   0.00000  Uiso   1.00
C1492  C     0.76197   0.88660   0.13762   0.00000  Uiso   1.00
C1493  C     0.96295   0.82875   0.89792   0.00000  Uiso   1.00
C1494  C     0.93763   0.85306   0.87431   0.00000  Uiso   1.00
C1495  C     0.54445   0.67442   0.10349   0.00000  Uiso   1.00
C1496  C     0.96933   0.76303   0.08246   0.00000  Uiso   1.00
C1497  C     0.57323   0.65374   0.12653   0.00000  Uiso   1.00
C1498  C     0.82558   0.95555   0.89651   0.00000  Uiso   1.00
C1499  C     0.84626   0.92677   0.87346   0.00000  Uiso   1.00
C1500  C     0.67124   0.53704   0.10208   0.00000  Uiso   1.00
C1501  C     0.64694   0.56236   0.12569   0.00000  Uiso   1.00
C1502  C     0.58259   0.75168   0.88802   0.00000  Uiso   1.00
C1503  C     0.61340   0.73802   0.86239   0.00000  Uiso   1.00
C1504  C     0.91803   0.74458   0.11438   0.00000  Uiso   1.00
C1505  C     0.88653   0.75750   0.13955   0.00000  Uiso   1.00
C1506  C     0.50137   0.75046   0.39800   0.00000  Uiso   1.00
C1507  C     0.99868   0.74990   0.60192   0.00000  Uiso   1.00
C1508  C     0.75010   0.50132   0.39808   0.00000  Uiso   1.00
C1509  C     0.51430   0.72046   0.58226   0.00000  Uiso   1.00
C1510  C     0.74955   0.99864   0.60200   0.00000  Uiso   1.00
C1511  C     0.75136   0.50045   0.89800   0.00000  Uiso   1.00
C1512  C     0.74868   0.99990   0.10192   0.00000  Uiso   1.00
C1513  C     0.50010   0.75132   0.89808   0.00000  Uiso   1.00
C1514  C     0.99955   0.74863   0.10200   0.00000  Uiso   1.00
C1515  C     0.53039   0.69060   0.47966   0.00000  Uiso   1.00
C1516  C     0.96938   0.80984   0.52022   0.00000  Uiso   1.00
C1517  C     0.80892   0.96868   0.47956   0.00000  Uiso   1.00
C1518  C     0.69043   0.53137   0.52023   0.00000  Uiso   1.00
C1519  C     0.96864   0.80958   0.47977   0.00000  Uiso   1.00
C1520  C     0.72311   0.52057   0.41817   0.00000  Uiso   1.00
C1521  C     0.53131   0.69108   0.52044   0.00000  Uiso   1.00
C1522  C     0.69017   0.53063   0.47978   0.00000  Uiso   1.00
C1523  C     0.80939   0.96960   0.52034   0.00000  Uiso   1.00
C1524  C     0.78042   0.94062   0.97966   0.00000  Uiso   1.00
C1525  C     0.71932   0.55981   0.02022   0.00000  Uiso   1.00
C1526  C     0.55890   0.71865   0.97956   0.00000  Uiso   1.00
C1527  C     0.94046   0.78141   0.02023   0.00000  Uiso   1.00
C1528  C     0.71858   0.55954   0.97977   0.00000  Uiso   1.00
C1529  C     0.78135   0.94110   0.02044   0.00000  Uiso   1.00
C1530  C     0.94019   0.78067   0.97978   0.00000  Uiso   1.00
C1531  C     0.77737   0.98068   0.58196   0.00000  Uiso   1.00
C1532  C     0.55938   0.71958   0.02034   0.00000  Uiso   1.00
C1533  C     0.74940   0.50025   0.35578   0.00000  Uiso   1.00
C1534  C     0.75055   0.99976   0.64425   0.00000  Uiso   1.00
C1535  C     0.50024   0.74945   0.35575   0.00000  Uiso   1.00
C1536  C     0.99975   0.75060   0.64422   0.00000  Uiso   1.00
C1537  C     0.99940   0.75025   0.85578   0.00000  Uiso   1.00
C1538  C     0.50055   0.74976   0.14425   0.00000  Uiso   1.00
C1539  C     0.75024   0.99945   0.85575   0.00000  Uiso   1.00
C1540  C     0.74975   0.50060   0.14422   0.00000  Uiso   1.00
C1541  C     0.67996   0.57004   0.25000   0.00000  Uiso   1.00
C1542  C     0.51931   0.72263   0.41804   0.00000  Uiso   1.00
C1543  C     0.82004   0.92996   0.75000   0.00000  Uiso   1.00
C1544  C     0.93005   0.67995   0.24999   0.00000  Uiso   1.00
C1545  C     0.56996   0.82004   0.75001   0.00000  Uiso   1.00
C1546  C     0.82001   0.92999   0.25000   0.00000  Uiso   1.00
C1547  C     0.68001   0.56999   0.75000   0.00000  Uiso   1.00
C1548  C     0.57005   0.81995   0.25001   0.00000  Uiso   1.00
C1549  C     0.92996   0.68004   0.74999   0.00000  Uiso   1.00
C1550  C     0.68005   0.92995   0.74999   0.00000  Uiso   1.00
C1551  C     0.81996   0.57004   0.25001   0.00000  Uiso   1.00
C1552  C     0.92996   0.82004   0.75000   0.00000  Uiso   1.00
C1553  C     0.97944   0.77690   0.58183   0.00000  Uiso   1.00
C1554  C     0.57004   0.67996   0.25000   0.00000  Uiso   1.00
C1555  C     0.82005   0.56995   0.75001   0.00000  Uiso   1.00
C1556  C     0.67996   0.93004   0.24999   0.00000  Uiso   1.00
C1557  C     0.57001   0.67999   0.75000   0.00000  Uiso   1.00
C1558  C     0.93001   0.81999   0.25000   0.00000  Uiso   1.00
C1559  C     0.63846   0.88840   0.21441   0.00000  Uiso   1.00
C1560  C     0.86162   0.61154   0.78558   0.00000  Uiso   1.00
C1561  C     0.58802   0.61505   0.24527   0.00000  Uiso   1.00
C1562  C     0.91197   0.88495   0.75476   0.00000  Uiso   1.00
C1563  C     0.86124   0.61139   0.21443   0.00000  Uiso   1.00
C1564  C     0.77954   0.98570   0.41774   0.00000  Uiso   1.00
C1565  C     0.63879   0.88856   0.78558   0.00000  Uiso   1.00
C1566  C     0.89110   0.86400   0.21465   0.00000  Uiso   1.00
C1567  C     0.60886   0.63584   0.78534   0.00000  Uiso   1.00
C1568  C     0.63600   0.60891   0.78535   0.00000  Uiso   1.00
C1569  C     0.86416   0.89114   0.21466   0.00000  Uiso   1.00
C1570  C     0.61160   0.86154   0.78559   0.00000  Uiso   1.00
C1571  C     0.88845   0.63838   0.21442   0.00000  Uiso   1.00
C1572  C     0.88495   0.91198   0.75475   0.00000  Uiso   1.00
C1573  C     0.61505   0.58802   0.24525   0.00000  Uiso   1.00
C1574  C     0.88861   0.63876   0.78557   0.00000  Uiso   1.00
C1575  C     0.71932   0.51302   0.58246   0.00000  Uiso   1.00
C1576  C     0.61144   0.86121   0.21442   0.00000  Uiso   1.00
C1577  C     0.88846   0.63839   0.71441   0.00000  Uiso   1.00
C1578  C     0.61162   0.86155   0.28558   0.00000  Uiso   1.00
C1579  C     0.83802   0.86505   0.74526   0.00000  Uiso   1.00
C1580  C     0.66198   0.63495   0.25475   0.00000  Uiso   1.00
C1581  C     0.61124   0.86139   0.71443   0.00000  Uiso   1.00
C1582  C     0.88880   0.63856   0.28558   0.00000  Uiso   1.00
C1583  C     0.64109   0.61400   0.71465   0.00000  Uiso   1.00
C1584  C     0.85886   0.88584   0.28534   0.00000  Uiso   1.00
C1585  C     0.88600   0.85891   0.28535   0.00000  Uiso   1.00
C1586  C     0.73697   0.53067   0.91754   0.00000  Uiso   1.00
C1587  C     0.61416   0.64114   0.71466   0.00000  Uiso   1.00
C1588  C     0.86161   0.61154   0.28559   0.00000  Uiso   1.00
C1589  C     0.63846   0.88838   0.71442   0.00000  Uiso   1.00
C1590  C     0.63495   0.66198   0.25473   0.00000  Uiso   1.00
C1591  C     0.86505   0.83802   0.74524   0.00000  Uiso   1.00
C1592  C     0.63861   0.88876   0.28557   0.00000  Uiso   1.00
C1593  C     0.86144   0.61120   0.71442   0.00000  Uiso   1.00
C1594  C     0.51706   0.72113   0.45895   0.00000  Uiso   1.00
C1595  C     0.98252   0.77920   0.54102   0.00000  Uiso   1.00
C1596  C     0.77971   0.98474   0.45883   0.00000  Uiso   1.00
H1597  H     0.56868   0.65221   0.46633   0.00000  Uiso   1.00
H1598  H     0.92917   0.82844   0.44276   0.00000  Uiso   1.00
H1599  H     0.51603   0.88128   0.35298   0.00000  Uiso   1.00
H1600  H     0.98007   0.85284   0.33325   0.00000  Uiso   1.00
H1601  H     0.98703   0.65534   0.58471   0.00000  Uiso   1.00
H1602  H     0.97582   0.68147   0.62772   0.00000  Uiso   1.00
H1603  H     0.52248   0.64786   0.66553   0.00000  Uiso   1.00
H1604  H     0.98921   0.61745   0.64390   0.00000  Uiso   1.00
H1605  H     0.53406   0.62145   0.62266   0.00000  Uiso   1.00
H1606  H     0.74071   0.58045   0.38516   0.00000  Uiso   1.00
H1607  H     0.71439   0.58971   0.42810   0.00000  Uiso   1.00
H1608  H     0.65985   0.60318   0.38725   0.00000  Uiso   1.00
H1609  H     0.53662   0.63713   0.53376   0.00000  Uiso   1.00
H1610  H     0.69830   0.63138   0.37398   0.00000  Uiso   1.00
H1611  H     0.68562   0.59280   0.34398   0.00000  Uiso   1.00
H1612  H     0.79348   0.91280   0.57358   0.00000  Uiso   1.00
H1613  H     0.76749   0.91970   0.61727   0.00000  Uiso   1.00
H1614  H     0.82497   0.91470   0.65661   0.00000  Uiso   1.00
H1615  H     0.81605   0.87435   0.62773   0.00000  Uiso   1.00
H1616  H     0.85033   0.90672   0.61245   0.00000  Uiso   1.00
H1617  H     0.58719   0.70650   0.42642   0.00000  Uiso   1.00
H1618  H     0.58030   0.73250   0.38273   0.00000  Uiso   1.00
H1619  H     0.58528   0.67502   0.34338   0.00000  Uiso   1.00
H1620  H     0.57661   0.66099   0.53230   0.00000  Uiso   1.00
H1621  H     0.62564   0.68394   0.37227   0.00000  Uiso   1.00
H1622  H     0.59326   0.64965   0.38755   0.00000  Uiso   1.00
H1623  H     0.91956   0.75931   0.61484   0.00000  Uiso   1.00
H1624  H     0.91029   0.78562   0.57190   0.00000  Uiso   1.00
H1625  H     0.89683   0.84016   0.61275   0.00000  Uiso   1.00
H1626  H     0.86863   0.80172   0.62603   0.00000  Uiso   1.00
H1627  H     0.90722   0.81440   0.65602   0.00000  Uiso   1.00
H1628  H     0.84466   0.51296   0.41529   0.00000  Uiso   1.00
H1629  H     0.81853   0.52418   0.37229   0.00000  Uiso   1.00
H1630  H     0.85213   0.97752   0.33447   0.00000  Uiso   1.00
H1631  H     0.65894   0.56653   0.44850   0.00000  Uiso   1.00
H1632  H     0.88255   0.51079   0.35610   0.00000  Uiso   1.00
H1633  H     0.87855   0.96594   0.37734   0.00000  Uiso   1.00
H1634  H     0.68360   0.97399   0.63132   0.00000  Uiso   1.00
H1635  H     0.65672   0.98086   0.58802   0.00000  Uiso   1.00
H1636  H     0.62002   0.52802   0.62366   0.00000  Uiso   1.00
H1637  H     0.61875   0.98398   0.64705   0.00000  Uiso   1.00
H1638  H     0.64723   0.51989   0.66680   0.00000  Uiso   1.00
H1639  H     0.77601   0.56640   0.86874   0.00000  Uiso   1.00
H1640  H     0.76907   0.59331   0.91200   0.00000  Uiso   1.00
H1641  H     0.72191   0.62993   0.87626   0.00000  Uiso   1.00
H1642  H     0.64915   0.52104   0.44041   0.00000  Uiso   1.00
H1643  H     0.76599   0.63124   0.85295   0.00000  Uiso   1.00
H1644  H     0.73015   0.60271   0.83315   0.00000  Uiso   1.00
H1645  H     0.73706   0.90534   0.08469   0.00000  Uiso   1.00
H1646  H     0.72583   0.93146   0.12770   0.00000  Uiso   1.00
H1647  H     0.77250   0.89786   0.16552   0.00000  Uiso   1.00
H1648  H     0.73924   0.86744   0.14387   0.00000  Uiso   1.00
H1649  H     0.78409   0.87146   0.12265   0.00000  Uiso   1.00
H1650  H     0.99076   0.83045   0.88516   0.00000  Uiso   1.00
H1651  H     0.96445   0.83974   0.92810   0.00000  Uiso   1.00
H1652  H     0.90992   0.85324   0.88725   0.00000  Uiso   1.00
H1653  H     0.84778   0.93130   0.53367   0.00000  Uiso   1.00
H1654  H     0.94839   0.88141   0.87398   0.00000  Uiso   1.00
H1655  H     0.93568   0.84284   0.84398   0.00000  Uiso   1.00
H1656  H     0.54344   0.66278   0.07358   0.00000  Uiso   1.00
H1657  H     0.51745   0.66969   0.11727   0.00000  Uiso   1.00
H1658  H     0.57493   0.66466   0.15661   0.00000  Uiso   1.00
H1659  H     0.56599   0.62432   0.12772   0.00000  Uiso   1.00
H1660  H     0.60029   0.65667   0.11245   0.00000  Uiso   1.00
H1661  H     0.83721   0.95655   0.92642   0.00000  Uiso   1.00
H1662  H     0.83031   0.98255   0.88273   0.00000  Uiso   1.00
H1663  H     0.83533   0.92506   0.84339   0.00000  Uiso   1.00
H1664  H     0.86356   0.97505   0.53234   0.00000  Uiso   1.00
H1665  H     0.87568   0.93401   0.87227   0.00000  Uiso   1.00
H1666  H     0.84333   0.89970   0.88755   0.00000  Uiso   1.00
H1667  H     0.66955   0.50924   0.11484   0.00000  Uiso   1.00
H1668  H     0.66026   0.53554   0.07190   0.00000  Uiso   1.00
H1669  H     0.64676   0.59007   0.11275   0.00000  Uiso   1.00
H1670  H     0.61858   0.55161   0.12601   0.00000  Uiso   1.00
H1671  H     0.65715   0.56431   0.15602   0.00000  Uiso   1.00
H1672  H     0.59465   0.76294   0.91531   0.00000  Uiso   1.00
H1673  H     0.56854   0.77416   0.87229   0.00000  Uiso   1.00
H1674  H     0.60215   0.72749   0.83449   0.00000  Uiso   1.00
H1675  H     0.81874   0.90224   0.96634   0.00000  Uiso   1.00
H1676  H     0.63256   0.76076   0.85613   0.00000  Uiso   1.00
H1677  H     0.62855   0.71591   0.87737   0.00000  Uiso   1.00
H1678  H     0.93360   0.72400   0.13128   0.00000  Uiso   1.00
H1679  H     0.90671   0.73091   0.08800   0.00000  Uiso   1.00
H1680  H     0.87005   0.77807   0.12369   0.00000  Uiso   1.00
H1681  H     0.86875   0.73400   0.14704   0.00000  Uiso   1.00
H1682  H     0.89726   0.76987   0.16682   0.00000  Uiso   1.00
H1683  H     0.77500   0.88645   0.96766   0.00000  Uiso   1.00
H1684  H     0.68340   0.59101   0.05149   0.00000  Uiso   1.00
H1685  H     0.52493   0.63644   0.46766   0.00000  Uiso   1.00
H1686  H     0.72889   0.60084   0.05958   0.00000  Uiso   1.00
H1687  H     0.61284   0.71331   0.96624   0.00000  Uiso   1.00
H1688  H     0.58897   0.67334   0.96769   0.00000  Uiso   1.00
H1689  H     0.89382   0.78289   0.05278   0.00000  Uiso   1.00
H1690  H     0.92165   0.82090   0.05725   0.00000  Uiso   1.00
H1691  H     0.71710   0.60617   0.94721   0.00000  Uiso   1.00
H1692  H     0.67909   0.57834   0.94275   0.00000  Uiso   1.00
H1693  H     0.78669   0.88715   0.03376   0.00000  Uiso   1.00
H1694  H     0.82666   0.91103   0.03230   0.00000  Uiso   1.00
H1695  H     0.90898   0.81659   0.94851   0.00000  Uiso   1.00
H1696  H     0.93349   0.84107   0.55150   0.00000  Uiso   1.00
H1697  H     0.89916   0.77110   0.94042   0.00000  Uiso   1.00
H1698  H     0.59775   0.68125   0.03366   0.00000  Uiso   1.00
H1699  H     0.61355   0.72499   0.03234   0.00000  Uiso   1.00
H1700  H     0.66497   0.87980   0.16343   0.00000  Uiso   1.00
H1701  H     0.63219   0.91257   0.16178   0.00000  Uiso   1.00
H1702  H     0.83535   0.62003   0.83672   0.00000  Uiso   1.00
H1703  H     0.86804   0.58718   0.83807   0.00000  Uiso   1.00
H1704  H     0.54623   0.59150   0.21528   0.00000  Uiso   1.00
H1705  H     0.54311   0.58798   0.26445   0.00000  Uiso   1.00
H1706  H     0.95372   0.90847   0.78485   0.00000  Uiso   1.00
H1707  H     0.97898   0.85086   0.55959   0.00000  Uiso   1.00
H1708  H     0.95692   0.91204   0.73569   0.00000  Uiso   1.00
H1709  H     0.83458   0.61969   0.16335   0.00000  Uiso   1.00
H1710  H     0.86709   0.58666   0.16191   0.00000  Uiso   1.00
H1711  H     0.66544   0.88025   0.83667   0.00000  Uiso   1.00
H1712  H     0.63294   0.91329   0.83810   0.00000  Uiso   1.00
H1713  H     0.88622   0.84141   0.16081   0.00000  Uiso   1.00
H1714  H     0.91927   0.87386   0.16503   0.00000  Uiso   1.00
H1715  H     0.61325   0.65759   0.83958   0.00000  Uiso   1.00
H1716  H     0.58012   0.62541   0.83440   0.00000  Uiso   1.00
H1717  H     0.65859   0.61378   0.83919   0.00000  Uiso   1.00
H1718  H     0.86286   0.96336   0.46624   0.00000  Uiso   1.00
H1719  H     0.62614   0.58073   0.83497   0.00000  Uiso   1.00
H1720  H     0.84241   0.88675   0.16042   0.00000  Uiso   1.00
H1721  H     0.87459   0.91989   0.16560   0.00000  Uiso   1.00
H1722  H     0.62020   0.83503   0.83657   0.00000  Uiso   1.00
H1723  H     0.58743   0.86781   0.83822   0.00000  Uiso   1.00
H1724  H     0.87996   0.66465   0.16328   0.00000  Uiso   1.00
H1725  H     0.91282   0.63196   0.16193   0.00000  Uiso   1.00
H1726  H     0.90850   0.95376   0.78475   0.00000  Uiso   1.00
H1727  H     0.91202   0.95689   0.73558   0.00000  Uiso   1.00
H1728  H     0.59152   0.54627   0.21518   0.00000  Uiso   1.00
H1729  H     0.83900   0.92337   0.46770   0.00000  Uiso   1.00
H1730  H     0.58796   0.54309   0.26435   0.00000  Uiso   1.00
H1731  H     0.88031   0.66541   0.83665   0.00000  Uiso   1.00
H1732  H     0.91334   0.63290   0.83809   0.00000  Uiso   1.00
H1733  H     0.61975   0.83456   0.16333   0.00000  Uiso   1.00
H1734  H     0.58671   0.86706   0.16190   0.00000  Uiso   1.00
H1735  H     0.91497   0.62980   0.66343   0.00000  Uiso   1.00
H1736  H     0.88219   0.66257   0.66178   0.00000  Uiso   1.00
H1737  H     0.58535   0.87003   0.33672   0.00000  Uiso   1.00
H1738  H     0.61804   0.83718   0.33807   0.00000  Uiso   1.00
H1739  H     0.79624   0.84150   0.71525   0.00000  Uiso   1.00
H1740  H     0.64380   0.53281   0.55278   0.00000  Uiso   1.00
H1741  H     0.79311   0.83798   0.76442   0.00000  Uiso   1.00
H1742  H     0.70373   0.65847   0.28482   0.00000  Uiso   1.00
H1743  H     0.70691   0.66204   0.23566   0.00000  Uiso   1.00
H1744  H     0.58459   0.86969   0.66335   0.00000  Uiso   1.00
H1745  H     0.61710   0.83666   0.66191   0.00000  Uiso   1.00
H1746  H     0.91545   0.63025   0.33666   0.00000  Uiso   1.00
H1747  H     0.88295   0.66329   0.33810   0.00000  Uiso   1.00
H1748  H     0.63621   0.59141   0.66081   0.00000  Uiso   1.00
H1749  H     0.66926   0.62385   0.66502   0.00000  Uiso   1.00
H1750  H     0.86325   0.90760   0.33958   0.00000  Uiso   1.00
H1751  H     0.67159   0.57086   0.55724   0.00000  Uiso   1.00
H1752  H     0.83012   0.87541   0.33440   0.00000  Uiso   1.00
H1753  H     0.90859   0.86379   0.33920   0.00000  Uiso   1.00
H1754  H     0.87614   0.83073   0.33498   0.00000  Uiso   1.00
H1755  H     0.59240   0.63674   0.66042   0.00000  Uiso   1.00
H1756  H     0.62458   0.66988   0.66559   0.00000  Uiso   1.00
H1757  H     0.87021   0.58503   0.33657   0.00000  Uiso   1.00
H1758  H     0.83744   0.61780   0.33822   0.00000  Uiso   1.00
H1759  H     0.62997   0.91464   0.66328   0.00000  Uiso   1.00
H1760  H     0.66282   0.88196   0.66193   0.00000  Uiso   1.00
H1761  H     0.65851   0.70377   0.28472   0.00000  Uiso   1.00
H1762  H     0.96723   0.85621   0.44722   0.00000  Uiso   1.00
H1763  H     0.66202   0.70689   0.23555   0.00000  Uiso   1.00
H1764  H     0.84153   0.79628   0.71515   0.00000  Uiso   1.00
H1765  H     0.83796   0.79308   0.76431   0.00000  Uiso   1.00
H1766  H     0.63031   0.91541   0.33665   0.00000  Uiso   1.00
H1767  H     0.66334   0.88290   0.33809   0.00000  Uiso   1.00
H1768  H     0.86975   0.58455   0.66333   0.00000  Uiso   1.00
H1769  H     0.83671   0.61706   0.66190   0.00000  Uiso   1.00
H1770  H     0.52599   0.81640   0.36863   0.00000  Uiso   1.00
H1771  H     0.51918   0.84324   0.41197   0.00000  Uiso   1.00
H1772  H     0.97200   0.88001   0.37643   0.00000  Uiso   1.00
N1773  N     0.54159   0.65819   0.45929   0.00000  Uiso   1.00
N1774  N     0.70914   0.59339   0.03900   0.00000  Uiso   1.00
N1775  N     0.58805   0.70069   0.95927   0.00000  Uiso   1.00
N1776  N     0.91116   0.80093   0.03850   0.00000  Uiso   1.00
N1777  N     0.69906   0.58883   0.96150   0.00000  Uiso   1.00
N1778  N     0.79931   0.91195   0.04072   0.00000  Uiso   1.00
N1779  N     0.90661   0.79085   0.96100   0.00000  Uiso   1.00
N1780  N     0.59178   0.70835   0.04071   0.00000  Uiso   1.00
N1781  N     0.65331   0.90162   0.17854   0.00000  Uiso   1.00
N1782  N     0.84687   0.59823   0.82146   0.00000  Uiso   1.00
N1783  N     0.55016   0.60529   0.24161   0.00000  Uiso   1.00
N1784  N     0.95923   0.84343   0.53901   0.00000  Uiso   1.00
N1785  N     0.94983   0.89471   0.75849   0.00000  Uiso   1.00
N1786  N     0.84612   0.59792   0.17856   0.00000  Uiso   1.00
N1787  N     0.65392   0.90203   0.82146   0.00000  Uiso   1.00
N1788  N     0.90689   0.85170   0.17878   0.00000  Uiso   1.00
N1789  N     0.59271   0.64773   0.82118   0.00000  Uiso   1.00
N1790  N     0.64830   0.59311   0.82122   0.00000  Uiso   1.00
N1791  N     0.85227   0.90729   0.17882   0.00000  Uiso   1.00
N1792  N     0.59838   0.84669   0.82146   0.00000  Uiso   1.00
N1793  N     0.90177   0.65313   0.17854   0.00000  Uiso   1.00
N1794  N     0.89471   0.94984   0.75842   0.00000  Uiso   1.00
N1795  N     0.83807   0.95073   0.45928   0.00000  Uiso   1.00
N1796  N     0.60529   0.55017   0.24153   0.00000  Uiso   1.00
N1797  N     0.90208   0.65388   0.82145   0.00000  Uiso   1.00
N1798  N     0.59797   0.84608   0.17854   0.00000  Uiso   1.00
N1799  N     0.90331   0.65162   0.67854   0.00000  Uiso   1.00
N1800  N     0.59687   0.84823   0.32146   0.00000  Uiso   1.00
N1801  N     0.80016   0.85529   0.74159   0.00000  Uiso   1.00
N1802  N     0.69983   0.64471   0.25847   0.00000  Uiso   1.00
N1803  N     0.59612   0.84791   0.67856   0.00000  Uiso   1.00
N1804  N     0.90392   0.65203   0.32146   0.00000  Uiso   1.00
N1805  N     0.65689   0.60170   0.67878   0.00000  Uiso   1.00
N1806  N     0.66112   0.55087   0.53850   0.00000  Uiso   1.00
N1807  N     0.84272   0.89773   0.32118   0.00000  Uiso   1.00
N1808  N     0.89830   0.84311   0.32123   0.00000  Uiso   1.00
N1809  N     0.60227   0.65728   0.67882   0.00000  Uiso   1.00
N1810  N     0.84838   0.59668   0.32146   0.00000  Uiso   1.00
N1811  N     0.65177   0.90313   0.67854   0.00000  Uiso   1.00
N1812  N     0.64471   0.69984   0.25839   0.00000  Uiso   1.00
N1813  N     0.85529   0.80017   0.74151   0.00000  Uiso   1.00
N1814  N     0.65208   0.90388   0.32144   0.00000  Uiso   1.00
N1815  N     0.84797   0.59608   0.67854   0.00000  Uiso   1.00
N1816  N     0.94916   0.83890   0.46151   0.00000  Uiso   1.00
N1817  N     0.54925   0.66192   0.54072   0.00000  Uiso   1.00
N1818  N     0.65659   0.54079   0.46099   0.00000  Uiso   1.00
N1819  N     0.84180   0.95840   0.54071   0.00000  Uiso   1.00
N1820  N     0.79164   0.90822   0.95929   0.00000  Uiso   1.00
O1821  O     0.75000   0.50000   0.25000   0.00000  Uiso   1.00
O1822  O     0.75000   0.96964   0.66245   0.00000  Uiso   1.00
O1823  O     0.96963   0.75000   0.33755   0.00000  Uiso   1.00
O1824  O     0.53036   0.75000   0.66245   0.00000  Uiso   1.00
O1825  O     0.50000   0.71963   0.83755   0.00000  Uiso   1.00
O1826  O     0.50000   0.78036   0.16245   0.00000  Uiso   1.00
O1827  O     0.78036   0.50000   0.83755   0.00000  Uiso   1.00
O1828  O     0.71963   0.50000   0.16245   0.00000  Uiso   1.00
O1829  O     0.50000   0.78036   0.83755   0.00000  Uiso   1.00
O1830  O     0.50000   0.71963   0.16245   0.00000  Uiso   1.00
O1831  O     0.71963   0.50000   0.83755   0.00000  Uiso   1.00
O1832  O     0.75000   0.50000   0.75000   0.00000  Uiso   1.00
O1833  O     0.78036   0.50000   0.16245   0.00000  Uiso   1.00
O1834  O     0.70724   0.57307   0.27302   0.00000  Uiso   1.00
O1835  O     0.79275   0.92692   0.72698   0.00000  Uiso   1.00
O1836  O     0.92692   0.70724   0.27302   0.00000  Uiso   1.00
O1837  O     0.57307   0.79276   0.72698   0.00000  Uiso   1.00
O1838  O     0.79275   0.92692   0.27302   0.00000  Uiso   1.00
O1839  O     0.70724   0.57307   0.72698   0.00000  Uiso   1.00
O1840  O     0.57307   0.79276   0.27302   0.00000  Uiso   1.00
O1841  O     0.92692   0.70724   0.72698   0.00000  Uiso   1.00
O1842  O     0.70724   0.92693   0.72698   0.00000  Uiso   1.00
O1843  O     0.50000   0.75000   0.25000   0.00000  Uiso   1.00
O1844  O     0.79275   0.57307   0.27302   0.00000  Uiso   1.00
O1845  O     0.92692   0.79275   0.72698   0.00000  Uiso   1.00
O1846  O     0.57307   0.70725   0.27302   0.00000  Uiso   1.00
O1847  O     0.79275   0.57307   0.72698   0.00000  Uiso   1.00
O1848  O     0.70724   0.92693   0.27302   0.00000  Uiso   1.00
O1849  O     0.57307   0.70725   0.72698   0.00000  Uiso   1.00
O1850  O     0.92692   0.79275   0.27302   0.00000  Uiso   1.00
O1851  O     0.95724   0.82307   0.77302   0.00000  Uiso   1.00
O1852  O     0.54275   0.67693   0.22698   0.00000  Uiso   1.00
O1853  O     0.67692   0.95725   0.77302   0.00000  Uiso   1.00
O1854  O     0.50000   0.75000   0.75000   0.00000  Uiso   1.00
O1855  O     0.82307   0.54275   0.22698   0.00000  Uiso   1.00
O1856  O     0.54275   0.67693   0.77302   0.00000  Uiso   1.00
O1857  O     0.95724   0.82307   0.22698   0.00000  Uiso   1.00
O1858  O     0.82307   0.54275   0.77302   0.00000  Uiso   1.00
O1859  O     0.67692   0.95725   0.22698   0.00000  Uiso   1.00
O1860  O     0.95724   0.67692   0.22698   0.00000  Uiso   1.00
O1861  O     0.54275   0.82308   0.77302   0.00000  Uiso   1.00
O1862  O     0.67692   0.54275   0.22698   0.00000  Uiso   1.00
O1863  O     0.82307   0.95724   0.77302   0.00000  Uiso   1.00
O1864  O     0.54275   0.82308   0.22698   0.00000  Uiso   1.00
O1865  O     0.75000   0.96964   0.33755   0.00000  Uiso   1.00
O1866  O     0.95724   0.67692   0.77302   0.00000  Uiso   1.00
O1867  O     0.82307   0.95724   0.22698   0.00000  Uiso   1.00
O1868  O     0.67692   0.54275   0.77302   0.00000  Uiso   1.00
O1869  O     0.97501   0.81013   0.39581   0.00000  Uiso   1.00
O1870  O     0.52758   0.69146   0.60384   0.00000  Uiso   1.00
O1871  O     0.69934   0.54246   0.39732   0.00000  Uiso   1.00
O1872  O     0.80360   0.96204   0.60315   0.00000  Uiso   1.00
O1873  O     0.53796   0.69639   0.39685   0.00000  Uiso   1.00
O1874  O     0.95755   0.80067   0.60269   0.00000  Uiso   1.00
O1875  O     0.80854   0.97242   0.39616   0.00000  Uiso   1.00
O1876  O     0.75000   0.53036   0.66245   0.00000  Uiso   1.00
O1877  O     0.68988   0.52499   0.60419   0.00000  Uiso   1.00
O1878  O     0.72499   0.56011   0.89581   0.00000  Uiso   1.00
O1879  O     0.77760   0.94147   0.10384   0.00000  Uiso   1.00
O1880  O     0.94937   0.79250   0.89732   0.00000  Uiso   1.00
O1881  O     0.55359   0.71201   0.10315   0.00000  Uiso   1.00
O1882  O     0.78799   0.94641   0.89685   0.00000  Uiso   1.00
O1883  O     0.70750   0.55063   0.10268   0.00000  Uiso   1.00
O1884  O     0.55853   0.72240   0.89616   0.00000  Uiso   1.00
O1885  O     0.93989   0.77501   0.10419   0.00000  Uiso   1.00
O1886  O     0.53036   0.75000   0.33755   0.00000  Uiso   1.00
O1887  O     0.96963   0.75000   0.66245   0.00000  Uiso   1.00
O1888  O     0.75000   0.53036   0.33755   0.00000  Uiso   1.00
Zn1889 Zn    0.70659   0.50000   0.21735   0.00000  Uiso   1.00
Zn1890 Zn    0.54340   0.75000   0.28265   0.00000  Uiso   1.00
Zn1891 Zn    0.75000   0.95660   0.71735   0.00000  Uiso   1.00
Zn1892 Zn    0.75000   0.54340   0.28265   0.00000  Uiso   1.00
Zn1893 Zn    0.54340   0.75000   0.71735   0.00000  Uiso   1.00
Zn1894 Zn    0.95659   0.75000   0.28265   0.00000  Uiso   1.00
Zn1895 Zn    0.75000   0.54340   0.71735   0.00000  Uiso   1.00
Zn1896 Zn    0.75000   0.95660   0.28265   0.00000  Uiso   1.00
Zn1897 Zn    0.79340   0.50000   0.78265   0.00000  Uiso   1.00
Zn1898 Zn    0.50000   0.70659   0.21735   0.00000  Uiso   1.00
Zn1899 Zn    0.50000   0.79340   0.78265   0.00000  Uiso   1.00
Zn1900 Zn    0.79340   0.50000   0.21735   0.00000  Uiso   1.00
Zn1901 Zn    0.70659   0.50000   0.78265   0.00000  Uiso   1.00
Zn1902 Zn    0.50000   0.79340   0.21735   0.00000  Uiso   1.00
Zn1903 Zn    0.50000   0.70659   0.78265   0.00000  Uiso   1.00
Zn1904 Zn    0.95659   0.75000   0.71735   0.00000  Uiso   1.00
loop_
_geom_bond_atom_site_label_1
_geom_bond_atom_site_label_2
_geom_bond_distance
_geom_bond_site_symmetry_2
_ccdc_geom_bond_type
C1     O441    1.386   .     S
C1     C4      1.416   .     A
C1     C554    1.398   .     S
C2     C14     1.415   .     A
C2     O451    1.387   .     S
C2     C84     1.396   .     A
C3     C147    1.416   .     A
C3     C90     1.421   .     A
C3     C990    1.429   1_545 S
C4     C91     1.421   .     A
C4     C510    1.429   .     S
C5     C81     1.415   .     A
C5     C93     1.414   .     A
C5     C512    1.426   1_455 S
C6     C92     1.413   .     A
C6     C94     1.418   .     A
C6     C37     1.423   .     A
C7     C103    1.412   .     A
C7     C95     1.415   .     A
C7     C38     1.424   .     A
C8     C35     1.412   .     A
C8     C96     1.415   .     A
C8     C991    1.424   .     S
C9     C46     1.413   .     A
C9     C97     1.418   .     A
C9     C40     1.423   .     A
C10    C98     1.414   .     A
C10    C57     1.415   .     A
C10    C517    1.426   1_455 S
C11    C99     1.421   .     A
C11    C68     1.416   .     A
C11    C42     1.429   .     A
C12    C158    1.416   .     A
C12    C39     1.429   .     A
C12    C100    1.421   .     A
C13    C15     1.413   .     A
C13    O452    1.385   .     S
C13    C561    1.399   .     S
C14    C101    1.414   .     A
C14    C992    1.426   .     S
C15    C41     1.423   .     A
C15    C102    1.418   .     A
C16    C104    1.415   .     A
C16    C24     1.412   .     A
C16    C518    1.424   1_455 S
C17    C120    1.454   .     S
C17    C148    1.407   .     A
C17    C150    1.406   .     A
C18    C121    1.454   .     S
C18    C149    1.406   .     A
C18    C146    1.407   .     A
C19    C113    1.456   .     S
C19    C145    1.407   .     A
C19    C152    1.407   .     A
C20    C144    1.407   .     A
C20    C151    1.407   .     A
C20    C115    1.456   .     S
C21    C116    1.454   .     S
C21    C154    1.407   .     A
C21    C143    1.406   .     A
C22    C142    1.406   .     A
C22    C153    1.407   .     A
C22    C117    1.454   .     S
C23    C118    1.458   .     S
C23    C156    1.408   .     A
C23    C141    1.408   .     A
C24    O453    1.387   .     S
C24    C562    1.397   1_455 S
C25    C119    1.457   .     S
C25    C140    1.408   .     A
C25    C155    1.408   .     A
C26    C139    1.408   .     A
C26    C159    1.408   .     A
C26    C129    1.458   .     S
C27    C138    1.408   .     A
C27    C157    1.408   .     A
C27    C130    1.457   .     S
C28    C137    1.407   .     A
C28    C161    1.406   .     A
C28    C122    1.454   .     S
C29    C135    1.407   .     A
C29    C160    1.406   .     A
C29    C123    1.454   .     S
C30    C134    1.407   .     A
C30    C163    1.407   .     A
C30    C124    1.456   .     S
C31    C162    1.407   .     A
C31    C133    1.407   .     A
C31    C126    1.456   .     S
C32    C127    1.454   .     S
C32    C165    1.407   .     A
C32    C132    1.406   .     A
C33    C164    1.407   .     A
C33    C131    1.406   .     A
C33    C128    1.454   .     S
C34    C166    1.424   .     A
C34    C480    1.429   1_455 S
C34    C512    1.417   1_455 S
C35    O454    1.387   .     S
C35    C1035   1.397   .     S
C36    C167    1.423   .     A
C36    C481    1.426   .     S
C36    C510    1.417   .     S
C37    C990    1.417   1_545 S
C37    C1120   1.426   1_545 S
C38    C955    1.429   .     S
C38    C989    1.417   .     S
C39    C960    1.424   1_545 S
C39    C40     1.417   1_556 S
C40    C966    1.426   1_545 S
C40    C39     1.417   1_554 S
C41    C486    1.426   .     S
C41    C42     1.417   1_556 S
C42    C492    1.424   .     S
C42    C41     1.417   1_554 S
C43    H342    1.112   .     S
C43    H343    1.114   .     S
C43    C520    1.521   1_455 S
C43    O917    1.417   1_455 S
C44    H172    1.111   .     S
C44    H344    1.111   .     S
C44    C519    1.521   .     S
C44    H647    1.110   .     S
C45    H173    1.114   .     S
C45    H174    1.113   .     S
C45    C523    1.520   .     S
C45    O918    1.417   .     S
C46    O455    1.385   .     S
C46    C1036   1.399   1_545 S
C47    H175    1.111   .     S
C47    H177    1.111   .     S
C47    C521    1.520   1_455 S
C47    H652    1.111   1_455 S
C48    O443    1.418   .     S
C48    H178    1.113   .     S
C48    C49     1.522   .     S
C48    H179    1.114   .     S
C49    H183    1.109   .     S
C49    H180    1.110   .     S
C49    H182    1.110   .     S
C50    H184    1.113   .     S
C50    O444    1.417   .     S
C50    C51     1.522   .     S
C50    H185    1.112   .     S
C51    H188    1.111   .     S
C51    H187    1.111   .     S
C51    H186    1.110   .     S
C52    H189    1.113   .     S
C52    C53     1.522   .     S
C52    O445    1.417   .     S
C52    H190    1.112   .     S
C53    H194    1.111   .     S
C53    H193    1.111   .     S
C53    H191    1.110   .     S
C54    O446    1.418   .     S
C54    H196    1.114   .     S
C54    C55     1.522   .     S
C54    H195    1.113   .     S
C55    H199    1.109   .     S
C55    H197    1.110   .     S
C55    H198    1.110   .     S
C56    H200    1.114   .     S
C56    H201    1.113   .     S
C56    C1010   1.520   1_545 S
C56    O1399   1.417   1_545 S
C57    C85     1.396   .     A
C57    O456    1.387   .     S
C58    H205    1.111   .     S
C58    H202    1.111   .     S
C58    C1008   1.520   .     S
C58    H1156   1.110   .     S
C59    H206    1.111   .     S
C59    H207    1.113   .     S
C59    C1012   1.521   .     S
C59    O1401   1.417   .     S
C60    H208    1.110   .     S
C60    H210    1.111   .     S
C60    C1011   1.521   1_545 S
C60    H1161   1.110   1_545 S
C61    H212    1.113   .     S
C61    O450    1.417   .     S
C61    C62     1.521   .     S
C61    H211    1.112   .     S
C62    H215    1.110   .     S
C62    H213    1.110   .     S
C62    H216    1.111   .     S
C63    H217    1.114   .     S
C63    O451    1.417   .     S
C63    C64     1.520   .     S
C63    H218    1.113   .     S
C64    H219    1.111   .     S
C64    H220    1.110   .     S
C64    H221    1.111   .     S
C65    H223    1.113   .     S
C65    H222    1.113   .     S
C65    O452    1.418   .     S
C65    C66     1.522   .     S
C66    H227    1.109   .     S
C66    H226    1.110   .     S
C66    H224    1.110   .     S
C67    O453    1.417   .     S
C67    H229    1.112   .     S
C67    C69     1.522   .     S
C67    H228    1.113   .     S
C68    O457    1.386   .     S
C68    C86     1.398   .     A
C69    H231    1.111   .     S
C69    H232    1.111   .     S
C69    H230    1.110   .     S
C70    H233    1.113   .     S
C70    C71     1.522   .     S
C70    O454    1.417   .     S
C70    H234    1.112   .     S
C71    H235    1.110   .     S
C71    H238    1.111   .     S
C71    H237    1.111   .     S
C72    C73     1.522   .     S
C72    H239    1.113   .     S
C72    O455    1.418   .     S
C72    H240    1.114   .     S
C73    H242    1.110   .     S
C73    H241    1.110   .     S
C73    H243    1.109   .     S
C74    H244    1.114   .     S
C74    H245    1.113   .     S
C74    O456    1.417   .     S
C74    C75     1.520   .     S
C75    H248    1.110   .     S
C75    H246    1.111   .     S
C75    H249    1.111   .     S
C76    H250    1.112   .     S
C76    O457    1.417   .     S
C76    H251    1.113   .     S
C76    C77     1.521   .     S
C77    H253    1.110   .     S
C77    H252    1.110   .     S
C77    H254    1.111   .     S
C78    C114    1.397   .     A
C78    C107    1.455   .     S
C78    C477    1.398   1_455 S
C79    C108    1.456   .     S
C79    C125    1.399   .     A
C79    C557    1.396   .     S
C80    C92     1.399   .     A
C80    C105    1.456   .     S
C80    C1088   1.396   1_545 S
C81    O442    1.387   .     S
C81    C555    1.396   1_455 S
C82    C106    1.455   .     S
C82    C103    1.397   .     A
C82    C1099   1.398   .     S
C83    C158    1.398   .     A
C83    C987    1.397   1_545 S
C83    C1063   1.455   1_545 S
C84    C998    1.399   .     S
C84    C1064   1.456   .     S
C85    C489    1.399   1_455 S
C85    C585    1.456   1_455 S
C86    C500    1.397   .     S
C86    C586    1.455   .     S
C87    C93     1.404   .     A
C87    C166    1.415   .     A
C87    N345    1.438   .     S
C88    N356    1.438   .     S
C88    C91     1.392   .     A
C88    C167    1.418   .     A
C89    N367    1.437   .     S
C89    C95     1.404   .     A
C89    C168    1.414   .     A
C90    N378    1.437   .     S
C90    C94     1.392   .     A
C91    N388    1.437   .     S
C92    O443    1.385   .     S
C93    N389    1.437   .     S
C94    N390    1.438   .     S
C95    N391    1.438   .     S
C96    N392    1.438   .     S
C96    C101    1.404   1_556 S
C97    N346    1.438   .     S
C97    C100    1.392   1_554 S
C98    N347    1.437   .     S
C98    C104    1.404   1_556 S
C99    N348    1.437   .     S
C99    C102    1.392   1_554 S
C100   N349    1.437   .     S
C100   C97     1.392   1_556 S
C101   N350    1.437   .     S
C101   C96     1.404   1_554 S
C102   N351    1.438   .     S
C102   C99     1.392   1_556 S
C103   O444    1.387   .     S
C104   N352    1.438   .     S
C104   C98     1.404   1_554 S
C105   O460    1.272   .     A
C105   O1389   1.283   1_545 S
C106   O394    1.272   .     A
C106   O1400   1.282   .     S
C107   O458    1.272   .     A
C107   O871    1.282   1_455 S
C108   O459    1.272   .     A
C108   O872    1.283   .     S
C109   O877    1.272   .     A
C109   O873    1.283   .     A
C109   C561    1.456   .     S
C110   C562    1.455   1_455 S
C110   O398    1.282   .     S
C110   O402    1.272   .     S
C111   C1035   1.455   .     S
C111   O1351   1.272   .     S
C111   O1355   1.282   .     S
C112   O400    1.272   .     A
C112   O405    1.283   .     A
C112   C1036   1.456   1_545 S
C113   O406    1.277   .     A
C113   O434    1.277   .     A
C114   O445    1.387   .     S
C114   C166    1.412   .     A
C115   O435    1.277   .     A
C115   O407    1.277   .     A
C116   O408    1.279   .     A
C116   O432    1.280   .     A
C117   O433    1.280   .     A
C117   O409    1.279   .     A
C118   O410    1.282   .     A
C118   O439    1.282   .     A
C119   O411    1.282   .     A
C119   O440    1.282   .     A
C120   O436    1.279   .     A
C120   O412    1.280   .     A
C121   O413    1.280   .     A
C121   O438    1.279   .     A
C122   O425    1.279   .     A
C122   O414    1.280   .     A
C123   O427    1.279   .     A
C123   O416    1.280   .     A
C124   O423    1.277   .     A
C124   O417    1.277   .     A
C125   C167    1.413   .     A
C125   O446    1.385   .     S
C126   O418    1.277   .     A
C126   O424    1.277   .     A
C127   O419    1.279   .     A
C127   O430    1.280   .     A
C128   O431    1.280   .     A
C128   O420    1.279   .     A
C129   O428    1.282   .     A
C129   O421    1.282   .     A
C130   O422    1.282   .     A
C130   O429    1.282   .     A
C131   N353    1.437   .     S
C131   C148    1.403   .     A
C132   N354    1.437   .     S
C132   C146    1.403   .     A
C133   C145    1.402   .     A
C133   N355    1.437   .     S
C134   C144    1.402   .     A
C134   N357    1.437   .     S
C135   N358    1.436   .     S
C135   C143    1.403   .     A
C136   O447    1.387   .     S
C136   C168    1.415   .     A
C136   C1032   1.396   .     S
C137   N359    1.436   .     S
C137   C142    1.403   .     A
C138   C141    1.402   .     A
C138   N360    1.437   .     S
C139   C140    1.402   .     A
C139   N361    1.437   .     S
C140   N362    1.437   .     S
C141   N363    1.437   .     S
C142   N364    1.437   .     S
C143   N365    1.437   .     S
C144   N366    1.437   .     S
C145   N368    1.437   .     S
C146   N369    1.437   .     S
C147   O449    1.386   .     S
C147   C1034   1.398   1_545 S
C148   N370    1.436   .     S
C149   N371    1.437   .     S
C149   C165    1.403   .     A
C150   N372    1.437   .     S
C150   C164    1.403   .     A
C151   C163    1.402   .     A
C151   N373    1.437   .     S
C152   N374    1.437   .     S
C152   C162    1.402   .     A
C153   C161    1.403   .     A
C153   N375    1.436   .     S
C154   N376    1.436   .     S
C154   C160    1.403   .     A
C155   C159    1.402   .     A
C155   N377    1.437   .     S
C156   C157    1.402   .     A
C156   N379    1.437   .     S
C157   N380    1.437   .     S
C158   O450    1.386   .     S
C159   N381    1.437   .     S
C160   N382    1.437   .     S
C161   N383    1.437   .     S
C162   N384    1.437   .     S
C163   N385    1.437   .     S
C164   N386    1.436   .     S
C165   N387    1.436   .     S
C168   C989    1.426   .     S
H169   N345    1.045   .     S
H170   N388    1.045   .     S
H171   C520    1.110   1_455 S
H176   C523    1.111   .     S
H181   N389    1.045   .     S
H192   N389    1.045   .     S
H203   N390    1.042   .     S
H204   C1010   1.110   1_545 S
H209   C1012   1.110   .     S
H214   N390    1.045   .     S
H225   N391    1.045   .     S
H236   N391    1.045   .     S
H247   N392    1.045   .     S
H255   N392    1.045   .     S
H256   N346    1.042   .     S
H257   N345    1.045   .     S
H258   N346    1.045   .     S
H259   N347    1.045   .     S
H260   N347    1.045   .     S
H261   N348    1.042   .     S
H262   N348    1.045   .     S
H263   N349    1.042   .     S
H264   N349    1.045   .     S
H265   N350    1.045   .     S
H266   N350    1.045   .     S
H267   N351    1.042   .     S
H268   N356    1.042   .     S
H269   N351    1.045   .     S
H270   N352    1.045   .     S
H271   N352    1.045   .     S
H272   N353    1.045   .     S
H273   N353    1.045   .     S
H274   N354    1.045   .     S
H275   N354    1.045   .     S
H276   N355    1.045   .     S
H277   N355    1.045   .     S
H278   N357    1.045   .     S
H279   N356    1.045   .     S
H280   N357    1.045   .     S
H281   N358    1.045   .     S
H282   N358    1.045   .     S
H283   N359    1.045   .     S
H284   N359    1.045   .     S
H285   N360    1.045   .     S
H286   N360    1.045   .     S
H287   N361    1.044   .     S
H288   N361    1.045   .     S
H289   N362    1.045   .     S
H290   N367    1.045   .     S
H291   N362    1.045   .     S
H292   N363    1.044   .     S
H293   N363    1.045   .     S
H294   N364    1.045   .     S
H295   N364    1.045   .     S
H296   N365    1.045   .     S
H297   N365    1.045   .     S
H298   N366    1.045   .     S
H299   N366    1.045   .     S
H300   N368    1.045   .     S
H301   N367    1.045   .     S
H302   N368    1.045   .     S
H303   N369    1.045   .     S
H304   N369    1.045   .     S
H305   N370    1.045   .     S
H306   N370    1.045   .     S
H307   N371    1.045   .     S
H308   N371    1.045   .     S
H309   N372    1.045   .     S
H310   N372    1.045   .     S
H311   N373    1.045   .     S
H312   N378    1.042   .     S
H313   N373    1.045   .     S
H314   N374    1.045   .     S
H315   N374    1.045   .     S
H316   N375    1.045   .     S
H317   N375    1.045   .     S
H318   N376    1.045   .     S
H319   N376    1.045   .     S
H320   N377    1.045   .     S
H321   N377    1.045   .     S
H322   N379    1.044   .     S
H323   N378    1.045   .     S
H324   N379    1.045   .     S
H325   N380    1.045   .     S
H326   N380    1.045   .     S
H327   N381    1.044   .     S
H328   N381    1.045   .     S
H329   N382    1.045   .     S
H330   N382    1.045   .     S
H331   N383    1.045   .     S
H332   N383    1.045   .     S
H333   N384    1.045   .     S
H334   N388    1.042   .     S
H335   N384    1.045   .     S
H336   N385    1.045   .     S
H337   N385    1.045   .     S
H338   N386    1.045   .     S
H339   N386    1.045   .     S
H340   N387    1.045   .     S
H341   N387    1.045   .     S
O393   Zn461   1.943   .     S
O393   Zn464   1.943   .     S
O393   Zn472   1.951   .     S
O393   Zn1420  1.951   1_545 S
O394   Zn463   1.951   .     S
O395   Zn466   1.947   .     S
O395   C583    1.282   .     S
O396   Zn465   1.947   .     S
O396   C584    1.283   1_455 S
O397   Zn475   1.947   .     S
O397   C585    1.283   1_455 A
O398   Zn474   1.947   .     S
O399   Zn469   1.951   .     S
O399   C1063   1.272   1_545 S
O400   Zn461   1.951   .     S
O401   Zn471   1.951   .     S
O401   C585    1.272   1_455 A
O402   Zn470   1.951   .     S
O403   Zn473   1.947   .     S
O403   C1063   1.282   1_545 S
O404   Zn467   1.951   .     S
O404   Zn469   1.943   .     S
O404   Zn473   1.951   .     S
O404   Zn1415  1.943   1_545 S
O405   Zn472   1.947   .     S
O406   Zn464   1.937   .     S
O407   Zn463   1.937   .     S
O408   Zn466   1.932   .     S
O409   Zn465   1.932   .     S
O410   Zn468   1.937   .     S
O411   Zn467   1.937   .     S
O412   Zn462   1.935   .     S
O413   Zn476   1.935   .     S
O414   Zn463   1.935   .     S
O415   Zn462   1.943   .     S
O415   Zn942   1.951   1_455 S
O415   Zn470   1.943   .     S
O415   Zn474   1.951   .     S
O416   Zn464   1.935   .     S
O417   Zn476   1.937   .     S
O418   Zn462   1.937   .     S
O419   Zn467   1.932   .     S
O420   Zn468   1.932   .     S
O421   Zn465   1.937   .     S
O422   Zn466   1.937   .     S
O423   Zn947   1.937   .     S
O424   Zn470   1.937   .     S
O425   Zn1425  1.932   .     S
O426   Zn952   1.943   1_455 S
O426   Zn471   1.943   .     S
O426   Zn475   1.951   .     S
O426   Zn465   1.951   .     S
O427   Zn472   1.932   .     S
O428   Zn475   1.937   .     S
O429   Zn950   1.937   .     S
O430   Zn469   1.935   .     S
O431   Zn1413  1.935   .     S
O432   Zn946   1.935   .     S
O433   Zn471   1.935   .     S
O434   Zn461   1.937   .     S
O435   Zn1421  1.937   .     S
O436   Zn474   1.932   .     S
O437   Zn468   1.947   .     S
O437   C1057   1.283   .     S
O438   Zn951   1.932   .     S
O439   Zn1424  1.937   .     S
O440   Zn473   1.937   .     S
O441   C519    1.417   .     S
O442   C521    1.417   1_455 S
O447   C1008   1.417   .     S
O448   Zn467   1.947   .     S
O448   C1058   1.282   1_545 S
O449   C1011   1.417   1_545 S
O458   Zn462   1.951   .     S
O459   Zn476   1.951   .     S
O460   Zn464   1.951   .     S
Zn461  O1383   1.935   1_545 S
Zn463  O1356   1.943   .     S
Zn466  O891    1.951   .     S
Zn468  O1345   1.951   .     S
Zn469  O1387   1.937   1_545 S
Zn470  O908    1.935   1_455 S
Zn471  O899    1.937   1_455 S
Zn472  O1391   1.937   1_545 S
Zn473  O1377   1.932   1_545 S
Zn474  O905    1.937   1_455 S
Zn475  O914    1.932   1_455 S
Zn476  O902    1.943   .     S
C477   O917    1.386   .     S
C477   C480    1.416   .     A
C477   C78     1.398   1_655 S
C478   C490    1.415   .     A
C478   O927    1.387   .     S
C478   C560    1.396   .     A
C479   C623    1.416   .     A
C479   C566    1.421   .     A
C479   C1466   1.429   1_545 S
C480   C567    1.421   .     A
C480   C34     1.429   1_655 S
C481   C557    1.415   .     A
C481   C569    1.414   .     A
C482   C568    1.413   .     A
C482   C570    1.418   .     A
C482   C513    1.423   .     A
C483   C579    1.412   .     A
C483   C571    1.415   .     A
C483   C514    1.424   .     A
C484   C511    1.412   .     A
C484   C572    1.415   .     A
C484   C1467   1.424   .     S
C485   C522    1.413   .     A
C485   C573    1.418   .     A
C485   C516    1.423   .     A
C486   C574    1.414   .     A
C486   C533    1.415   .     A
C487   C575    1.421   .     A
C487   C544    1.416   .     A
C487   C518    1.429   .     A
C488   C634    1.416   .     A
C488   C515    1.429   .     A
C488   C576    1.421   .     A
C489   C491    1.413   .     A
C489   O928    1.385   .     S
C489   C85     1.399   1_655 S
C490   C577    1.414   .     A
C490   C1468   1.426   .     S
C491   C517    1.423   .     A
C491   C578    1.418   .     A
C492   C580    1.415   .     A
C492   C500    1.412   .     A
C493   C596    1.454   .     S
C493   C624    1.407   .     A
C493   C626    1.406   .     A
C494   C597    1.454   .     S
C494   C625    1.406   .     A
C494   C622    1.407   .     A
C495   C589    1.456   .     S
C495   C621    1.407   .     A
C495   C628    1.407   .     A
C496   C620    1.407   .     A
C496   C627    1.407   .     A
C496   C591    1.456   .     S
C497   C592    1.454   .     S
C497   C630    1.407   .     A
C497   C619    1.406   .     A
C498   C618    1.406   .     A
C498   C629    1.407   .     A
C498   C593    1.454   .     S
C499   C594    1.458   .     S
C499   C632    1.408   .     A
C499   C617    1.408   .     A
C500   O929    1.387   .     S
C501   C595    1.457   .     S
C501   C616    1.408   .     A
C501   C631    1.408   .     A
C502   C615    1.408   .     A
C502   C635    1.408   .     A
C502   C605    1.458   .     S
C503   C614    1.408   .     A
C503   C633    1.408   .     A
C503   C606    1.457   .     S
C504   C613    1.407   .     A
C504   C637    1.406   .     A
C504   C598    1.454   .     S
C505   C611    1.407   .     A
C505   C636    1.406   .     A
C505   C599    1.454   .     S
C506   C610    1.407   .     A
C506   C639    1.407   .     A
C506   C600    1.456   .     S
C507   C638    1.407   .     A
C507   C609    1.407   .     A
C507   C602    1.456   .     S
C508   C603    1.454   .     S
C508   C641    1.407   .     A
C508   C608    1.406   .     A
C509   C640    1.407   .     A
C509   C607    1.406   .     A
C509   C604    1.454   .     S
C510   C642    1.424   .     A
C511   O930    1.387   .     S
C511   C1511   1.397   .     S
C512   C643    1.423   .     A
C512   C5      1.426   1_655 S
C512   C34     1.417   1_655 S
C513   C1466   1.417   1_545 S
C513   C1596   1.426   1_545 S
C514   C1431   1.429   .     S
C514   C1465   1.417   .     S
C515   C1436   1.424   1_545 S
C515   C516    1.417   1_556 S
C516   C1442   1.426   1_545 S
C516   C515    1.417   1_554 S
C517   C10     1.426   1_655 S
C517   C518    1.417   1_556 S
C518   C16     1.424   1_655 S
C518   C517    1.417   1_554 S
C519   H818    1.112   .     S
C519   H819    1.114   .     S
C520   H648    1.111   .     S
C520   H820    1.111   .     S
C520   C43     1.521   1_655 S
C520   H171    1.110   1_655 S
C521   H649    1.114   .     S
C521   H650    1.113   .     S
C521   C47     1.520   1_655 S
C521   O442    1.417   1_655 S
C522   O931    1.385   .     S
C522   C1512   1.399   1_545 S
C523   H651    1.111   .     S
C523   H653    1.111   .     S
C524   O919    1.418   .     S
C524   H654    1.113   .     S
C524   C525    1.522   .     S
C524   H655    1.114   .     S
C525   H659    1.109   .     S
C525   H656    1.110   .     S
C525   H658    1.110   .     S
C526   H660    1.113   .     S
C526   O920    1.417   .     S
C526   C527    1.522   .     S
C526   H661    1.112   .     S
C527   H664    1.111   .     S
C527   H663    1.111   .     S
C527   H662    1.110   .     S
C528   H665    1.113   .     S
C528   C529    1.522   .     S
C528   O921    1.417   .     S
C528   H666    1.112   .     S
C529   H670    1.111   .     S
C529   H669    1.111   .     S
C529   H667    1.110   .     S
C530   O922    1.418   .     S
C530   H672    1.114   .     S
C530   C531    1.522   .     S
C530   H671    1.113   .     S
C531   H675    1.109   .     S
C531   H673    1.110   .     S
C531   H674    1.110   .     S
C532   H676    1.114   .     S
C532   H677    1.113   .     S
C532   C1486   1.520   1_545 S
C532   O1875   1.417   1_545 S
C533   C561    1.396   .     A
C533   O932    1.387   .     S
C534   H681    1.111   .     S
C534   H678    1.111   .     S
C534   C1484   1.520   .     S
C534   H1632   1.110   .     S
C535   H682    1.111   .     S
C535   H683    1.113   .     S
C535   C1488   1.521   .     S
C535   O1877   1.417   .     S
C536   H684    1.110   .     S
C536   H686    1.111   .     S
C536   C1487   1.521   1_545 S
C536   H1637   1.110   1_545 S
C537   H688    1.113   .     S
C537   O926    1.417   .     S
C537   C538    1.521   .     S
C537   H687    1.112   .     S
C538   H691    1.110   .     S
C538   H689    1.110   .     S
C538   H692    1.111   .     S
C539   H693    1.114   .     S
C539   O927    1.417   .     S
C539   C540    1.520   .     S
C539   H694    1.113   .     S
C540   H695    1.111   .     S
C540   H696    1.110   .     S
C540   H697    1.111   .     S
C541   H699    1.113   .     S
C541   H698    1.113   .     S
C541   O928    1.418   .     S
C541   C542    1.522   .     S
C542   H703    1.109   .     S
C542   H702    1.110   .     S
C542   H700    1.110   .     S
C543   O929    1.417   .     S
C543   H705    1.112   .     S
C543   C545    1.522   .     S
C543   H704    1.113   .     S
C544   O933    1.386   .     S
C544   C562    1.398   .     A
C545   H707    1.111   .     S
C545   H708    1.111   .     S
C545   H706    1.110   .     S
C546   H709    1.113   .     S
C546   C547    1.522   .     S
C546   O930    1.417   .     S
C546   H710    1.112   .     S
C547   H711    1.110   .     S
C547   H714    1.111   .     S
C547   H713    1.111   .     S
C548   C549    1.522   .     S
C548   H715    1.113   .     S
C548   O931    1.418   .     S
C548   H716    1.114   .     S
C549   H718    1.110   .     S
C549   H717    1.110   .     S
C549   H719    1.109   .     S
C550   H720    1.114   .     S
C550   H721    1.113   .     S
C550   O932    1.417   .     S
C550   C551    1.520   .     S
C551   H724    1.110   .     S
C551   H722    1.111   .     S
C551   H725    1.111   .     S
C552   H726    1.112   .     S
C552   O933    1.417   .     S
C552   H727    1.113   .     S
C552   C553    1.521   .     S
C553   H729    1.110   .     S
C553   H728    1.110   .     S
C553   H730    1.111   .     S
C554   C590    1.397   .     A
C554   C583    1.455   .     S
C555   C584    1.456   .     S
C555   C601    1.399   .     A
C555   C81     1.396   1_655 S
C556   C568    1.399   .     A
C556   C581    1.456   .     S
C556   C1564   1.396   1_545 S
C557   O918    1.387   .     S
C558   C582    1.455   .     S
C558   C579    1.397   .     A
C558   C1575   1.398   .     S
C559   C634    1.398   .     A
C559   C1463   1.397   1_545 S
C559   C1539   1.455   1_545 S
C560   C1474   1.399   .     S
C560   C1540   1.456   .     S
C562   C24     1.397   1_655 S
C562   C110    1.455   1_655 S
C563   C569    1.404   .     A
C563   C642    1.415   .     A
C563   N821    1.438   .     S
C564   N832    1.438   .     S
C564   C567    1.392   .     A
C564   C643    1.418   .     A
C565   N843    1.437   .     S
C565   C571    1.404   .     A
C565   C644    1.414   .     A
C566   N854    1.437   .     S
C566   C570    1.392   .     A
C567   N864    1.437   .     S
C568   O919    1.385   .     S
C569   N865    1.437   .     S
C570   N866    1.438   .     S
C571   N867    1.438   .     S
C572   N868    1.438   .     S
C572   C577    1.404   1_556 S
C573   N822    1.438   .     S
C573   C576    1.392   1_554 S
C574   N823    1.437   .     S
C574   C580    1.404   1_556 S
C575   N824    1.437   .     S
C575   C578    1.392   1_554 S
C576   N825    1.437   .     S
C576   C573    1.392   1_556 S
C577   N826    1.437   .     S
C577   C572    1.404   1_554 S
C578   N827    1.438   .     S
C578   C575    1.392   1_556 S
C579   O920    1.387   .     S
C580   N828    1.438   .     S
C580   C574    1.404   1_554 S
C581   O936    1.272   .     A
C581   O1865   1.283   1_545 S
C582   O870    1.272   .     A
C582   O1876   1.282   .     S
C583   O934    1.272   .     A
C584   O935    1.272   .     A
C584   O396    1.283   1_655 S
C585   O401    1.272   1_655 A
C585   O397    1.283   1_655 A
C585   C85     1.456   1_655 S
C586   O874    1.282   .     S
C586   O878    1.272   .     S
C587   C1511   1.455   .     S
C587   O1827   1.272   .     S
C587   O1831   1.282   .     S
C588   O876    1.272   .     A
C588   O881    1.283   .     A
C588   C1512   1.456   1_545 S
C589   O882    1.277   .     A
C589   O910    1.277   .     A
C590   O921    1.387   .     S
C590   C642    1.412   .     A
C591   O911    1.277   .     A
C591   O883    1.277   .     A
C592   O884    1.279   .     A
C592   O908    1.280   .     A
C593   O909    1.280   .     A
C593   O885    1.279   .     A
C594   O886    1.282   .     A
C594   O915    1.282   .     A
C595   O887    1.282   .     A
C595   O916    1.282   .     A
C596   O912    1.279   .     A
C596   O888    1.280   .     A
C597   O889    1.280   .     A
C597   O914    1.279   .     A
C598   O901    1.279   .     A
C598   O890    1.280   .     A
C599   O903    1.279   .     A
C599   O892    1.280   .     A
C600   O899    1.277   .     A
C600   O893    1.277   .     A
C601   C643    1.413   .     A
C601   O922    1.385   .     S
C602   O894    1.277   .     A
C602   O900    1.277   .     A
C603   O895    1.279   .     A
C603   O906    1.280   .     A
C604   O907    1.280   .     A
C604   O896    1.279   .     A
C605   O904    1.282   .     A
C605   O897    1.282   .     A
C606   O898    1.282   .     A
C606   O905    1.282   .     A
C607   N829    1.437   .     S
C607   C624    1.403   .     A
C608   N830    1.437   .     S
C608   C622    1.403   .     A
C609   C621    1.402   .     A
C609   N831    1.437   .     S
C610   C620    1.402   .     A
C610   N833    1.437   .     S
C611   N834    1.436   .     S
C611   C619    1.403   .     A
C612   O923    1.387   .     S
C612   C644    1.415   .     A
C612   C1508   1.396   .     S
C613   N835    1.436   .     S
C613   C618    1.403   .     A
C614   C617    1.402   .     A
C614   N836    1.437   .     S
C615   C616    1.402   .     A
C615   N837    1.437   .     S
C616   N838    1.437   .     S
C617   N839    1.437   .     S
C618   N840    1.437   .     S
C619   N841    1.437   .     S
C620   N842    1.437   .     S
C621   N844    1.437   .     S
C622   N845    1.437   .     S
C623   O925    1.386   .     S
C623   C1510   1.398   1_545 S
C624   N846    1.436   .     S
C625   N847    1.437   .     S
C625   C641    1.403   .     A
C626   N848    1.437   .     S
C626   C640    1.403   .     A
C627   C639    1.402   .     A
C627   N849    1.437   .     S
C628   N850    1.437   .     S
C628   C638    1.402   .     A
C629   C637    1.403   .     A
C629   N851    1.436   .     S
C630   N852    1.436   .     S
C630   C636    1.403   .     A
C631   C635    1.402   .     A
C631   N853    1.437   .     S
C632   C633    1.402   .     A
C632   N855    1.437   .     S
C633   N856    1.437   .     S
C634   O926    1.386   .     S
C635   N857    1.437   .     S
C636   N858    1.437   .     S
C637   N859    1.437   .     S
C638   N860    1.437   .     S
C639   N861    1.437   .     S
C640   N862    1.436   .     S
C641   N863    1.436   .     S
C644   C1465   1.426   .     S
H645   N821    1.045   .     S
H646   N864    1.045   .     S
H652   C47     1.111   1_655 S
H657   N865    1.045   .     S
H668   N865    1.045   .     S
H679   N866    1.042   .     S
H680   C1486   1.110   1_545 S
H685   C1488   1.110   .     S
H690   N866    1.045   .     S
H701   N867    1.045   .     S
H712   N867    1.045   .     S
H723   N868    1.045   .     S
H731   N868    1.045   .     S
H732   N822    1.042   .     S
H733   N821    1.045   .     S
H734   N822    1.045   .     S
H735   N823    1.045   .     S
H736   N823    1.045   .     S
H737   N824    1.042   .     S
H738   N824    1.045   .     S
H739   N825    1.042   .     S
H740   N825    1.045   .     S
H741   N826    1.045   .     S
H742   N826    1.045   .     S
H743   N827    1.042   .     S
H744   N832    1.042   .     S
H745   N827    1.045   .     S
H746   N828    1.045   .     S
H747   N828    1.045   .     S
H748   N829    1.045   .     S
H749   N829    1.045   .     S
H750   N830    1.045   .     S
H751   N830    1.045   .     S
H752   N831    1.045   .     S
H753   N831    1.045   .     S
H754   N833    1.045   .     S
H755   N832    1.045   .     S
H756   N833    1.045   .     S
H757   N834    1.045   .     S
H758   N834    1.045   .     S
H759   N835    1.045   .     S
H760   N835    1.045   .     S
H761   N836    1.045   .     S
H762   N836    1.045   .     S
H763   N837    1.044   .     S
H764   N837    1.045   .     S
H765   N838    1.045   .     S
H766   N843    1.045   .     S
H767   N838    1.045   .     S
H768   N839    1.044   .     S
H769   N839    1.045   .     S
H770   N840    1.045   .     S
H771   N840    1.045   .     S
H772   N841    1.045   .     S
H773   N841    1.045   .     S
H774   N842    1.045   .     S
H775   N842    1.045   .     S
H776   N844    1.045   .     S
H777   N843    1.045   .     S
H778   N844    1.045   .     S
H779   N845    1.045   .     S
H780   N845    1.045   .     S
H781   N846    1.045   .     S
H782   N846    1.045   .     S
H783   N847    1.045   .     S
H784   N847    1.045   .     S
H785   N848    1.045   .     S
H786   N848    1.045   .     S
H787   N849    1.045   .     S
H788   N854    1.042   .     S
H789   N849    1.045   .     S
H790   N850    1.045   .     S
H791   N850    1.045   .     S
H792   N851    1.045   .     S
H793   N851    1.045   .     S
H794   N852    1.045   .     S
H795   N852    1.045   .     S
H796   N853    1.045   .     S
H797   N853    1.045   .     S
H798   N855    1.044   .     S
H799   N854    1.045   .     S
H800   N855    1.045   .     S
H801   N856    1.045   .     S
H802   N856    1.045   .     S
H803   N857    1.044   .     S
H804   N857    1.045   .     S
H805   N858    1.045   .     S
H806   N858    1.045   .     S
H807   N859    1.045   .     S
H808   N859    1.045   .     S
H809   N860    1.045   .     S
H810   N864    1.042   .     S
H811   N860    1.045   .     S
H812   N861    1.045   .     S
H813   N861    1.045   .     S
H814   N862    1.045   .     S
H815   N862    1.045   .     S
H816   N863    1.045   .     S
H817   N863    1.045   .     S
O869   Zn937   1.943   .     S
O869   Zn940   1.943   .     S
O869   Zn948   1.951   .     S
O869   Zn1896  1.951   1_545 S
O870   Zn939   1.951   .     S
O871   Zn942   1.947   .     S
O871   C107    1.282   1_655 S
O872   Zn941   1.947   .     S
O873   Zn951   1.947   .     S
O874   Zn950   1.947   .     S
O875   Zn945   1.951   .     S
O875   C1539   1.272   1_545 S
O876   Zn937   1.951   .     S
O877   Zn947   1.951   .     S
O878   Zn946   1.951   .     S
O879   Zn949   1.947   .     S
O879   C1539   1.282   1_545 S
O880   Zn943   1.951   .     S
O880   Zn945   1.943   .     S
O880   Zn949   1.951   .     S
O880   Zn1891  1.943   1_545 S
O881   Zn948   1.947   .     S
O882   Zn940   1.937   .     S
O883   Zn939   1.937   .     S
O884   Zn942   1.932   .     S
O885   Zn941   1.932   .     S
O886   Zn944   1.937   .     S
O887   Zn943   1.937   .     S
O888   Zn938   1.935   .     S
O889   Zn952   1.935   .     S
O890   Zn939   1.935   .     S
O891   Zn938   1.943   .     S
O891   Zn946   1.943   .     S
O891   Zn950   1.951   .     S
O892   Zn940   1.935   .     S
O893   Zn952   1.937   .     S
O894   Zn938   1.937   .     S
O895   Zn943   1.932   .     S
O896   Zn944   1.932   .     S
O897   Zn941   1.937   .     S
O898   Zn942   1.937   .     S
O899   Zn471   1.937   1_655 S
O900   Zn946   1.937   .     S
O901   Zn1901  1.932   .     S
O902   Zn947   1.943   .     S
O902   Zn951   1.951   .     S
O902   Zn941   1.951   .     S
O903   Zn948   1.932   .     S
O904   Zn951   1.937   .     S
O905   Zn474   1.937   1_655 S
O906   Zn945   1.935   .     S
O907   Zn1889  1.935   .     S
O908   Zn470   1.935   1_655 S
O909   Zn947   1.935   .     S
O910   Zn937   1.937   .     S
O911   Zn1897  1.937   .     S
O912   Zn950   1.932   .     S
O913   Zn944   1.947   .     S
O913   C1533   1.283   .     S
O914   Zn475   1.932   1_655 S
O915   Zn1900  1.937   .     S
O916   Zn949   1.937   .     S
O917   C43     1.417   1_655 S
O923   C1484   1.417   .     S
O924   Zn943   1.947   .     S
O924   C1534   1.282   1_545 S
O925   C1487   1.417   1_545 S
O934   Zn938   1.951   .     S
O935   Zn952   1.951   .     S
O936   Zn940   1.951   .     S
Zn937  O1859   1.935   1_545 S
Zn939  O1832   1.943   .     S
Zn942  O415    1.951   1_655 S
Zn944  O1821   1.951   .     S
Zn945  O1863   1.937   1_545 S
Zn948  O1867   1.937   1_545 S
Zn949  O1853   1.932   1_545 S
Zn952  O426    1.943   1_655 S
C953   O1393   1.386   .     S
C953   C956    1.416   .     A
C953   C1506   1.398   .     S
C954   C966    1.415   .     A
C954   O1403   1.387   .     S
C954   C1036   1.396   .     A
C955   C1099   1.416   .     A
C955   C1042   1.421   .     A
C956   C1043   1.421   .     A
C956   C1462   1.429   .     S
C957   C1033   1.415   .     A
C957   C1045   1.414   .     A
C957   C1464   1.426   1_455 S
C958   C1044   1.413   .     A
C958   C1046   1.418   .     A
C958   C989    1.423   .     A
C959   C1055   1.412   .     A
C959   C1047   1.415   .     A
C959   C990    1.424   .     A
C960   C987    1.412   .     A
C960   C1048   1.415   .     A
C960   C39     1.424   1_565 S
C961   C998    1.413   .     A
C961   C1049   1.418   .     A
C961   C992    1.423   .     A
C962   C1050   1.414   .     A
C962   C1009   1.415   .     A
C962   C1469   1.426   1_455 S
C963   C1051   1.421   .     A
C963   C1020   1.416   .     A
C963   C994    1.429   .     A
C964   C1110   1.416   .     A
C964   C991    1.429   .     A
C964   C1052   1.421   .     A
C965   C967    1.413   .     A
C965   O1404   1.385   .     S
C965   C1513   1.399   .     S
C966   C1053   1.414   .     A
C966   C40     1.426   1_565 S
C967   C993    1.423   .     A
C967   C1054   1.418   .     A
C968   C1056   1.415   .     A
C968   C976    1.412   .     A
C968   C1470   1.424   1_455 S
C969   C1072   1.454   .     S
C969   C1100   1.407   .     A
C969   C1102   1.406   .     A
C970   C1073   1.454   .     S
C970   C1101   1.406   .     A
C970   C1098   1.407   .     A
C971   C1065   1.456   .     S
C971   C1097   1.407   .     A
C971   C1104   1.407   .     A
C972   C1096   1.407   .     A
C972   C1103   1.407   .     A
C972   C1067   1.456   .     S
C973   C1068   1.454   .     S
C973   C1106   1.407   .     A
C973   C1095   1.406   .     A
C974   C1094   1.406   .     A
C974   C1105   1.407   .     A
C974   C1069   1.454   .     S
C975   C1070   1.458   .     S
C975   C1108   1.408   .     A
C975   C1093   1.408   .     A
C976   O1405   1.387   .     S
C976   C1514   1.397   1_455 S
C977   C1071   1.457   .     S
C977   C1092   1.408   .     A
C977   C1107   1.408   .     A
C978   C1091   1.408   .     A
C978   C1111   1.408   .     A
C978   C1081   1.458   .     S
C979   C1090   1.408   .     A
C979   C1109   1.408   .     A
C979   C1082   1.457   .     S
C980   C1089   1.407   .     A
C980   C1113   1.406   .     A
C980   C1074   1.454   .     S
C981   C1087   1.407   .     A
C981   C1112   1.406   .     A
C981   C1075   1.454   .     S
C982   C1086   1.407   .     A
C982   C1115   1.407   .     A
C982   C1076   1.456   .     S
C983   C1114   1.407   .     A
C983   C1085   1.407   .     A
C983   C1078   1.456   .     S
C984   C1079   1.454   .     S
C984   C1117   1.407   .     A
C984   C1084   1.406   .     A
C985   C1116   1.407   .     A
C985   C1083   1.406   .     A
C985   C1080   1.454   .     S
C986   C1118   1.424   .     A
C986   C1432   1.429   1_455 S
C986   C1464   1.417   1_455 S
C987   O1406   1.387   .     S
C987   C83     1.397   1_565 S
C988   C1119   1.423   .     A
C988   C1433   1.426   .     S
C988   C1462   1.417   .     S
C990   C3      1.429   1_565 S
C990   C37     1.417   1_565 S
C991   C992    1.417   1_556 S
C992   C991    1.417   1_554 S
C993   C1438   1.426   .     S
C993   C994    1.417   1_556 S
C994   C1444   1.424   .     S
C994   C993    1.417   1_554 S
C995   H1294   1.112   .     S
C995   H1295   1.114   .     S
C995   C1472   1.521   1_455 S
C995   O1869   1.417   1_455 S
C996   H1124   1.111   .     S
C996   H1296   1.111   .     S
C996   C1471   1.521   .     S
C996   H1599   1.110   .     S
C997   H1125   1.114   .     S
C997   H1126   1.113   .     S
C997   C1475   1.520   .     S
C997   O1870   1.417   .     S
C998   O1407   1.385   .     S
C999   H1127   1.111   .     S
C999   H1129   1.111   .     S
C999   C1473   1.520   1_455 S
C999   H1604   1.111   1_455 S
C1000  O1395   1.418   .     S
C1000  H1130   1.113   .     S
C1000  C1001   1.522   .     S
C1000  H1131   1.114   .     S
C1001  H1135   1.109   .     S
C1001  H1132   1.110   .     S
C1001  H1134   1.110   .     S
C1002  H1136   1.113   .     S
C1002  O1396   1.417   .     S
C1002  C1003   1.522   .     S
C1002  H1137   1.112   .     S
C1003  H1140   1.111   .     S
C1003  H1139   1.111   .     S
C1003  H1138   1.110   .     S
C1004  H1141   1.113   .     S
C1004  C1005   1.522   .     S
C1004  O1397   1.417   .     S
C1004  H1142   1.112   .     S
C1005  H1146   1.111   .     S
C1005  H1145   1.111   .     S
C1005  H1143   1.110   .     S
C1006  O1398   1.418   .     S
C1006  H1148   1.114   .     S
C1006  C1007   1.522   .     S
C1006  H1147   1.113   .     S
C1007  H1151   1.109   .     S
C1007  H1149   1.110   .     S
C1007  H1150   1.110   .     S
C1008  H1152   1.114   .     S
C1008  H1153   1.113   .     S
C1009  C1037   1.396   .     A
C1009  O1408   1.387   .     S
C1010  H1157   1.111   .     S
C1010  H1154   1.111   .     S
C1010  C56     1.520   1_565 S
C1010  H204    1.110   1_565 S
C1011  H1158   1.111   .     S
C1011  H1159   1.113   .     S
C1011  C60     1.521   1_565 S
C1011  O449    1.417   1_565 S
C1012  H1160   1.110   .     S
C1012  H1162   1.111   .     S
C1013  H1164   1.113   .     S
C1013  O1402   1.417   .     S
C1013  C1014   1.521   .     S
C1013  H1163   1.112   .     S
C1014  H1167   1.110   .     S
C1014  H1165   1.110   .     S
C1014  H1168   1.111   .     S
C1015  H1169   1.114   .     S
C1015  O1403   1.417   .     S
C1015  C1016   1.520   .     S
C1015  H1170   1.113   .     S
C1016  H1171   1.111   .     S
C1016  H1172   1.110   .     S
C1016  H1173   1.111   .     S
C1017  H1175   1.113   .     S
C1017  H1174   1.113   .     S
C1017  O1404   1.418   .     S
C1017  C1018   1.522   .     S
C1018  H1179   1.109   .     S
C1018  H1178   1.110   .     S
C1018  H1176   1.110   .     S
C1019  O1405   1.417   .     S
C1019  H1181   1.112   .     S
C1019  C1021   1.522   .     S
C1019  H1180   1.113   .     S
C1020  O1409   1.386   .     S
C1020  C1038   1.398   .     A
C1021  H1183   1.111   .     S
C1021  H1184   1.111   .     S
C1021  H1182   1.110   .     S
C1022  H1185   1.113   .     S
C1022  C1023   1.522   .     S
C1022  O1406   1.417   .     S
C1022  H1186   1.112   .     S
C1023  H1187   1.110   .     S
C1023  H1190   1.111   .     S
C1023  H1189   1.111   .     S
C1024  C1025   1.522   .     S
C1024  H1191   1.113   .     S
C1024  O1407   1.418   .     S
C1024  H1192   1.114   .     S
C1025  H1194   1.110   .     S
C1025  H1193   1.110   .     S
C1025  H1195   1.109   .     S
C1026  H1196   1.114   .     S
C1026  H1197   1.113   .     S
C1026  O1408   1.417   .     S
C1026  C1027   1.520   .     S
C1027  H1200   1.110   .     S
C1027  H1198   1.111   .     S
C1027  H1201   1.111   .     S
C1028  H1202   1.112   .     S
C1028  O1409   1.417   .     S
C1028  H1203   1.113   .     S
C1028  C1029   1.521   .     S
C1029  H1205   1.110   .     S
C1029  H1204   1.110   .     S
C1029  H1206   1.111   .     S
C1030  C1066   1.397   .     A
C1030  C1059   1.455   .     S
C1030  C1429   1.398   1_455 S
C1031  C1060   1.456   .     S
C1031  C1077   1.399   .     A
C1031  C1509   1.396   .     S
C1032  C1044   1.399   .     A
C1032  C1057   1.456   .     S
C1033  O1394   1.387   .     S
C1033  C1507   1.396   1_455 S
C1034  C1058   1.455   .     S
C1034  C1055   1.397   .     A
C1034  C147    1.398   1_565 S
C1035  C1110   1.398   .     A
C1036  C46     1.399   1_565 S
C1036  C112    1.456   1_565 S
C1037  C1441   1.399   1_455 S
C1037  C1537   1.456   1_455 S
C1038  C1452   1.397   .     S
C1038  C1538   1.455   .     S
C1039  C1045   1.404   .     A
C1039  C1118   1.415   .     A
C1039  N1297   1.438   .     S
C1040  N1308   1.438   .     S
C1040  C1043   1.392   .     A
C1040  C1119   1.418   .     A
C1041  N1319   1.437   .     S
C1041  C1047   1.404   .     A
C1041  C1120   1.414   .     A
C1042  N1330   1.437   .     S
C1042  C1046   1.392   .     A
C1043  N1340   1.437   .     S
C1044  O1395   1.385   .     S
C1045  N1341   1.437   .     S
C1046  N1342   1.438   .     S
C1047  N1343   1.438   .     S
C1048  N1344   1.438   .     S
C1048  C1053   1.404   1_556 S
C1049  N1298   1.438   .     S
C1049  C1052   1.392   1_554 S
C1050  N1299   1.437   .     S
C1050  C1056   1.404   1_556 S
C1051  N1300   1.437   .     S
C1051  C1054   1.392   1_554 S
C1052  N1301   1.437   .     S
C1052  C1049   1.392   1_556 S
C1053  N1302   1.437   .     S
C1053  C1048   1.404   1_554 S
C1054  N1303   1.438   .     S
C1054  C1051   1.392   1_556 S
C1055  O1396   1.387   .     S
C1056  N1304   1.438   .     S
C1056  C1050   1.404   1_554 S
C1057  O1412   1.272   .     A
C1058  O1346   1.272   .     A
C1058  O448    1.282   1_565 S
C1059  O1410   1.272   .     A
C1059  O1823   1.282   1_455 S
C1060  O1411   1.272   .     A
C1060  O1824   1.283   .     S
C1061  O1829   1.272   .     A
C1061  O1825   1.283   .     A
C1061  C1513   1.456   .     S
C1062  C1514   1.455   1_455 S
C1062  O1350   1.282   .     S
C1062  O1354   1.272   .     S
C1063  C83     1.455   1_565 S
C1063  O399    1.272   1_565 S
C1063  O403    1.282   1_565 S
C1064  O1352   1.272   .     A
C1064  O1357   1.283   .     A
C1065  O1358   1.277   .     A
C1065  O1386   1.277   .     A
C1066  O1397   1.387   .     S
C1066  C1118   1.412   .     A
C1067  O1387   1.277   .     A
C1067  O1359   1.277   .     A
C1068  O1360   1.279   .     A
C1068  O1384   1.280   .     A
C1069  O1385   1.280   .     A
C1069  O1361   1.279   .     A
C1070  O1362   1.282   .     A
C1070  O1391   1.282   .     A
C1071  O1363   1.282   .     A
C1071  O1392   1.282   .     A
C1072  O1388   1.279   .     A
C1072  O1364   1.280   .     A
C1073  O1365   1.280   .     A
C1073  O1390   1.279   .     A
C1074  O1377   1.279   .     A
C1074  O1366   1.280   .     A
C1075  O1379   1.279   .     A
C1075  O1368   1.280   .     A
C1076  O1375   1.277   .     A
C1076  O1369   1.277   .     A
C1077  C1119   1.413   .     A
C1077  O1398   1.385   .     S
C1078  O1370   1.277   .     A
C1078  O1376   1.277   .     A
C1079  O1371   1.279   .     A
C1079  O1382   1.280   .     A
C1080  O1383   1.280   .     A
C1080  O1372   1.279   .     A
C1081  O1380   1.282   .     A
C1081  O1373   1.282   .     A
C1082  O1374   1.282   .     A
C1082  O1381   1.282   .     A
C1083  N1305   1.437   .     S
C1083  C1100   1.403   .     A
C1084  N1306   1.437   .     S
C1084  C1098   1.403   .     A
C1085  C1097   1.402   .     A
C1085  N1307   1.437   .     S
C1086  C1096   1.402   .     A
C1086  N1309   1.437   .     S
C1087  N1310   1.436   .     S
C1087  C1095   1.403   .     A
C1088  O1399   1.387   .     S
C1088  C1120   1.415   .     A
C1088  C80     1.396   1_565 S
C1089  N1311   1.436   .     S
C1089  C1094   1.403   .     A
C1090  C1093   1.402   .     A
C1090  N1312   1.437   .     S
C1091  C1092   1.402   .     A
C1091  N1313   1.437   .     S
C1092  N1314   1.437   .     S
C1093  N1315   1.437   .     S
C1094  N1316   1.437   .     S
C1095  N1317   1.437   .     S
C1096  N1318   1.437   .     S
C1097  N1320   1.437   .     S
C1098  N1321   1.437   .     S
C1099  O1401   1.386   .     S
C1100  N1322   1.436   .     S
C1101  N1323   1.437   .     S
C1101  C1117   1.403   .     A
C1102  N1324   1.437   .     S
C1102  C1116   1.403   .     A
C1103  C1115   1.402   .     A
C1103  N1325   1.437   .     S
C1104  N1326   1.437   .     S
C1104  C1114   1.402   .     A
C1105  C1113   1.403   .     A
C1105  N1327   1.436   .     S
C1106  N1328   1.436   .     S
C1106  C1112   1.403   .     A
C1107  C1111   1.402   .     A
C1107  N1329   1.437   .     S
C1108  C1109   1.402   .     A
C1108  N1331   1.437   .     S
C1109  N1332   1.437   .     S
C1110  O1402   1.386   .     S
C1111  N1333   1.437   .     S
C1112  N1334   1.437   .     S
C1113  N1335   1.437   .     S
C1114  N1336   1.437   .     S
C1115  N1337   1.437   .     S
C1116  N1338   1.436   .     S
C1117  N1339   1.436   .     S
C1120  C37     1.426   1_565 S
H1121  N1297   1.045   .     S
H1122  N1340   1.045   .     S
H1123  C1472   1.110   1_455 S
H1128  C1475   1.111   .     S
H1133  N1341   1.045   .     S
H1144  N1341   1.045   .     S
H1155  N1342   1.042   .     S
H1161  C60     1.110   1_565 S
H1166  N1342   1.045   .     S
H1177  N1343   1.045   .     S
H1188  N1343   1.045   .     S
H1199  N1344   1.045   .     S
H1207  N1344   1.045   .     S
H1208  N1298   1.042   .     S
H1209  N1297   1.045   .     S
H1210  N1298   1.045   .     S
H1211  N1299   1.045   .     S
H1212  N1299   1.045   .     S
H1213  N1300   1.042   .     S
H1214  N1300   1.045   .     S
H1215  N1301   1.042   .     S
H1216  N1301   1.045   .     S
H1217  N1302   1.045   .     S
H1218  N1302   1.045   .     S
H1219  N1303   1.042   .     S
H1220  N1308   1.042   .     S
H1221  N1303   1.045   .     S
H1222  N1304   1.045   .     S
H1223  N1304   1.045   .     S
H1224  N1305   1.045   .     S
H1225  N1305   1.045   .     S
H1226  N1306   1.045   .     S
H1227  N1306   1.045   .     S
H1228  N1307   1.045   .     S
H1229  N1307   1.045   .     S
H1230  N1309   1.045   .     S
H1231  N1308   1.045   .     S
H1232  N1309   1.045   .     S
H1233  N1310   1.045   .     S
H1234  N1310   1.045   .     S
H1235  N1311   1.045   .     S
H1236  N1311   1.045   .     S
H1237  N1312   1.045   .     S
H1238  N1312   1.045   .     S
H1239  N1313   1.044   .     S
H1240  N1313   1.045   .     S
H1241  N1314   1.045   .     S
H1242  N1319   1.045   .     S
H1243  N1314   1.045   .     S
H1244  N1315   1.044   .     S
H1245  N1315   1.045   .     S
H1246  N1316   1.045   .     S
H1247  N1316   1.045   .     S
H1248  N1317   1.045   .     S
H1249  N1317   1.045   .     S
H1250  N1318   1.045   .     S
H1251  N1318   1.045   .     S
H1252  N1320   1.045   .     S
H1253  N1319   1.045   .     S
H1254  N1320   1.045   .     S
H1255  N1321   1.045   .     S
H1256  N1321   1.045   .     S
H1257  N1322   1.045   .     S
H1258  N1322   1.045   .     S
H1259  N1323   1.045   .     S
H1260  N1323   1.045   .     S
H1261  N1324   1.045   .     S
H1262  N1324   1.045   .     S
H1263  N1325   1.045   .     S
H1264  N1330   1.042   .     S
H1265  N1325   1.045   .     S
H1266  N1326   1.045   .     S
H1267  N1326   1.045   .     S
H1268  N1327   1.045   .     S
H1269  N1327   1.045   .     S
H1270  N1328   1.045   .     S
H1271  N1328   1.045   .     S
H1272  N1329   1.045   .     S
H1273  N1329   1.045   .     S
H1274  N1331   1.044   .     S
H1275  N1330   1.045   .     S
H1276  N1331   1.045   .     S
H1277  N1332   1.045   .     S
H1278  N1332   1.045   .     S
H1279  N1333   1.044   .     S
H1280  N1333   1.045   .     S
H1281  N1334   1.045   .     S
H1282  N1334   1.045   .     S
H1283  N1335   1.045   .     S
H1284  N1335   1.045   .     S
H1285  N1336   1.045   .     S
H1286  N1340   1.042   .     S
H1287  N1336   1.045   .     S
H1288  N1337   1.045   .     S
H1289  N1337   1.045   .     S
H1290  N1338   1.045   .     S
H1291  N1338   1.045   .     S
H1292  N1339   1.045   .     S
H1293  N1339   1.045   .     S
O1345  Zn1413  1.943   .     S
O1345  Zn1416  1.943   .     S
O1345  Zn1424  1.951   .     S
O1346  Zn1415  1.951   .     S
O1347  Zn1418  1.947   .     S
O1347  C1535   1.282   .     S
O1348  Zn1417  1.947   .     S
O1348  C1536   1.283   1_455 S
O1349  Zn1427  1.947   .     S
O1349  C1537   1.283   1_455 A
O1350  Zn1426  1.947   .     S
O1351  Zn1421  1.951   .     S
O1352  Zn1413  1.951   .     S
O1353  Zn1423  1.951   .     S
O1353  C1537   1.272   1_455 A
O1354  Zn1422  1.951   .     S
O1355  Zn1425  1.947   .     S
O1356  Zn1419  1.951   .     S
O1356  Zn1421  1.943   .     S
O1356  Zn1425  1.951   .     S
O1357  Zn1424  1.947   .     S
O1358  Zn1416  1.937   .     S
O1359  Zn1415  1.937   .     S
O1360  Zn1418  1.932   .     S
O1361  Zn1417  1.932   .     S
O1362  Zn1420  1.937   .     S
O1363  Zn1419  1.937   .     S
O1364  Zn1414  1.935   .     S
O1365  Zn1428  1.935   .     S
O1366  Zn1415  1.935   .     S
O1367  Zn1414  1.943   .     S
O1367  Zn1894  1.951   1_455 S
O1367  Zn1422  1.943   .     S
O1367  Zn1426  1.951   .     S
O1368  Zn1416  1.935   .     S
O1369  Zn1428  1.937   .     S
O1370  Zn1414  1.937   .     S
O1371  Zn1419  1.932   .     S
O1372  Zn1420  1.932   .     S
O1373  Zn1417  1.937   .     S
O1374  Zn1418  1.937   .     S
O1375  Zn1899  1.937   .     S
O1376  Zn1422  1.937   .     S
O1377  Zn473   1.932   1_565 S
O1378  Zn1904  1.943   1_455 S
O1378  Zn1423  1.943   .     S
O1378  Zn1427  1.951   .     S
O1378  Zn1417  1.951   .     S
O1379  Zn1424  1.932   .     S
O1380  Zn1427  1.937   .     S
O1381  Zn1902  1.937   .     S
O1382  Zn1421  1.935   .     S
O1383  Zn461   1.935   1_565 S
O1384  Zn1898  1.935   .     S
O1385  Zn1423  1.935   .     S
O1386  Zn1413  1.937   .     S
O1387  Zn469   1.937   1_565 S
O1388  Zn1426  1.932   .     S
O1389  Zn1420  1.947   .     S
O1389  C105    1.283   1_565 S
O1390  Zn1903  1.932   .     S
O1391  Zn472   1.937   1_565 S
O1392  Zn1425  1.937   .     S
O1393  C1471   1.417   .     S
O1394  C1473   1.417   1_455 S
O1399  C56     1.417   1_565 S
O1400  Zn1419  1.947   .     S
O1410  Zn1414  1.951   .     S
O1411  Zn1428  1.951   .     S
O1412  Zn1416  1.951   .     S
Zn1415 O404    1.943   1_565 S
Zn1418 O1843   1.951   .     S
Zn1420 O393    1.951   1_565 S
Zn1422 O1860   1.935   1_455 S
Zn1423 O1851   1.937   1_455 S
Zn1426 O1857   1.937   1_455 S
Zn1427 O1866   1.932   1_455 S
Zn1428 O1854   1.943   .     S
C1429  O1869   1.386   .     S
C1429  C1432   1.416   .     A
C1429  C1030   1.398   1_655 S
C1430  C1442   1.415   .     A
C1430  O1879   1.387   .     S
C1430  C1512   1.396   .     A
C1431  C1575   1.416   .     A
C1431  C1518   1.421   .     A
C1432  C1519   1.421   .     A
C1432  C986    1.429   1_655 S
C1433  C1509   1.415   .     A
C1433  C1521   1.414   .     A
C1434  C1520   1.413   .     A
C1434  C1522   1.418   .     A
C1434  C1465   1.423   .     A
C1435  C1531   1.412   .     A
C1435  C1523   1.415   .     A
C1435  C1466   1.424   .     A
C1436  C1463   1.412   .     A
C1436  C1524   1.415   .     A
C1436  C515    1.424   1_565 S
C1437  C1474   1.413   .     A
C1437  C1525   1.418   .     A
C1437  C1468   1.423   .     A
C1438  C1526   1.414   .     A
C1438  C1485   1.415   .     A
C1439  C1527   1.421   .     A
C1439  C1496   1.416   .     A
C1439  C1470   1.429   .     A
C1440  C1586   1.416   .     A
C1440  C1467   1.429   .     A
C1440  C1528   1.421   .     A
C1441  C1443   1.413   .     A
C1441  O1880   1.385   .     S
C1441  C1037   1.399   1_655 S
C1442  C1529   1.414   .     A
C1442  C516    1.426   1_565 S
C1443  C1469   1.423   .     A
C1443  C1530   1.418   .     A
C1444  C1532   1.415   .     A
C1444  C1452   1.412   .     A
C1445  C1548   1.454   .     S
C1445  C1576   1.407   .     A
C1445  C1578   1.406   .     A
C1446  C1549   1.454   .     S
C1446  C1577   1.406   .     A
C1446  C1574   1.407   .     A
C1447  C1541   1.456   .     S
C1447  C1573   1.407   .     A
C1447  C1580   1.407   .     A
C1448  C1572   1.407   .     A
C1448  C1579   1.407   .     A
C1448  C1543   1.456   .     S
C1449  C1544   1.454   .     S
C1449  C1582   1.407   .     A
C1449  C1571   1.406   .     A
C1450  C1570   1.406   .     A
C1450  C1581   1.407   .     A
C1450  C1545   1.454   .     S
C1451  C1546   1.458   .     S
C1451  C1584   1.408   .     A
C1451  C1569   1.408   .     A
C1452  O1881   1.387   .     S
C1453  C1547   1.457   .     S
C1453  C1568   1.408   .     A
C1453  C1583   1.408   .     A
C1454  C1567   1.408   .     A
C1454  C1587   1.408   .     A
C1454  C1557   1.458   .     S
C1455  C1566   1.408   .     A
C1455  C1585   1.408   .     A
C1455  C1558   1.457   .     S
C1456  C1565   1.407   .     A
C1456  C1589   1.406   .     A
C1456  C1550   1.454   .     S
C1457  C1563   1.407   .     A
C1457  C1588   1.406   .     A
C1457  C1551   1.454   .     S
C1458  C1562   1.407   .     A
C1458  C1591   1.407   .     A
C1458  C1552   1.456   .     S
C1459  C1590   1.407   .     A
C1459  C1561   1.407   .     A
C1459  C1554   1.456   .     S
C1460  C1555   1.454   .     S
C1460  C1593   1.407   .     A
C1460  C1560   1.406   .     A
C1461  C1592   1.407   .     A
C1461  C1559   1.406   .     A
C1461  C1556   1.454   .     S
C1462  C1594   1.424   .     A
C1463  O1882   1.387   .     S
C1463  C559    1.397   1_565 S
C1464  C1595   1.423   .     A
C1464  C957    1.426   1_655 S
C1464  C986    1.417   1_655 S
C1466  C479    1.429   1_565 S
C1466  C513    1.417   1_565 S
C1467  C1468   1.417   1_556 S
C1468  C1467   1.417   1_554 S
C1469  C962    1.426   1_655 S
C1469  C1470   1.417   1_556 S
C1470  C968    1.424   1_655 S
C1470  C1469   1.417   1_554 S
C1471  H1770   1.112   .     S
C1471  H1771   1.114   .     S
C1472  H1600   1.111   .     S
C1472  H1772   1.111   .     S
C1472  C995    1.521   1_655 S
C1472  H1123   1.110   1_655 S
C1473  H1601   1.114   .     S
C1473  H1602   1.113   .     S
C1473  C999    1.520   1_655 S
C1473  O1394   1.417   1_655 S
C1474  O1883   1.385   .     S
C1475  H1603   1.111   .     S
C1475  H1605   1.111   .     S
C1476  O1871   1.418   .     S
C1476  H1606   1.113   .     S
C1476  C1477   1.522   .     S
C1476  H1607   1.114   .     S
C1477  H1611   1.109   .     S
C1477  H1608   1.110   .     S
C1477  H1610   1.110   .     S
C1478  H1612   1.113   .     S
C1478  O1872   1.417   .     S
C1478  C1479   1.522   .     S
C1478  H1613   1.112   .     S
C1479  H1616   1.111   .     S
C1479  H1615   1.111   .     S
C1479  H1614   1.110   .     S
C1480  H1617   1.113   .     S
C1480  C1481   1.522   .     S
C1480  O1873   1.417   .     S
C1480  H1618   1.112   .     S
C1481  H1622   1.111   .     S
C1481  H1621   1.111   .     S
C1481  H1619   1.110   .     S
C1482  O1874   1.418   .     S
C1482  H1624   1.114   .     S
C1482  C1483   1.522   .     S
C1482  H1623   1.113   .     S
C1483  H1627   1.109   .     S
C1483  H1625   1.110   .     S
C1483  H1626   1.110   .     S
C1484  H1628   1.114   .     S
C1484  H1629   1.113   .     S
C1485  C1513   1.396   .     A
C1485  O1884   1.387   .     S
C1486  H1633   1.111   .     S
C1486  H1630   1.111   .     S
C1486  C532    1.520   1_565 S
C1486  H680    1.110   1_565 S
C1487  H1634   1.111   .     S
C1487  H1635   1.113   .     S
C1487  C536    1.521   1_565 S
C1487  O925    1.417   1_565 S
C1488  H1636   1.110   .     S
C1488  H1638   1.111   .     S
C1489  H1640   1.113   .     S
C1489  O1878   1.417   .     S
C1489  C1490   1.521   .     S
C1489  H1639   1.112   .     S
C1490  H1643   1.110   .     S
C1490  H1641   1.110   .     S
C1490  H1644   1.111   .     S
C1491  H1645   1.114   .     S
C1491  O1879   1.417   .     S
C1491  C1492   1.520   .     S
C1491  H1646   1.113   .     S
C1492  H1647   1.111   .     S
C1492  H1648   1.110   .     S
C1492  H1649   1.111   .     S
C1493  H1651   1.113   .     S
C1493  H1650   1.113   .     S
C1493  O1880   1.418   .     S
C1493  C1494   1.522   .     S
C1494  H1655   1.109   .     S
C1494  H1654   1.110   .     S
C1494  H1652   1.110   .     S
C1495  O1881   1.417   .     S
C1495  H1657   1.112   .     S
C1495  C1497   1.522   .     S
C1495  H1656   1.113   .     S
C1496  O1885   1.386   .     S
C1496  C1514   1.398   .     A
C1497  H1659   1.111   .     S
C1497  H1660   1.111   .     S
C1497  H1658   1.110   .     S
C1498  H1661   1.113   .     S
C1498  C1499   1.522   .     S
C1498  O1882   1.417   .     S
C1498  H1662   1.112   .     S
C1499  H1663   1.110   .     S
C1499  H1666   1.111   .     S
C1499  H1665   1.111   .     S
C1500  C1501   1.522   .     S
C1500  H1667   1.113   .     S
C1500  O1883   1.418   .     S
C1500  H1668   1.114   .     S
C1501  H1670   1.110   .     S
C1501  H1669   1.110   .     S
C1501  H1671   1.109   .     S
C1502  H1672   1.114   .     S
C1502  H1673   1.113   .     S
C1502  O1884   1.417   .     S
C1502  C1503   1.520   .     S
C1503  H1676   1.110   .     S
C1503  H1674   1.111   .     S
C1503  H1677   1.111   .     S
C1504  H1678   1.112   .     S
C1504  O1885   1.417   .     S
C1504  H1679   1.113   .     S
C1504  C1505   1.521   .     S
C1505  H1681   1.110   .     S
C1505  H1680   1.110   .     S
C1505  H1682   1.111   .     S
C1506  C1542   1.397   .     A
C1506  C1535   1.455   .     S
C1507  C1536   1.456   .     S
C1507  C1553   1.399   .     A
C1507  C1033   1.396   1_655 S
C1508  C1520   1.399   .     A
C1508  C1533   1.456   .     S
C1509  O1870   1.387   .     S
C1510  C1534   1.455   .     S
C1510  C1531   1.397   .     A
C1510  C623    1.398   1_565 S
C1511  C1586   1.398   .     A
C1512  C522    1.399   1_565 S
C1512  C588    1.456   1_565 S
C1514  C976    1.397   1_655 S
C1514  C1062   1.455   1_655 S
C1515  C1521   1.404   .     A
C1515  C1594   1.415   .     A
C1515  N1773   1.438   .     S
C1516  N1784   1.438   .     S
C1516  C1519   1.392   .     A
C1516  C1595   1.418   .     A
C1517  N1795   1.437   .     S
C1517  C1523   1.404   .     A
C1517  C1596   1.414   .     A
C1518  N1806   1.437   .     S
C1518  C1522   1.392   .     A
C1519  N1816   1.437   .     S
C1520  O1871   1.385   .     S
C1521  N1817   1.437   .     S
C1522  N1818   1.438   .     S
C1523  N1819   1.438   .     S
C1524  N1820   1.438   .     S
C1524  C1529   1.404   1_556 S
C1525  N1774   1.438   .     S
C1525  C1528   1.392   1_554 S
C1526  N1775   1.437   .     S
C1526  C1532   1.404   1_556 S
C1527  N1776   1.437   .     S
C1527  C1530   1.392   1_554 S
C1528  N1777   1.437   .     S
C1528  C1525   1.392   1_556 S
C1529  N1778   1.437   .     S
C1529  C1524   1.404   1_554 S
C1530  N1779   1.438   .     S
C1530  C1527   1.392   1_556 S
C1531  O1872   1.387   .     S
C1532  N1780   1.438   .     S
C1532  C1526   1.404   1_554 S
C1533  O1888   1.272   .     A
C1534  O1822   1.272   .     A
C1534  O924    1.282   1_565 S
C1535  O1886   1.272   .     A
C1536  O1887   1.272   .     A
C1536  O1348   1.283   1_655 S
C1537  O1353   1.272   1_655 A
C1537  O1349   1.283   1_655 A
C1537  C1037   1.456   1_655 S
C1538  O1826   1.282   .     S
C1538  O1830   1.272   .     S
C1539  C559    1.455   1_565 S
C1539  O875    1.272   1_565 S
C1539  O879    1.282   1_565 S
C1540  O1828   1.272   .     A
C1540  O1833   1.283   .     A
C1541  O1834   1.277   .     A
C1541  O1862   1.277   .     A
C1542  O1873   1.387   .     S
C1542  C1594   1.412   .     A
C1543  O1863   1.277   .     A
C1543  O1835   1.277   .     A
C1544  O1836   1.279   .     A
C1544  O1860   1.280   .     A
C1545  O1861   1.280   .     A
C1545  O1837   1.279   .     A
C1546  O1838   1.282   .     A
C1546  O1867   1.282   .     A
C1547  O1839   1.282   .     A
C1547  O1868   1.282   .     A
C1548  O1864   1.279   .     A
C1548  O1840   1.280   .     A
C1549  O1841   1.280   .     A
C1549  O1866   1.279   .     A
C1550  O1853   1.279   .     A
C1550  O1842   1.280   .     A
C1551  O1855   1.279   .     A
C1551  O1844   1.280   .     A
C1552  O1851   1.277   .     A
C1552  O1845   1.277   .     A
C1553  C1595   1.413   .     A
C1553  O1874   1.385   .     S
C1554  O1846   1.277   .     A
C1554  O1852   1.277   .     A
C1555  O1847   1.279   .     A
C1555  O1858   1.280   .     A
C1556  O1859   1.280   .     A
C1556  O1848   1.279   .     A
C1557  O1856   1.282   .     A
C1557  O1849   1.282   .     A
C1558  O1850   1.282   .     A
C1558  O1857   1.282   .     A
C1559  N1781   1.437   .     S
C1559  C1576   1.403   .     A
C1560  N1782   1.437   .     S
C1560  C1574   1.403   .     A
C1561  C1573   1.402   .     A
C1561  N1783   1.437   .     S
C1562  C1572   1.402   .     A
C1562  N1785   1.437   .     S
C1563  N1786   1.436   .     S
C1563  C1571   1.403   .     A
C1564  O1875   1.387   .     S
C1564  C1596   1.415   .     A
C1564  C556    1.396   1_565 S
C1565  N1787   1.436   .     S
C1565  C1570   1.403   .     A
C1566  C1569   1.402   .     A
C1566  N1788   1.437   .     S
C1567  C1568   1.402   .     A
C1567  N1789   1.437   .     S
C1568  N1790   1.437   .     S
C1569  N1791   1.437   .     S
C1570  N1792   1.437   .     S
C1571  N1793   1.437   .     S
C1572  N1794   1.437   .     S
C1573  N1796   1.437   .     S
C1574  N1797   1.437   .     S
C1575  O1877   1.386   .     S
C1576  N1798   1.436   .     S
C1577  N1799   1.437   .     S
C1577  C1593   1.403   .     A
C1578  N1800   1.437   .     S
C1578  C1592   1.403   .     A
C1579  C1591   1.402   .     A
C1579  N1801   1.437   .     S
C1580  N1802   1.437   .     S
C1580  C1590   1.402   .     A
C1581  C1589   1.403   .     A
C1581  N1803   1.436   .     S
C1582  N1804   1.436   .     S
C1582  C1588   1.403   .     A
C1583  C1587   1.402   .     A
C1583  N1805   1.437   .     S
C1584  C1585   1.402   .     A
C1584  N1807   1.437   .     S
C1585  N1808   1.437   .     S
C1586  O1878   1.386   .     S
C1587  N1809   1.437   .     S
C1588  N1810   1.437   .     S
C1589  N1811   1.437   .     S
C1590  N1812   1.437   .     S
C1591  N1813   1.437   .     S
C1592  N1814   1.436   .     S
C1593  N1815   1.436   .     S
C1596  C513    1.426   1_565 S
H1597  N1773   1.045   .     S
H1598  N1816   1.045   .     S
H1604  C999    1.111   1_655 S
H1609  N1817   1.045   .     S
H1620  N1817   1.045   .     S
H1631  N1818   1.042   .     S
H1637  C536    1.110   1_565 S
H1642  N1818   1.045   .     S
H1653  N1819   1.045   .     S
H1664  N1819   1.045   .     S
H1675  N1820   1.045   .     S
H1683  N1820   1.045   .     S
H1684  N1774   1.042   .     S
H1685  N1773   1.045   .     S
H1686  N1774   1.045   .     S
H1687  N1775   1.045   .     S
H1688  N1775   1.045   .     S
H1689  N1776   1.042   .     S
H1690  N1776   1.045   .     S
H1691  N1777   1.042   .     S
H1692  N1777   1.045   .     S
H1693  N1778   1.045   .     S
H1694  N1778   1.045   .     S
H1695  N1779   1.042   .     S
H1696  N1784   1.042   .     S
H1697  N1779   1.045   .     S
H1698  N1780   1.045   .     S
H1699  N1780   1.045   .     S
H1700  N1781   1.045   .     S
H1701  N1781   1.045   .     S
H1702  N1782   1.045   .     S
H1703  N1782   1.045   .     S
H1704  N1783   1.045   .     S
H1705  N1783   1.045   .     S
H1706  N1785   1.045   .     S
H1707  N1784   1.045   .     S
H1708  N1785   1.045   .     S
H1709  N1786   1.045   .     S
H1710  N1786   1.045   .     S
H1711  N1787   1.045   .     S
H1712  N1787   1.045   .     S
H1713  N1788   1.045   .     S
H1714  N1788   1.045   .     S
H1715  N1789   1.044   .     S
H1716  N1789   1.045   .     S
H1717  N1790   1.045   .     S
H1718  N1795   1.045   .     S
H1719  N1790   1.045   .     S
H1720  N1791   1.044   .     S
H1721  N1791   1.045   .     S
H1722  N1792   1.045   .     S
H1723  N1792   1.045   .     S
H1724  N1793   1.045   .     S
H1725  N1793   1.045   .     S
H1726  N1794   1.045   .     S
H1727  N1794   1.045   .     S
H1728  N1796   1.045   .     S
H1729  N1795   1.045   .     S
H1730  N1796   1.045   .     S
H1731  N1797   1.045   .     S
H1732  N1797   1.045   .     S
H1733  N1798   1.045   .     S
H1734  N1798   1.045   .     S
H1735  N1799   1.045   .     S
H1736  N1799   1.045   .     S
H1737  N1800   1.045   .     S
H1738  N1800   1.045   .     S
H1739  N1801   1.045   .     S
H1740  N1806   1.042   .     S
H1741  N1801   1.045   .     S
H1742  N1802   1.045   .     S
H1743  N1802   1.045   .     S
H1744  N1803   1.045   .     S
H1745  N1803   1.045   .     S
H1746  N1804   1.045   .     S
H1747  N1804   1.045   .     S
H1748  N1805   1.045   .     S
H1749  N1805   1.045   .     S
H1750  N1807   1.044   .     S
H1751  N1806   1.045   .     S
H1752  N1807   1.045   .     S
H1753  N1808   1.045   .     S
H1754  N1808   1.045   .     S
H1755  N1809   1.044   .     S
H1756  N1809   1.045   .     S
H1757  N1810   1.045   .     S
H1758  N1810   1.045   .     S
H1759  N1811   1.045   .     S
H1760  N1811   1.045   .     S
H1761  N1812   1.045   .     S
H1762  N1816   1.042   .     S
H1763  N1812   1.045   .     S
H1764  N1813   1.045   .     S
H1765  N1813   1.045   .     S
H1766  N1814   1.045   .     S
H1767  N1814   1.045   .     S
H1768  N1815   1.045   .     S
H1769  N1815   1.045   .     S
O1821  Zn1889  1.943   .     S
O1821  Zn1892  1.943   .     S
O1821  Zn1900  1.951   .     S
O1822  Zn1891  1.951   .     S
O1823  Zn1894  1.947   .     S
O1823  C1059   1.282   1_655 S
O1824  Zn1893  1.947   .     S
O1825  Zn1903  1.947   .     S
O1826  Zn1902  1.947   .     S
O1827  Zn1897  1.951   .     S
O1828  Zn1889  1.951   .     S
O1829  Zn1899  1.951   .     S
O1830  Zn1898  1.951   .     S
O1831  Zn1901  1.947   .     S
O1832  Zn1895  1.951   .     S
O1832  Zn1897  1.943   .     S
O1832  Zn1901  1.951   .     S
O1833  Zn1900  1.947   .     S
O1834  Zn1892  1.937   .     S
O1835  Zn1891  1.937   .     S
O1836  Zn1894  1.932   .     S
O1837  Zn1893  1.932   .     S
O1838  Zn1896  1.937   .     S
O1839  Zn1895  1.937   .     S
O1840  Zn1890  1.935   .     S
O1841  Zn1904  1.935   .     S
O1842  Zn1891  1.935   .     S
O1843  Zn1890  1.943   .     S
O1843  Zn1898  1.943   .     S
O1843  Zn1902  1.951   .     S
O1844  Zn1892  1.935   .     S
O1845  Zn1904  1.937   .     S
O1846  Zn1890  1.937   .     S
O1847  Zn1895  1.932   .     S
O1848  Zn1896  1.932   .     S
O1849  Zn1893  1.937   .     S
O1850  Zn1894  1.937   .     S
O1851  Zn1423  1.937   1_655 S
O1852  Zn1898  1.937   .     S
O1853  Zn949   1.932   1_565 S
O1854  Zn1899  1.943   .     S
O1854  Zn1903  1.951   .     S
O1854  Zn1893  1.951   .     S
O1855  Zn1900  1.932   .     S
O1856  Zn1903  1.937   .     S
O1857  Zn1426  1.937   1_655 S
O1858  Zn1897  1.935   .     S
O1859  Zn937   1.935   1_565 S
O1860  Zn1422  1.935   1_655 S
O1861  Zn1899  1.935   .     S
O1862  Zn1889  1.937   .     S
O1863  Zn945   1.937   1_565 S
O1864  Zn1902  1.932   .     S
O1865  Zn1896  1.947   .     S
O1865  C581    1.283   1_565 S
O1866  Zn1427  1.932   1_655 S
O1867  Zn948   1.937   1_565 S
O1868  Zn1901  1.937   .     S
O1869  C995    1.417   1_655 S
O1875  C532    1.417   1_565 S
O1876  Zn1895  1.947   .     S
O1886  Zn1890  1.951   .     S
O1887  Zn1904  1.951   .     S
O1888  Zn1892  1.951   .     S
Zn1891 O880    1.943   1_565 S
Zn1894 O1367   1.951   1_655 S
Zn1896 O869    1.951   1_565 S
Zn1904 O1378   1.943   1_655 S
