data_str_m2_o1_o2_pcu_sym.73
_audit_creation_date              2020-01-03
_audit_creation_method            'Materials Studio'
_symmetry_space_group_name_H-M    'P1'
_symmetry_Int_Tables_number       1
_symmetry_cell_setting            triclinic
loop_
_symmetry_equiv_pos_as_xyz
  x,y,z
_cell_length_a                    32.5136
_cell_length_b                    29.2079
_cell_length_c                    30.1406
_cell_angle_alpha                 89.4252
_cell_angle_beta                  97.4901
_cell_angle_gamma                 90.4792
loop_
_atom_site_label
_atom_site_type_symbol
_atom_site_fract_x
_atom_site_fract_y
_atom_site_fract_z
_atom_site_U_iso_or_equiv
_atom_site_adp_type
_atom_site_occupancy
C1     C     0.08757   0.16675   0.25016   0.00000  Uiso   1.00
C2     C     0.31147   0.20893   0.24278   0.00000  Uiso   1.00
C3     C     0.31223   0.12663   0.25301   0.00000  Uiso   1.00
C4     C     0.02090   0.20877   0.24298   0.00000  Uiso   1.00
C5     C     0.19646   0.19051   0.05156   0.00000  Uiso   1.00
C6     C     0.17417   0.12489   0.45455   0.00000  Uiso   1.00
C7     C     0.15347   0.20515   0.45123   0.00000  Uiso   1.00
C8     C     0.13559   0.13981   0.04451   0.00000  Uiso   1.00
C9     C     0.19510   0.19266   0.09774   0.00000  Uiso   1.00
C10    C     0.17314   0.12526   0.40804   0.00000  Uiso   1.00
C11    C     0.15358   0.20510   0.40504   0.00000  Uiso   1.00
C12    C     0.24568   0.16693   0.24917   0.00000  Uiso   1.00
C13    C     0.13717   0.13941   0.09112   0.00000  Uiso   1.00
C14    C     0.16599   0.16669   0.11729   0.00000  Uiso   1.00
C15    C     0.16444   0.16567   0.38330   0.00000  Uiso   1.00
C16    C     0.16582   0.16490   0.02495   0.00000  Uiso   1.00
C17    C     0.16466   0.16507   0.47623   0.00000  Uiso   1.00
C18    C     0.29027   0.16759   0.24793   0.00000  Uiso   1.00
C19    C     0.04287   0.16756   0.25041   0.00000  Uiso   1.00
C20    C     0.10491   0.04885   0.18900   0.00000  Uiso   1.00
C21    C     0.06163   0.04044   0.20271   0.00000  Uiso   1.00
C22    C     0.22313   0.28258   0.31599   0.00000  Uiso   1.00
C23    C     0.16636   0.16679   0.16535   0.00000  Uiso   1.00
C24    C     0.21454   0.28814   0.36447   0.00000  Uiso   1.00
C25    C     0.22403   0.04997   0.31588   0.00000  Uiso   1.00
C26    C     0.27059   0.04111   0.31665   0.00000  Uiso   1.00
C27    C     0.11859   0.28462   0.17724   0.00000  Uiso   1.00
C28    C     0.14320   0.28737   0.13713   0.00000  Uiso   1.00
C29    C     0.26683   0.20081   0.04922   0.00000  Uiso   1.00
C30    C     0.29060   0.24063   0.07378   0.00000  Uiso   1.00
C31    C     0.33289   0.22557   0.09707   0.00000  Uiso   1.00
C32    C     0.22185   0.06964   0.47961   0.00000  Uiso   1.00
C33    C     0.22218   0.01735   0.47885   0.00000  Uiso   1.00
C34    C     0.16606   0.16642   0.33487   0.00000  Uiso   1.00
C35    C     0.26583   0.33250   0.47766   0.00000  Uiso   1.00
C36    C     0.10349   0.24143   0.48482   0.00000  Uiso   1.00
C37    C     0.08116   0.28706   0.47613   0.00000  Uiso   1.00
C38    C     0.03857   0.28569   0.49223   0.00000  Uiso   1.00
C39    C     0.06542   0.12495   0.02460   0.00000  Uiso   1.00
C40    C     0.04447   0.08295   0.04288   0.00000  Uiso   1.00
C41    C     0.00095   0.09404   0.05312   0.00000  Uiso   1.00
C42    C     0.13918   0.02464   0.21999   0.00000  Uiso   1.00
C43    C     0.19314   0.30836   0.28128   0.00000  Uiso   1.00
C44    C     0.19434   0.02467   0.28027   0.00000  Uiso   1.00
C45    C     0.14145   0.30878   0.21793   0.00000  Uiso   1.00
C46    C     0.02164   0.12708   0.25747   0.00000  Uiso   1.00
Cu47   Cu    0.16667   0.21355   0.25000   0.00000  Uiso   1.00
Cu48   Cu    0.16667   0.11978   0.25000   0.00000  Uiso   1.00
H49    H     0.21741   0.21334   0.11863   0.00000  Uiso   1.00
H50    H     0.04199   0.07077   0.19330   0.00000  Uiso   1.00
H51    H     0.04488   0.01154   0.18495   0.00000  Uiso   1.00
H52    H     0.10928   0.08562   0.18775   0.00000  Uiso   1.00
H53    H     0.10500   0.03926   0.15363   0.00000  Uiso   1.00
H54    H     0.18232   0.29973   0.36594   0.00000  Uiso   1.00
H55    H     0.21958   0.25516   0.38290   0.00000  Uiso   1.00
H56    H     0.23662   0.31255   0.38263   0.00000  Uiso   1.00
H57    H     0.22353   0.24634   0.31043   0.00000  Uiso   1.00
H58    H     0.25563   0.29041   0.31208   0.00000  Uiso   1.00
H59    H     0.27747   0.02712   0.28432   0.00000  Uiso   1.00
H60    H     0.17941   0.09387   0.39153   0.00000  Uiso   1.00
H61    H     0.28846   0.07331   0.32408   0.00000  Uiso   1.00
H62    H     0.28255   0.01790   0.34455   0.00000  Uiso   1.00
H63    H     0.22189   0.08650   0.31208   0.00000  Uiso   1.00
H64    H     0.21459   0.04376   0.34933   0.00000  Uiso   1.00
H65    H     0.17644   0.27946   0.14728   0.00000  Uiso   1.00
H66    H     0.12993   0.26281   0.11112   0.00000  Uiso   1.00
H67    H     0.14172   0.32204   0.12182   0.00000  Uiso   1.00
H68    H     0.11012   0.24937   0.18486   0.00000  Uiso   1.00
H69    H     0.08769   0.29838   0.16619   0.00000  Uiso   1.00
H70    H     0.28322   0.19113   0.02061   0.00000  Uiso   1.00
H71    H     0.14440   0.23584   0.38615   0.00000  Uiso   1.00
H72    H     0.26784   0.16997   0.07158   0.00000  Uiso   1.00
H73    H     0.29523   0.26829   0.04944   0.00000  Uiso   1.00
H74    H     0.27252   0.25490   0.09914   0.00000  Uiso   1.00
H75    H     0.32913   0.19896   0.12287   0.00000  Uiso   1.00
H76    H     0.01620   0.25540   0.11372   0.00000  Uiso   1.00
H77    H     0.01849   0.21173   0.07228   0.00000  Uiso   1.00
H78    H     0.23995   0.08168   0.01122   0.00000  Uiso   1.00
H79    H     0.23756   0.08276   0.45115   0.00000  Uiso   1.00
H80    H     0.20984   0.00350   0.00901   0.00000  Uiso   1.00
H81    H     0.20171   0.00525   0.44877   0.00000  Uiso   1.00
H82    H     0.11526   0.11887   0.10695   0.00000  Uiso   1.00
H83    H     0.27923   0.01344   0.44836   0.00000  Uiso   1.00
H84    H     0.26466   0.29462   0.47493   0.00000  Uiso   1.00
H85    H     0.28615   0.00867   0.00873   0.00000  Uiso   1.00
H86    H     0.10674   0.23372   0.02129   0.00000  Uiso   1.00
H87    H     0.08370   0.21418   0.46681   0.00000  Uiso   1.00
H88    H     0.10009   0.31490   0.49376   0.00000  Uiso   1.00
H89    H     0.07731   0.29474   0.43963   0.00000  Uiso   1.00
H90    H     0.01973   0.25660   0.47697   0.00000  Uiso   1.00
H91    H     0.02196   0.31791   0.48227   0.00000  Uiso   1.00
H92    H     0.04200   0.28228   0.02926   0.00000  Uiso   1.00
H93    H     0.03796   0.09572   0.26633   0.00000  Uiso   1.00
H94    H     0.04797   0.13446   0.49167   0.00000  Uiso   1.00
H95    H     0.06317   0.15493   0.04681   0.00000  Uiso   1.00
H96    H     0.04251   0.05526   0.01774   0.00000  Uiso   1.00
H97    H     0.06319   0.07024   0.07394   0.00000  Uiso   1.00
H98    H     0.00243   0.12077   0.07921   0.00000  Uiso   1.00
H99    H     0.31978   0.06283   0.06579   0.00000  Uiso   1.00
H100   H     0.31477   0.10627   0.02236   0.00000  Uiso   1.00
H101   H     0.29511   0.24112   0.23807   0.00000  Uiso   1.00
H102   H     0.29649   0.09423   0.25384   0.00000  Uiso   1.00
H103   H     0.03663   0.24081   0.23765   0.00000  Uiso   1.00
H104   H     0.06364   0.03355   0.23920   0.00000  Uiso   1.00
N105   N     0.16667   0.28402   0.25000   0.00000  Uiso   1.00
N106   N     0.16667   0.04931   0.25000   0.00000  Uiso   1.00
O107   O     0.10655   0.20625   0.24999   0.00000  Uiso   1.00
O108   O     0.18038   0.08429   0.47848   0.00000  Uiso   1.00
O109   O     0.14353   0.24526   0.47136   0.00000  Uiso   1.00
O110   O     0.10644   0.11388   0.01759   0.00000  Uiso   1.00
O111   O     0.22679   0.12709   0.25001   0.00000  Uiso   1.00
O112   O     0.22679   0.20625   0.25000   0.00000  Uiso   1.00
O113   O     0.10655   0.12709   0.25000   0.00000  Uiso   1.00
O114   O     0.16666   0.20626   0.18573   0.00000  Uiso   1.00
O115   O     0.16667   0.12707   0.31427   0.00000  Uiso   1.00
O116   O     0.16667   0.20626   0.31427   0.00000  Uiso   1.00
O117   O     0.16666   0.12707   0.18573   0.00000  Uiso   1.00
O118   O     0.22619   0.21484   0.03167   0.00000  Uiso   1.00
C119   C     0.42091   0.16675   0.25016   0.00000  Uiso   1.00
C120   C     0.64480   0.20893   0.24278   0.00000  Uiso   1.00
C121   C     0.64556   0.12663   0.25301   0.00000  Uiso   1.00
C122   C     0.35423   0.20877   0.24298   0.00000  Uiso   1.00
C123   C     0.52979   0.19051   0.05156   0.00000  Uiso   1.00
C124   C     0.50750   0.12489   0.45455   0.00000  Uiso   1.00
C125   C     0.48680   0.20515   0.45123   0.00000  Uiso   1.00
C126   C     0.46892   0.13981   0.04451   0.00000  Uiso   1.00
C127   C     0.52843   0.19266   0.09774   0.00000  Uiso   1.00
C128   C     0.50648   0.12526   0.40804   0.00000  Uiso   1.00
C129   C     0.48692   0.20510   0.40504   0.00000  Uiso   1.00
C130   C     0.57901   0.16693   0.24917   0.00000  Uiso   1.00
C131   C     0.47050   0.13941   0.09112   0.00000  Uiso   1.00
C132   C     0.49933   0.16669   0.11729   0.00000  Uiso   1.00
C133   C     0.49777   0.16567   0.38330   0.00000  Uiso   1.00
C134   C     0.49916   0.16490   0.02495   0.00000  Uiso   1.00
C135   C     0.49799   0.16507   0.47623   0.00000  Uiso   1.00
C136   C     0.62360   0.16759   0.24793   0.00000  Uiso   1.00
C137   C     0.37620   0.16756   0.25041   0.00000  Uiso   1.00
C138   C     0.43824   0.04885   0.18900   0.00000  Uiso   1.00
C139   C     0.39496   0.04044   0.20271   0.00000  Uiso   1.00
C140   C     0.55647   0.28258   0.31599   0.00000  Uiso   1.00
C141   C     0.49969   0.16679   0.16535   0.00000  Uiso   1.00
C142   C     0.54787   0.28814   0.36447   0.00000  Uiso   1.00
C143   C     0.55736   0.04997   0.31588   0.00000  Uiso   1.00
C144   C     0.60393   0.04111   0.31665   0.00000  Uiso   1.00
C145   C     0.45192   0.28462   0.17724   0.00000  Uiso   1.00
C146   C     0.47654   0.28737   0.13713   0.00000  Uiso   1.00
C147   C     0.60017   0.20081   0.04922   0.00000  Uiso   1.00
C148   C     0.62393   0.24063   0.07378   0.00000  Uiso   1.00
C149   C     0.66622   0.22557   0.09707   0.00000  Uiso   1.00
C150   C     0.55518   0.06964   0.47961   0.00000  Uiso   1.00
C151   C     0.55551   0.01735   0.47885   0.00000  Uiso   1.00
C152   C     0.49940   0.16642   0.33487   0.00000  Uiso   1.00
C153   C     0.59916   0.33250   0.47766   0.00000  Uiso   1.00
C154   C     0.43682   0.24143   0.48482   0.00000  Uiso   1.00
C155   C     0.41450   0.28706   0.47613   0.00000  Uiso   1.00
C156   C     0.37191   0.28569   0.49223   0.00000  Uiso   1.00
C157   C     0.39875   0.12495   0.02460   0.00000  Uiso   1.00
C158   C     0.37781   0.08295   0.04288   0.00000  Uiso   1.00
C159   C     0.33429   0.09404   0.05312   0.00000  Uiso   1.00
C160   C     0.47251   0.02464   0.21999   0.00000  Uiso   1.00
C161   C     0.52647   0.30836   0.28128   0.00000  Uiso   1.00
C162   C     0.52768   0.02467   0.28027   0.00000  Uiso   1.00
C163   C     0.47478   0.30878   0.21793   0.00000  Uiso   1.00
C164   C     0.35498   0.12708   0.25747   0.00000  Uiso   1.00
Cu165  Cu    0.50000   0.21355   0.25000   0.00000  Uiso   1.00
Cu166  Cu    0.50000   0.11978   0.25000   0.00000  Uiso   1.00
H167   H     0.55074   0.21334   0.11863   0.00000  Uiso   1.00
H168   H     0.37532   0.07077   0.19330   0.00000  Uiso   1.00
H169   H     0.37822   0.01154   0.18495   0.00000  Uiso   1.00
H170   H     0.44261   0.08562   0.18775   0.00000  Uiso   1.00
H171   H     0.43833   0.03926   0.15363   0.00000  Uiso   1.00
H172   H     0.51565   0.29973   0.36594   0.00000  Uiso   1.00
H173   H     0.55292   0.25516   0.38290   0.00000  Uiso   1.00
H174   H     0.56995   0.31255   0.38263   0.00000  Uiso   1.00
H175   H     0.55686   0.24634   0.31043   0.00000  Uiso   1.00
H176   H     0.58897   0.29041   0.31208   0.00000  Uiso   1.00
H177   H     0.61081   0.02712   0.28432   0.00000  Uiso   1.00
H178   H     0.51275   0.09387   0.39153   0.00000  Uiso   1.00
H179   H     0.62179   0.07331   0.32408   0.00000  Uiso   1.00
H180   H     0.61589   0.01790   0.34455   0.00000  Uiso   1.00
H181   H     0.55522   0.08650   0.31208   0.00000  Uiso   1.00
H182   H     0.54792   0.04376   0.34933   0.00000  Uiso   1.00
H183   H     0.50977   0.27946   0.14728   0.00000  Uiso   1.00
H184   H     0.46326   0.26281   0.11112   0.00000  Uiso   1.00
H185   H     0.47506   0.32204   0.12182   0.00000  Uiso   1.00
H186   H     0.44346   0.24937   0.18486   0.00000  Uiso   1.00
H187   H     0.42103   0.29838   0.16619   0.00000  Uiso   1.00
H188   H     0.61656   0.19113   0.02061   0.00000  Uiso   1.00
H189   H     0.47773   0.23584   0.38615   0.00000  Uiso   1.00
H190   H     0.60118   0.16997   0.07158   0.00000  Uiso   1.00
H191   H     0.62856   0.26829   0.04944   0.00000  Uiso   1.00
H192   H     0.60586   0.25490   0.09914   0.00000  Uiso   1.00
H193   H     0.66247   0.19896   0.12287   0.00000  Uiso   1.00
H194   H     0.34953   0.25540   0.11372   0.00000  Uiso   1.00
H195   H     0.35182   0.21173   0.07228   0.00000  Uiso   1.00
H196   H     0.57328   0.08168   0.01122   0.00000  Uiso   1.00
H197   H     0.57089   0.08276   0.45115   0.00000  Uiso   1.00
H198   H     0.54317   0.00350   0.00901   0.00000  Uiso   1.00
H199   H     0.53504   0.00525   0.44877   0.00000  Uiso   1.00
H200   H     0.44860   0.11887   0.10695   0.00000  Uiso   1.00
H201   H     0.61257   0.01344   0.44836   0.00000  Uiso   1.00
H202   H     0.59799   0.29462   0.47493   0.00000  Uiso   1.00
H203   H     0.61948   0.00867   0.00873   0.00000  Uiso   1.00
H204   H     0.44008   0.23372   0.02129   0.00000  Uiso   1.00
H205   H     0.41703   0.21418   0.46681   0.00000  Uiso   1.00
H206   H     0.43342   0.31490   0.49376   0.00000  Uiso   1.00
H207   H     0.41065   0.29474   0.43963   0.00000  Uiso   1.00
H208   H     0.35306   0.25660   0.47697   0.00000  Uiso   1.00
H209   H     0.35529   0.31791   0.48227   0.00000  Uiso   1.00
H210   H     0.37533   0.28228   0.02926   0.00000  Uiso   1.00
H211   H     0.37130   0.09572   0.26633   0.00000  Uiso   1.00
H212   H     0.38130   0.13446   0.49167   0.00000  Uiso   1.00
H213   H     0.39650   0.15493   0.04681   0.00000  Uiso   1.00
H214   H     0.37584   0.05526   0.01774   0.00000  Uiso   1.00
H215   H     0.39652   0.07024   0.07394   0.00000  Uiso   1.00
H216   H     0.33576   0.12077   0.07921   0.00000  Uiso   1.00
H217   H     0.65311   0.06283   0.06579   0.00000  Uiso   1.00
H218   H     0.64811   0.10627   0.02236   0.00000  Uiso   1.00
H219   H     0.62844   0.24112   0.23807   0.00000  Uiso   1.00
H220   H     0.62982   0.09423   0.25384   0.00000  Uiso   1.00
H221   H     0.36996   0.24081   0.23765   0.00000  Uiso   1.00
H222   H     0.39697   0.03355   0.23920   0.00000  Uiso   1.00
N223   N     0.50000   0.28402   0.25000   0.00000  Uiso   1.00
N224   N     0.50000   0.04931   0.25000   0.00000  Uiso   1.00
O225   O     0.43988   0.20625   0.24999   0.00000  Uiso   1.00
O226   O     0.51371   0.08429   0.47848   0.00000  Uiso   1.00
O227   O     0.47686   0.24526   0.47136   0.00000  Uiso   1.00
O228   O     0.43977   0.11388   0.01759   0.00000  Uiso   1.00
O229   O     0.56012   0.12709   0.25001   0.00000  Uiso   1.00
O230   O     0.56012   0.20625   0.25000   0.00000  Uiso   1.00
O231   O     0.43988   0.12709   0.25000   0.00000  Uiso   1.00
O232   O     0.50000   0.20626   0.18573   0.00000  Uiso   1.00
O233   O     0.50000   0.12707   0.31427   0.00000  Uiso   1.00
O234   O     0.50000   0.20626   0.31427   0.00000  Uiso   1.00
O235   O     0.50000   0.12707   0.18573   0.00000  Uiso   1.00
O236   O     0.55952   0.21484   0.03167   0.00000  Uiso   1.00
C237   C     0.75424   0.16675   0.25016   0.00000  Uiso   1.00
C238   C     0.97814   0.20893   0.24278   0.00000  Uiso   1.00
C239   C     0.97890   0.12663   0.25301   0.00000  Uiso   1.00
C240   C     0.68756   0.20877   0.24298   0.00000  Uiso   1.00
C241   C     0.86313   0.19051   0.05156   0.00000  Uiso   1.00
C242   C     0.84084   0.12489   0.45455   0.00000  Uiso   1.00
C243   C     0.82013   0.20515   0.45123   0.00000  Uiso   1.00
C244   C     0.80225   0.13981   0.04451   0.00000  Uiso   1.00
C245   C     0.86176   0.19266   0.09774   0.00000  Uiso   1.00
C246   C     0.83981   0.12526   0.40804   0.00000  Uiso   1.00
C247   C     0.82025   0.20510   0.40504   0.00000  Uiso   1.00
C248   C     0.91234   0.16693   0.24917   0.00000  Uiso   1.00
C249   C     0.80383   0.13941   0.09112   0.00000  Uiso   1.00
C250   C     0.83266   0.16669   0.11729   0.00000  Uiso   1.00
C251   C     0.83111   0.16567   0.38330   0.00000  Uiso   1.00
C252   C     0.83249   0.16490   0.02495   0.00000  Uiso   1.00
C253   C     0.83133   0.16507   0.47623   0.00000  Uiso   1.00
C254   C     0.95694   0.16759   0.24793   0.00000  Uiso   1.00
C255   C     0.70954   0.16756   0.25041   0.00000  Uiso   1.00
C256   C     0.77157   0.04885   0.18900   0.00000  Uiso   1.00
C257   C     0.72829   0.04044   0.20271   0.00000  Uiso   1.00
C258   C     0.88980   0.28258   0.31599   0.00000  Uiso   1.00
C259   C     0.83303   0.16679   0.16535   0.00000  Uiso   1.00
C260   C     0.88121   0.28814   0.36447   0.00000  Uiso   1.00
C261   C     0.89070   0.04997   0.31588   0.00000  Uiso   1.00
C262   C     0.93726   0.04111   0.31665   0.00000  Uiso   1.00
C263   C     0.78526   0.28462   0.17724   0.00000  Uiso   1.00
C264   C     0.80987   0.28737   0.13713   0.00000  Uiso   1.00
C265   C     0.93350   0.20081   0.04922   0.00000  Uiso   1.00
C266   C     0.95726   0.24063   0.07378   0.00000  Uiso   1.00
C267   C     0.99956   0.22557   0.09707   0.00000  Uiso   1.00
C268   C     0.88851   0.06964   0.47961   0.00000  Uiso   1.00
C269   C     0.88884   0.01735   0.47885   0.00000  Uiso   1.00
C270   C     0.83273   0.16642   0.33487   0.00000  Uiso   1.00
C271   C     0.93250   0.33250   0.47766   0.00000  Uiso   1.00
C272   C     0.77016   0.24143   0.48482   0.00000  Uiso   1.00
C273   C     0.74783   0.28706   0.47613   0.00000  Uiso   1.00
C274   C     0.70524   0.28569   0.49223   0.00000  Uiso   1.00
C275   C     0.73208   0.12495   0.02460   0.00000  Uiso   1.00
C276   C     0.71114   0.08295   0.04288   0.00000  Uiso   1.00
C277   C     0.66762   0.09404   0.05312   0.00000  Uiso   1.00
C278   C     0.80585   0.02464   0.21999   0.00000  Uiso   1.00
C279   C     0.85980   0.30836   0.28128   0.00000  Uiso   1.00
C280   C     0.86101   0.02467   0.28027   0.00000  Uiso   1.00
C281   C     0.80811   0.30878   0.21793   0.00000  Uiso   1.00
C282   C     0.68831   0.12708   0.25747   0.00000  Uiso   1.00
Cu283  Cu    0.83333   0.21355   0.25000   0.00000  Uiso   1.00
Cu284  Cu    0.83333   0.11978   0.25000   0.00000  Uiso   1.00
H285   H     0.88407   0.21334   0.11863   0.00000  Uiso   1.00
H286   H     0.70865   0.07077   0.19330   0.00000  Uiso   1.00
H287   H     0.71155   0.01154   0.18495   0.00000  Uiso   1.00
H288   H     0.77595   0.08562   0.18775   0.00000  Uiso   1.00
H289   H     0.77167   0.03926   0.15363   0.00000  Uiso   1.00
H290   H     0.84898   0.29973   0.36594   0.00000  Uiso   1.00
H291   H     0.88625   0.25516   0.38290   0.00000  Uiso   1.00
H292   H     0.90328   0.31255   0.38263   0.00000  Uiso   1.00
H293   H     0.89020   0.24634   0.31043   0.00000  Uiso   1.00
H294   H     0.92230   0.29041   0.31208   0.00000  Uiso   1.00
H295   H     0.94414   0.02712   0.28432   0.00000  Uiso   1.00
H296   H     0.84608   0.09387   0.39153   0.00000  Uiso   1.00
H297   H     0.95513   0.07331   0.32408   0.00000  Uiso   1.00
H298   H     0.94922   0.01790   0.34455   0.00000  Uiso   1.00
H299   H     0.88856   0.08650   0.31208   0.00000  Uiso   1.00
H300   H     0.88126   0.04376   0.34933   0.00000  Uiso   1.00
H301   H     0.84311   0.27946   0.14728   0.00000  Uiso   1.00
H302   H     0.79659   0.26281   0.11112   0.00000  Uiso   1.00
H303   H     0.80839   0.32204   0.12182   0.00000  Uiso   1.00
H304   H     0.77679   0.24937   0.18486   0.00000  Uiso   1.00
H305   H     0.75436   0.29838   0.16619   0.00000  Uiso   1.00
H306   H     0.94989   0.19113   0.02061   0.00000  Uiso   1.00
H307   H     0.81107   0.23584   0.38615   0.00000  Uiso   1.00
H308   H     0.93451   0.16997   0.07158   0.00000  Uiso   1.00
H309   H     0.96189   0.26829   0.04944   0.00000  Uiso   1.00
H310   H     0.93919   0.25490   0.09914   0.00000  Uiso   1.00
H311   H     0.99580   0.19896   0.12287   0.00000  Uiso   1.00
H312   H     0.68286   0.25540   0.11372   0.00000  Uiso   1.00
H313   H     0.68516   0.21173   0.07228   0.00000  Uiso   1.00
H314   H     0.90661   0.08168   0.01122   0.00000  Uiso   1.00
H315   H     0.90422   0.08276   0.45115   0.00000  Uiso   1.00
H316   H     0.87650   0.00350   0.00901   0.00000  Uiso   1.00
H317   H     0.86838   0.00525   0.44877   0.00000  Uiso   1.00
H318   H     0.78193   0.11887   0.10695   0.00000  Uiso   1.00
H319   H     0.94590   0.01344   0.44836   0.00000  Uiso   1.00
H320   H     0.93132   0.29462   0.47493   0.00000  Uiso   1.00
H321   H     0.95282   0.00867   0.00873   0.00000  Uiso   1.00
H322   H     0.77341   0.23372   0.02129   0.00000  Uiso   1.00
H323   H     0.75037   0.21418   0.46681   0.00000  Uiso   1.00
H324   H     0.76675   0.31490   0.49376   0.00000  Uiso   1.00
H325   H     0.74398   0.29474   0.43963   0.00000  Uiso   1.00
H326   H     0.68640   0.25660   0.47697   0.00000  Uiso   1.00
H327   H     0.68862   0.31791   0.48227   0.00000  Uiso   1.00
H328   H     0.70866   0.28228   0.02926   0.00000  Uiso   1.00
H329   H     0.70463   0.09572   0.26633   0.00000  Uiso   1.00
H330   H     0.71463   0.13446   0.49167   0.00000  Uiso   1.00
H331   H     0.72983   0.15493   0.04681   0.00000  Uiso   1.00
H332   H     0.70917   0.05526   0.01774   0.00000  Uiso   1.00
H333   H     0.72985   0.07024   0.07394   0.00000  Uiso   1.00
H334   H     0.66909   0.12077   0.07921   0.00000  Uiso   1.00
H335   H     0.98644   0.06283   0.06579   0.00000  Uiso   1.00
H336   H     0.98144   0.10627   0.02236   0.00000  Uiso   1.00
H337   H     0.96178   0.24112   0.23807   0.00000  Uiso   1.00
H338   H     0.96315   0.09423   0.25384   0.00000  Uiso   1.00
H339   H     0.70330   0.24081   0.23765   0.00000  Uiso   1.00
H340   H     0.73031   0.03355   0.23920   0.00000  Uiso   1.00
N341   N     0.83333   0.28402   0.25000   0.00000  Uiso   1.00
N342   N     0.83333   0.04931   0.25000   0.00000  Uiso   1.00
O343   O     0.77321   0.20625   0.24999   0.00000  Uiso   1.00
O344   O     0.84705   0.08429   0.47848   0.00000  Uiso   1.00
O345   O     0.81019   0.24526   0.47136   0.00000  Uiso   1.00
O346   O     0.77310   0.11388   0.01759   0.00000  Uiso   1.00
O347   O     0.89345   0.12709   0.25001   0.00000  Uiso   1.00
O348   O     0.89345   0.20625   0.25000   0.00000  Uiso   1.00
O349   O     0.77321   0.12709   0.25000   0.00000  Uiso   1.00
O350   O     0.83333   0.20626   0.18573   0.00000  Uiso   1.00
O351   O     0.83334   0.12707   0.31427   0.00000  Uiso   1.00
O352   O     0.83334   0.20626   0.31427   0.00000  Uiso   1.00
O353   O     0.83333   0.12707   0.18573   0.00000  Uiso   1.00
O354   O     0.89285   0.21484   0.03167   0.00000  Uiso   1.00
C355   C     0.08757   0.50008   0.25016   0.00000  Uiso   1.00
C356   C     0.31147   0.54226   0.24278   0.00000  Uiso   1.00
C357   C     0.31223   0.45996   0.25301   0.00000  Uiso   1.00
C358   C     0.02090   0.54210   0.24298   0.00000  Uiso   1.00
C359   C     0.19646   0.52384   0.05156   0.00000  Uiso   1.00
C360   C     0.17417   0.45822   0.45455   0.00000  Uiso   1.00
C361   C     0.15347   0.53848   0.45123   0.00000  Uiso   1.00
C362   C     0.13559   0.47314   0.04451   0.00000  Uiso   1.00
C363   C     0.19510   0.52599   0.09774   0.00000  Uiso   1.00
C364   C     0.17314   0.45860   0.40804   0.00000  Uiso   1.00
C365   C     0.15358   0.53843   0.40504   0.00000  Uiso   1.00
C366   C     0.24568   0.50027   0.24917   0.00000  Uiso   1.00
C367   C     0.13717   0.47274   0.09112   0.00000  Uiso   1.00
C368   C     0.16599   0.50003   0.11729   0.00000  Uiso   1.00
C369   C     0.16444   0.49901   0.38330   0.00000  Uiso   1.00
C370   C     0.16582   0.49824   0.02495   0.00000  Uiso   1.00
C371   C     0.16466   0.49841   0.47623   0.00000  Uiso   1.00
C372   C     0.29027   0.50093   0.24793   0.00000  Uiso   1.00
C373   C     0.04287   0.50090   0.25041   0.00000  Uiso   1.00
C374   C     0.10491   0.38219   0.18900   0.00000  Uiso   1.00
C375   C     0.06163   0.37377   0.20271   0.00000  Uiso   1.00
C376   C     0.22313   0.61592   0.31599   0.00000  Uiso   1.00
C377   C     0.16636   0.50013   0.16535   0.00000  Uiso   1.00
C378   C     0.21454   0.62148   0.36447   0.00000  Uiso   1.00
C379   C     0.22403   0.38331   0.31588   0.00000  Uiso   1.00
C380   C     0.27059   0.37444   0.31665   0.00000  Uiso   1.00
C381   C     0.11859   0.61796   0.17724   0.00000  Uiso   1.00
C382   C     0.14320   0.62070   0.13713   0.00000  Uiso   1.00
C383   C     0.26683   0.53414   0.04922   0.00000  Uiso   1.00
C384   C     0.29060   0.57396   0.07378   0.00000  Uiso   1.00
C385   C     0.33289   0.55890   0.09707   0.00000  Uiso   1.00
C386   C     0.22185   0.40297   0.47961   0.00000  Uiso   1.00
C387   C     0.22218   0.35068   0.47885   0.00000  Uiso   1.00
C388   C     0.16606   0.49975   0.33487   0.00000  Uiso   1.00
C389   C     0.26583   0.66584   0.47766   0.00000  Uiso   1.00
C390   C     0.10349   0.57477   0.48482   0.00000  Uiso   1.00
C391   C     0.08116   0.62040   0.47613   0.00000  Uiso   1.00
C392   C     0.03857   0.61902   0.49223   0.00000  Uiso   1.00
C393   C     0.06542   0.45828   0.02460   0.00000  Uiso   1.00
C394   C     0.04447   0.41628   0.04288   0.00000  Uiso   1.00
C395   C     0.00095   0.42737   0.05312   0.00000  Uiso   1.00
C396   C     0.13918   0.35797   0.21999   0.00000  Uiso   1.00
C397   C     0.19314   0.64170   0.28128   0.00000  Uiso   1.00
C398   C     0.19434   0.35800   0.28027   0.00000  Uiso   1.00
C399   C     0.14145   0.64212   0.21793   0.00000  Uiso   1.00
C400   C     0.02164   0.46041   0.25747   0.00000  Uiso   1.00
Cu401  Cu    0.16667   0.54689   0.25000   0.00000  Uiso   1.00
Cu402  Cu    0.16667   0.45311   0.25000   0.00000  Uiso   1.00
H403   H     0.21741   0.54668   0.11863   0.00000  Uiso   1.00
H404   H     0.04199   0.40410   0.19330   0.00000  Uiso   1.00
H405   H     0.04488   0.34487   0.18495   0.00000  Uiso   1.00
H406   H     0.10928   0.41895   0.18775   0.00000  Uiso   1.00
H407   H     0.10500   0.37259   0.15363   0.00000  Uiso   1.00
H408   H     0.18232   0.63307   0.36594   0.00000  Uiso   1.00
H409   H     0.21958   0.58850   0.38290   0.00000  Uiso   1.00
H410   H     0.23662   0.64589   0.38263   0.00000  Uiso   1.00
H411   H     0.22353   0.57968   0.31043   0.00000  Uiso   1.00
H412   H     0.25563   0.62374   0.31208   0.00000  Uiso   1.00
H413   H     0.27747   0.36045   0.28432   0.00000  Uiso   1.00
H414   H     0.17941   0.42720   0.39153   0.00000  Uiso   1.00
H415   H     0.28846   0.40664   0.32408   0.00000  Uiso   1.00
H416   H     0.28255   0.35123   0.34455   0.00000  Uiso   1.00
H417   H     0.22189   0.41983   0.31208   0.00000  Uiso   1.00
H418   H     0.21459   0.37709   0.34933   0.00000  Uiso   1.00
H419   H     0.17644   0.61280   0.14728   0.00000  Uiso   1.00
H420   H     0.12993   0.59614   0.11112   0.00000  Uiso   1.00
H421   H     0.14172   0.65537   0.12182   0.00000  Uiso   1.00
H422   H     0.11012   0.58270   0.18486   0.00000  Uiso   1.00
H423   H     0.08769   0.63171   0.16619   0.00000  Uiso   1.00
H424   H     0.28322   0.52446   0.02061   0.00000  Uiso   1.00
H425   H     0.14440   0.56917   0.38615   0.00000  Uiso   1.00
H426   H     0.26784   0.50330   0.07158   0.00000  Uiso   1.00
H427   H     0.29523   0.60163   0.04944   0.00000  Uiso   1.00
H428   H     0.27252   0.58823   0.09914   0.00000  Uiso   1.00
H429   H     0.32913   0.53230   0.12287   0.00000  Uiso   1.00
H430   H     0.01620   0.58873   0.11372   0.00000  Uiso   1.00
H431   H     0.01849   0.54506   0.07228   0.00000  Uiso   1.00
H432   H     0.23995   0.41502   0.01122   0.00000  Uiso   1.00
H433   H     0.23756   0.41610   0.45115   0.00000  Uiso   1.00
H434   H     0.20984   0.33683   0.00901   0.00000  Uiso   1.00
H435   H     0.20171   0.33858   0.44877   0.00000  Uiso   1.00
H436   H     0.11526   0.45220   0.10695   0.00000  Uiso   1.00
H437   H     0.27923   0.34677   0.44836   0.00000  Uiso   1.00
H438   H     0.26466   0.62795   0.47493   0.00000  Uiso   1.00
H439   H     0.28615   0.34201   0.00873   0.00000  Uiso   1.00
H440   H     0.10674   0.56705   0.02129   0.00000  Uiso   1.00
H441   H     0.08370   0.54751   0.46681   0.00000  Uiso   1.00
H442   H     0.10009   0.64823   0.49376   0.00000  Uiso   1.00
H443   H     0.07731   0.62808   0.43963   0.00000  Uiso   1.00
H444   H     0.01973   0.58994   0.47697   0.00000  Uiso   1.00
H445   H     0.02196   0.65124   0.48227   0.00000  Uiso   1.00
H446   H     0.04200   0.61561   0.02926   0.00000  Uiso   1.00
H447   H     0.03796   0.42905   0.26633   0.00000  Uiso   1.00
H448   H     0.04797   0.46779   0.49167   0.00000  Uiso   1.00
H449   H     0.06317   0.48826   0.04681   0.00000  Uiso   1.00
H450   H     0.04251   0.38859   0.01774   0.00000  Uiso   1.00
H451   H     0.06319   0.40358   0.07394   0.00000  Uiso   1.00
H452   H     0.00243   0.45411   0.07921   0.00000  Uiso   1.00
H453   H     0.31978   0.39617   0.06579   0.00000  Uiso   1.00
H454   H     0.31477   0.43960   0.02236   0.00000  Uiso   1.00
H455   H     0.29511   0.57446   0.23807   0.00000  Uiso   1.00
H456   H     0.29649   0.42756   0.25384   0.00000  Uiso   1.00
H457   H     0.03663   0.57414   0.23765   0.00000  Uiso   1.00
H458   H     0.06364   0.36689   0.23920   0.00000  Uiso   1.00
N459   N     0.16667   0.61736   0.25000   0.00000  Uiso   1.00
N460   N     0.16667   0.38264   0.25000   0.00000  Uiso   1.00
O461   O     0.10655   0.53958   0.24999   0.00000  Uiso   1.00
O462   O     0.18038   0.41762   0.47848   0.00000  Uiso   1.00
O463   O     0.14353   0.57859   0.47136   0.00000  Uiso   1.00
O464   O     0.10644   0.44722   0.01759   0.00000  Uiso   1.00
O465   O     0.22679   0.46042   0.25001   0.00000  Uiso   1.00
O466   O     0.22679   0.53958   0.25000   0.00000  Uiso   1.00
O467   O     0.10655   0.46042   0.25000   0.00000  Uiso   1.00
O468   O     0.16666   0.53959   0.18573   0.00000  Uiso   1.00
O469   O     0.16667   0.46041   0.31427   0.00000  Uiso   1.00
O470   O     0.16667   0.53959   0.31427   0.00000  Uiso   1.00
O471   O     0.16666   0.46041   0.18573   0.00000  Uiso   1.00
O472   O     0.22619   0.54817   0.03167   0.00000  Uiso   1.00
C473   C     0.42091   0.50008   0.25016   0.00000  Uiso   1.00
C474   C     0.64480   0.54226   0.24278   0.00000  Uiso   1.00
C475   C     0.64556   0.45996   0.25301   0.00000  Uiso   1.00
C476   C     0.35423   0.54210   0.24298   0.00000  Uiso   1.00
C477   C     0.52979   0.52384   0.05156   0.00000  Uiso   1.00
C478   C     0.50750   0.45822   0.45455   0.00000  Uiso   1.00
C479   C     0.48680   0.53848   0.45123   0.00000  Uiso   1.00
C480   C     0.46892   0.47314   0.04451   0.00000  Uiso   1.00
C481   C     0.52843   0.52599   0.09774   0.00000  Uiso   1.00
C482   C     0.50648   0.45860   0.40804   0.00000  Uiso   1.00
C483   C     0.48692   0.53843   0.40504   0.00000  Uiso   1.00
C484   C     0.57901   0.50027   0.24917   0.00000  Uiso   1.00
C485   C     0.47050   0.47274   0.09112   0.00000  Uiso   1.00
C486   C     0.49933   0.50003   0.11729   0.00000  Uiso   1.00
C487   C     0.49777   0.49901   0.38330   0.00000  Uiso   1.00
C488   C     0.49916   0.49824   0.02495   0.00000  Uiso   1.00
C489   C     0.49799   0.49841   0.47623   0.00000  Uiso   1.00
C490   C     0.62360   0.50093   0.24793   0.00000  Uiso   1.00
C491   C     0.37620   0.50090   0.25041   0.00000  Uiso   1.00
C492   C     0.43824   0.38219   0.18900   0.00000  Uiso   1.00
C493   C     0.39496   0.37377   0.20271   0.00000  Uiso   1.00
C494   C     0.55647   0.61592   0.31599   0.00000  Uiso   1.00
C495   C     0.49969   0.50013   0.16535   0.00000  Uiso   1.00
C496   C     0.54787   0.62148   0.36447   0.00000  Uiso   1.00
C497   C     0.55736   0.38331   0.31588   0.00000  Uiso   1.00
C498   C     0.60393   0.37444   0.31665   0.00000  Uiso   1.00
C499   C     0.45192   0.61796   0.17724   0.00000  Uiso   1.00
C500   C     0.47654   0.62070   0.13713   0.00000  Uiso   1.00
C501   C     0.60017   0.53414   0.04922   0.00000  Uiso   1.00
C502   C     0.62393   0.57396   0.07378   0.00000  Uiso   1.00
C503   C     0.66622   0.55890   0.09707   0.00000  Uiso   1.00
C504   C     0.55518   0.40297   0.47961   0.00000  Uiso   1.00
C505   C     0.55551   0.35068   0.47885   0.00000  Uiso   1.00
C506   C     0.49940   0.49975   0.33487   0.00000  Uiso   1.00
C507   C     0.59916   0.66584   0.47766   0.00000  Uiso   1.00
C508   C     0.43682   0.57477   0.48482   0.00000  Uiso   1.00
C509   C     0.41450   0.62040   0.47613   0.00000  Uiso   1.00
C510   C     0.37191   0.61902   0.49223   0.00000  Uiso   1.00
C511   C     0.39875   0.45828   0.02460   0.00000  Uiso   1.00
C512   C     0.37781   0.41628   0.04288   0.00000  Uiso   1.00
C513   C     0.33429   0.42737   0.05312   0.00000  Uiso   1.00
C514   C     0.47251   0.35797   0.21999   0.00000  Uiso   1.00
C515   C     0.52647   0.64170   0.28128   0.00000  Uiso   1.00
C516   C     0.52768   0.35800   0.28027   0.00000  Uiso   1.00
C517   C     0.47478   0.64212   0.21793   0.00000  Uiso   1.00
C518   C     0.35498   0.46041   0.25747   0.00000  Uiso   1.00
Cu519  Cu    0.50000   0.54689   0.25000   0.00000  Uiso   1.00
Cu520  Cu    0.50000   0.45311   0.25000   0.00000  Uiso   1.00
H521   H     0.55074   0.54668   0.11863   0.00000  Uiso   1.00
H522   H     0.37532   0.40410   0.19330   0.00000  Uiso   1.00
H523   H     0.37822   0.34487   0.18495   0.00000  Uiso   1.00
H524   H     0.44261   0.41895   0.18775   0.00000  Uiso   1.00
H525   H     0.43833   0.37259   0.15363   0.00000  Uiso   1.00
H526   H     0.51565   0.63307   0.36594   0.00000  Uiso   1.00
H527   H     0.55292   0.58850   0.38290   0.00000  Uiso   1.00
H528   H     0.56995   0.64589   0.38263   0.00000  Uiso   1.00
H529   H     0.55686   0.57968   0.31043   0.00000  Uiso   1.00
H530   H     0.58897   0.62374   0.31208   0.00000  Uiso   1.00
H531   H     0.61081   0.36045   0.28432   0.00000  Uiso   1.00
H532   H     0.51275   0.42720   0.39153   0.00000  Uiso   1.00
H533   H     0.62179   0.40664   0.32408   0.00000  Uiso   1.00
H534   H     0.61589   0.35123   0.34455   0.00000  Uiso   1.00
H535   H     0.55522   0.41983   0.31208   0.00000  Uiso   1.00
H536   H     0.54792   0.37709   0.34933   0.00000  Uiso   1.00
H537   H     0.50977   0.61280   0.14728   0.00000  Uiso   1.00
H538   H     0.46326   0.59614   0.11112   0.00000  Uiso   1.00
H539   H     0.47506   0.65537   0.12182   0.00000  Uiso   1.00
H540   H     0.44346   0.58270   0.18486   0.00000  Uiso   1.00
H541   H     0.42103   0.63171   0.16619   0.00000  Uiso   1.00
H542   H     0.61656   0.52446   0.02061   0.00000  Uiso   1.00
H543   H     0.47773   0.56917   0.38615   0.00000  Uiso   1.00
H544   H     0.60118   0.50330   0.07158   0.00000  Uiso   1.00
H545   H     0.62856   0.60163   0.04944   0.00000  Uiso   1.00
H546   H     0.60586   0.58823   0.09914   0.00000  Uiso   1.00
H547   H     0.66247   0.53230   0.12287   0.00000  Uiso   1.00
H548   H     0.34953   0.58873   0.11372   0.00000  Uiso   1.00
H549   H     0.35182   0.54506   0.07228   0.00000  Uiso   1.00
H550   H     0.57328   0.41502   0.01122   0.00000  Uiso   1.00
H551   H     0.57089   0.41610   0.45115   0.00000  Uiso   1.00
H552   H     0.54317   0.33683   0.00901   0.00000  Uiso   1.00
H553   H     0.53504   0.33858   0.44877   0.00000  Uiso   1.00
H554   H     0.44860   0.45220   0.10695   0.00000  Uiso   1.00
H555   H     0.61257   0.34677   0.44836   0.00000  Uiso   1.00
H556   H     0.59799   0.62795   0.47493   0.00000  Uiso   1.00
H557   H     0.61948   0.34201   0.00873   0.00000  Uiso   1.00
H558   H     0.44008   0.56705   0.02129   0.00000  Uiso   1.00
H559   H     0.41703   0.54751   0.46681   0.00000  Uiso   1.00
H560   H     0.43342   0.64823   0.49376   0.00000  Uiso   1.00
H561   H     0.41065   0.62808   0.43963   0.00000  Uiso   1.00
H562   H     0.35306   0.58994   0.47697   0.00000  Uiso   1.00
H563   H     0.35529   0.65124   0.48227   0.00000  Uiso   1.00
H564   H     0.37533   0.61561   0.02926   0.00000  Uiso   1.00
H565   H     0.37130   0.42905   0.26633   0.00000  Uiso   1.00
H566   H     0.38130   0.46779   0.49167   0.00000  Uiso   1.00
H567   H     0.39650   0.48826   0.04681   0.00000  Uiso   1.00
H568   H     0.37584   0.38859   0.01774   0.00000  Uiso   1.00
H569   H     0.39652   0.40358   0.07394   0.00000  Uiso   1.00
H570   H     0.33576   0.45411   0.07921   0.00000  Uiso   1.00
H571   H     0.65311   0.39617   0.06579   0.00000  Uiso   1.00
H572   H     0.64811   0.43960   0.02236   0.00000  Uiso   1.00
H573   H     0.62844   0.57446   0.23807   0.00000  Uiso   1.00
H574   H     0.62982   0.42756   0.25384   0.00000  Uiso   1.00
H575   H     0.36996   0.57414   0.23765   0.00000  Uiso   1.00
H576   H     0.39697   0.36689   0.23920   0.00000  Uiso   1.00
N577   N     0.50000   0.61736   0.25000   0.00000  Uiso   1.00
N578   N     0.50000   0.38264   0.25000   0.00000  Uiso   1.00
O579   O     0.43988   0.53958   0.24999   0.00000  Uiso   1.00
O580   O     0.51371   0.41762   0.47848   0.00000  Uiso   1.00
O581   O     0.47686   0.57859   0.47136   0.00000  Uiso   1.00
O582   O     0.43977   0.44722   0.01759   0.00000  Uiso   1.00
O583   O     0.56012   0.46042   0.25001   0.00000  Uiso   1.00
O584   O     0.56012   0.53958   0.25000   0.00000  Uiso   1.00
O585   O     0.43988   0.46042   0.25000   0.00000  Uiso   1.00
O586   O     0.50000   0.53959   0.18573   0.00000  Uiso   1.00
O587   O     0.50000   0.46041   0.31427   0.00000  Uiso   1.00
O588   O     0.50000   0.53959   0.31427   0.00000  Uiso   1.00
O589   O     0.50000   0.46041   0.18573   0.00000  Uiso   1.00
O590   O     0.55952   0.54817   0.03167   0.00000  Uiso   1.00
C591   C     0.75424   0.50008   0.25016   0.00000  Uiso   1.00
C592   C     0.97814   0.54226   0.24278   0.00000  Uiso   1.00
C593   C     0.97890   0.45996   0.25301   0.00000  Uiso   1.00
C594   C     0.68756   0.54210   0.24298   0.00000  Uiso   1.00
C595   C     0.86313   0.52384   0.05156   0.00000  Uiso   1.00
C596   C     0.84084   0.45822   0.45455   0.00000  Uiso   1.00
C597   C     0.82013   0.53848   0.45123   0.00000  Uiso   1.00
C598   C     0.80225   0.47314   0.04451   0.00000  Uiso   1.00
C599   C     0.86176   0.52599   0.09774   0.00000  Uiso   1.00
C600   C     0.83981   0.45860   0.40804   0.00000  Uiso   1.00
C601   C     0.82025   0.53843   0.40504   0.00000  Uiso   1.00
C602   C     0.91234   0.50027   0.24917   0.00000  Uiso   1.00
C603   C     0.80383   0.47274   0.09112   0.00000  Uiso   1.00
C604   C     0.83266   0.50003   0.11729   0.00000  Uiso   1.00
C605   C     0.83111   0.49901   0.38330   0.00000  Uiso   1.00
C606   C     0.83249   0.49824   0.02495   0.00000  Uiso   1.00
C607   C     0.83133   0.49841   0.47623   0.00000  Uiso   1.00
C608   C     0.95694   0.50093   0.24793   0.00000  Uiso   1.00
C609   C     0.70954   0.50090   0.25041   0.00000  Uiso   1.00
C610   C     0.77157   0.38219   0.18900   0.00000  Uiso   1.00
C611   C     0.72829   0.37377   0.20271   0.00000  Uiso   1.00
C612   C     0.88980   0.61592   0.31599   0.00000  Uiso   1.00
C613   C     0.83303   0.50013   0.16535   0.00000  Uiso   1.00
C614   C     0.88121   0.62148   0.36447   0.00000  Uiso   1.00
C615   C     0.89070   0.38331   0.31588   0.00000  Uiso   1.00
C616   C     0.93726   0.37444   0.31665   0.00000  Uiso   1.00
C617   C     0.78526   0.61796   0.17724   0.00000  Uiso   1.00
C618   C     0.80987   0.62070   0.13713   0.00000  Uiso   1.00
C619   C     0.93350   0.53414   0.04922   0.00000  Uiso   1.00
C620   C     0.95726   0.57396   0.07378   0.00000  Uiso   1.00
C621   C     0.99956   0.55890   0.09707   0.00000  Uiso   1.00
C622   C     0.88851   0.40297   0.47961   0.00000  Uiso   1.00
C623   C     0.88884   0.35068   0.47885   0.00000  Uiso   1.00
C624   C     0.83273   0.49975   0.33487   0.00000  Uiso   1.00
C625   C     0.93250   0.66584   0.47766   0.00000  Uiso   1.00
C626   C     0.77016   0.57477   0.48482   0.00000  Uiso   1.00
C627   C     0.74783   0.62040   0.47613   0.00000  Uiso   1.00
C628   C     0.70524   0.61902   0.49223   0.00000  Uiso   1.00
C629   C     0.73208   0.45828   0.02460   0.00000  Uiso   1.00
C630   C     0.71114   0.41628   0.04288   0.00000  Uiso   1.00
C631   C     0.66762   0.42737   0.05312   0.00000  Uiso   1.00
C632   C     0.80585   0.35797   0.21999   0.00000  Uiso   1.00
C633   C     0.85980   0.64170   0.28128   0.00000  Uiso   1.00
C634   C     0.86101   0.35800   0.28027   0.00000  Uiso   1.00
C635   C     0.80811   0.64212   0.21793   0.00000  Uiso   1.00
C636   C     0.68831   0.46041   0.25747   0.00000  Uiso   1.00
Cu637  Cu    0.83333   0.54689   0.25000   0.00000  Uiso   1.00
Cu638  Cu    0.83333   0.45311   0.25000   0.00000  Uiso   1.00
H639   H     0.88407   0.54668   0.11863   0.00000  Uiso   1.00
H640   H     0.70865   0.40410   0.19330   0.00000  Uiso   1.00
H641   H     0.71155   0.34487   0.18495   0.00000  Uiso   1.00
H642   H     0.77595   0.41895   0.18775   0.00000  Uiso   1.00
H643   H     0.77167   0.37259   0.15363   0.00000  Uiso   1.00
H644   H     0.84898   0.63307   0.36594   0.00000  Uiso   1.00
H645   H     0.88625   0.58850   0.38290   0.00000  Uiso   1.00
H646   H     0.90328   0.64589   0.38263   0.00000  Uiso   1.00
H647   H     0.89020   0.57968   0.31043   0.00000  Uiso   1.00
H648   H     0.92230   0.62374   0.31208   0.00000  Uiso   1.00
H649   H     0.94414   0.36045   0.28432   0.00000  Uiso   1.00
H650   H     0.84608   0.42720   0.39153   0.00000  Uiso   1.00
H651   H     0.95513   0.40664   0.32408   0.00000  Uiso   1.00
H652   H     0.94922   0.35123   0.34455   0.00000  Uiso   1.00
H653   H     0.88856   0.41983   0.31208   0.00000  Uiso   1.00
H654   H     0.88126   0.37709   0.34933   0.00000  Uiso   1.00
H655   H     0.84311   0.61280   0.14728   0.00000  Uiso   1.00
H656   H     0.79659   0.59614   0.11112   0.00000  Uiso   1.00
H657   H     0.80839   0.65537   0.12182   0.00000  Uiso   1.00
H658   H     0.77679   0.58270   0.18486   0.00000  Uiso   1.00
H659   H     0.75436   0.63171   0.16619   0.00000  Uiso   1.00
H660   H     0.94989   0.52446   0.02061   0.00000  Uiso   1.00
H661   H     0.81107   0.56917   0.38615   0.00000  Uiso   1.00
H662   H     0.93451   0.50330   0.07158   0.00000  Uiso   1.00
H663   H     0.96189   0.60163   0.04944   0.00000  Uiso   1.00
H664   H     0.93919   0.58823   0.09914   0.00000  Uiso   1.00
H665   H     0.99580   0.53230   0.12287   0.00000  Uiso   1.00
H666   H     0.68286   0.58873   0.11372   0.00000  Uiso   1.00
H667   H     0.68516   0.54506   0.07228   0.00000  Uiso   1.00
H668   H     0.90661   0.41502   0.01122   0.00000  Uiso   1.00
H669   H     0.90422   0.41610   0.45115   0.00000  Uiso   1.00
H670   H     0.87650   0.33683   0.00901   0.00000  Uiso   1.00
H671   H     0.86838   0.33858   0.44877   0.00000  Uiso   1.00
H672   H     0.78193   0.45220   0.10695   0.00000  Uiso   1.00
H673   H     0.94590   0.34677   0.44836   0.00000  Uiso   1.00
H674   H     0.93132   0.62795   0.47493   0.00000  Uiso   1.00
H675   H     0.95282   0.34201   0.00873   0.00000  Uiso   1.00
H676   H     0.77341   0.56705   0.02129   0.00000  Uiso   1.00
H677   H     0.75037   0.54751   0.46681   0.00000  Uiso   1.00
H678   H     0.76675   0.64823   0.49376   0.00000  Uiso   1.00
H679   H     0.74398   0.62808   0.43963   0.00000  Uiso   1.00
H680   H     0.68640   0.58994   0.47697   0.00000  Uiso   1.00
H681   H     0.68862   0.65124   0.48227   0.00000  Uiso   1.00
H682   H     0.70866   0.61561   0.02926   0.00000  Uiso   1.00
H683   H     0.70463   0.42905   0.26633   0.00000  Uiso   1.00
H684   H     0.71463   0.46779   0.49167   0.00000  Uiso   1.00
H685   H     0.72983   0.48826   0.04681   0.00000  Uiso   1.00
H686   H     0.70917   0.38859   0.01774   0.00000  Uiso   1.00
H687   H     0.72985   0.40358   0.07394   0.00000  Uiso   1.00
H688   H     0.66909   0.45411   0.07921   0.00000  Uiso   1.00
H689   H     0.98644   0.39617   0.06579   0.00000  Uiso   1.00
H690   H     0.98144   0.43960   0.02236   0.00000  Uiso   1.00
H691   H     0.96178   0.57446   0.23807   0.00000  Uiso   1.00
H692   H     0.96315   0.42756   0.25384   0.00000  Uiso   1.00
H693   H     0.70330   0.57414   0.23765   0.00000  Uiso   1.00
H694   H     0.73031   0.36689   0.23920   0.00000  Uiso   1.00
N695   N     0.83333   0.61736   0.25000   0.00000  Uiso   1.00
N696   N     0.83333   0.38264   0.25000   0.00000  Uiso   1.00
O697   O     0.77321   0.53958   0.24999   0.00000  Uiso   1.00
O698   O     0.84705   0.41762   0.47848   0.00000  Uiso   1.00
O699   O     0.81019   0.57859   0.47136   0.00000  Uiso   1.00
O700   O     0.77310   0.44722   0.01759   0.00000  Uiso   1.00
O701   O     0.89345   0.46042   0.25001   0.00000  Uiso   1.00
O702   O     0.89345   0.53958   0.25000   0.00000  Uiso   1.00
O703   O     0.77321   0.46042   0.25000   0.00000  Uiso   1.00
O704   O     0.83333   0.53959   0.18573   0.00000  Uiso   1.00
O705   O     0.83334   0.46041   0.31427   0.00000  Uiso   1.00
O706   O     0.83334   0.53959   0.31427   0.00000  Uiso   1.00
O707   O     0.83333   0.46041   0.18573   0.00000  Uiso   1.00
O708   O     0.89285   0.54817   0.03167   0.00000  Uiso   1.00
C709   C     0.08757   0.83341   0.25016   0.00000  Uiso   1.00
C710   C     0.31147   0.87559   0.24278   0.00000  Uiso   1.00
C711   C     0.31223   0.79329   0.25301   0.00000  Uiso   1.00
C712   C     0.02090   0.87543   0.24298   0.00000  Uiso   1.00
C713   C     0.19646   0.85717   0.05156   0.00000  Uiso   1.00
C714   C     0.17417   0.79156   0.45455   0.00000  Uiso   1.00
C715   C     0.15347   0.87182   0.45123   0.00000  Uiso   1.00
C716   C     0.13559   0.80648   0.04451   0.00000  Uiso   1.00
C717   C     0.19510   0.85932   0.09774   0.00000  Uiso   1.00
C718   C     0.17314   0.79193   0.40804   0.00000  Uiso   1.00
C719   C     0.15358   0.87177   0.40504   0.00000  Uiso   1.00
C720   C     0.24568   0.83360   0.24917   0.00000  Uiso   1.00
C721   C     0.13717   0.80607   0.09112   0.00000  Uiso   1.00
C722   C     0.16599   0.83336   0.11729   0.00000  Uiso   1.00
C723   C     0.16444   0.83234   0.38330   0.00000  Uiso   1.00
C724   C     0.16582   0.83157   0.02495   0.00000  Uiso   1.00
C725   C     0.16466   0.83174   0.47623   0.00000  Uiso   1.00
C726   C     0.29027   0.83426   0.24793   0.00000  Uiso   1.00
C727   C     0.04287   0.83423   0.25041   0.00000  Uiso   1.00
C728   C     0.10491   0.71552   0.18900   0.00000  Uiso   1.00
C729   C     0.06163   0.70711   0.20271   0.00000  Uiso   1.00
C730   C     0.22313   0.94925   0.31599   0.00000  Uiso   1.00
C731   C     0.16636   0.83346   0.16535   0.00000  Uiso   1.00
C732   C     0.21454   0.95481   0.36447   0.00000  Uiso   1.00
C733   C     0.22403   0.71664   0.31588   0.00000  Uiso   1.00
C734   C     0.27059   0.70777   0.31665   0.00000  Uiso   1.00
C735   C     0.11859   0.95129   0.17724   0.00000  Uiso   1.00
C736   C     0.14320   0.95403   0.13713   0.00000  Uiso   1.00
C737   C     0.26683   0.86748   0.04922   0.00000  Uiso   1.00
C738   C     0.29060   0.90730   0.07378   0.00000  Uiso   1.00
C739   C     0.33289   0.89224   0.09707   0.00000  Uiso   1.00
C740   C     0.22185   0.73631   0.47961   0.00000  Uiso   1.00
C741   C     0.22218   0.68402   0.47885   0.00000  Uiso   1.00
C742   C     0.16606   0.83309   0.33487   0.00000  Uiso   1.00
C743   C     0.26583   0.99917   0.47766   0.00000  Uiso   1.00
C744   C     0.10349   0.90810   0.48482   0.00000  Uiso   1.00
C745   C     0.08116   0.95373   0.47613   0.00000  Uiso   1.00
C746   C     0.03857   0.95235   0.49223   0.00000  Uiso   1.00
C747   C     0.06542   0.79162   0.02460   0.00000  Uiso   1.00
C748   C     0.04447   0.74962   0.04288   0.00000  Uiso   1.00
C749   C     0.00095   0.76070   0.05312   0.00000  Uiso   1.00
C750   C     0.13918   0.69131   0.21999   0.00000  Uiso   1.00
C751   C     0.19314   0.97503   0.28128   0.00000  Uiso   1.00
C752   C     0.19434   0.69133   0.28027   0.00000  Uiso   1.00
C753   C     0.14145   0.97545   0.21793   0.00000  Uiso   1.00
C754   C     0.02164   0.79374   0.25747   0.00000  Uiso   1.00
Cu755  Cu    0.16667   0.88022   0.25000   0.00000  Uiso   1.00
Cu756  Cu    0.16667   0.78645   0.25000   0.00000  Uiso   1.00
H757   H     0.21741   0.88001   0.11863   0.00000  Uiso   1.00
H758   H     0.04199   0.73744   0.19330   0.00000  Uiso   1.00
H759   H     0.04488   0.67821   0.18495   0.00000  Uiso   1.00
H760   H     0.10928   0.75228   0.18775   0.00000  Uiso   1.00
H761   H     0.10500   0.70593   0.15363   0.00000  Uiso   1.00
H762   H     0.18232   0.96640   0.36594   0.00000  Uiso   1.00
H763   H     0.21958   0.92183   0.38290   0.00000  Uiso   1.00
H764   H     0.23662   0.97922   0.38263   0.00000  Uiso   1.00
H765   H     0.22353   0.91301   0.31043   0.00000  Uiso   1.00
H766   H     0.25563   0.95707   0.31208   0.00000  Uiso   1.00
H767   H     0.27747   0.69379   0.28432   0.00000  Uiso   1.00
H768   H     0.17941   0.76054   0.39153   0.00000  Uiso   1.00
H769   H     0.28846   0.73997   0.32408   0.00000  Uiso   1.00
H770   H     0.28255   0.68457   0.34455   0.00000  Uiso   1.00
H771   H     0.22189   0.75316   0.31208   0.00000  Uiso   1.00
H772   H     0.21459   0.71042   0.34933   0.00000  Uiso   1.00
H773   H     0.17644   0.94613   0.14728   0.00000  Uiso   1.00
H774   H     0.12993   0.92947   0.11112   0.00000  Uiso   1.00
H775   H     0.14172   0.98871   0.12182   0.00000  Uiso   1.00
H776   H     0.11012   0.91604   0.18486   0.00000  Uiso   1.00
H777   H     0.08769   0.96504   0.16619   0.00000  Uiso   1.00
H778   H     0.28322   0.85780   0.02061   0.00000  Uiso   1.00
H779   H     0.14440   0.90250   0.38615   0.00000  Uiso   1.00
H780   H     0.26784   0.83663   0.07158   0.00000  Uiso   1.00
H781   H     0.29523   0.93496   0.04944   0.00000  Uiso   1.00
H782   H     0.27252   0.92156   0.09914   0.00000  Uiso   1.00
H783   H     0.32913   0.86563   0.12287   0.00000  Uiso   1.00
H784   H     0.01620   0.92207   0.11372   0.00000  Uiso   1.00
H785   H     0.01849   0.87840   0.07228   0.00000  Uiso   1.00
H786   H     0.23995   0.74835   0.01122   0.00000  Uiso   1.00
H787   H     0.23756   0.74943   0.45115   0.00000  Uiso   1.00
H788   H     0.20984   0.67017   0.00901   0.00000  Uiso   1.00
H789   H     0.20171   0.67191   0.44877   0.00000  Uiso   1.00
H790   H     0.11526   0.78553   0.10695   0.00000  Uiso   1.00
H791   H     0.27923   0.68010   0.44836   0.00000  Uiso   1.00
H792   H     0.26466   0.96129   0.47493   0.00000  Uiso   1.00
H793   H     0.28615   0.67534   0.00873   0.00000  Uiso   1.00
H794   H     0.10674   0.90038   0.02129   0.00000  Uiso   1.00
H795   H     0.08370   0.88084   0.46681   0.00000  Uiso   1.00
H796   H     0.10009   0.98156   0.49376   0.00000  Uiso   1.00
H797   H     0.07731   0.96141   0.43963   0.00000  Uiso   1.00
H798   H     0.01973   0.92327   0.47697   0.00000  Uiso   1.00
H799   H     0.02196   0.98457   0.48227   0.00000  Uiso   1.00
H800   H     0.04200   0.94895   0.02926   0.00000  Uiso   1.00
H801   H     0.03796   0.76239   0.26633   0.00000  Uiso   1.00
H802   H     0.04797   0.80112   0.49167   0.00000  Uiso   1.00
H803   H     0.06317   0.82160   0.04681   0.00000  Uiso   1.00
H804   H     0.04251   0.72193   0.01774   0.00000  Uiso   1.00
H805   H     0.06319   0.73691   0.07394   0.00000  Uiso   1.00
H806   H     0.00243   0.78744   0.07921   0.00000  Uiso   1.00
H807   H     0.31978   0.72950   0.06579   0.00000  Uiso   1.00
H808   H     0.31477   0.77294   0.02236   0.00000  Uiso   1.00
H809   H     0.29511   0.90779   0.23807   0.00000  Uiso   1.00
H810   H     0.29649   0.76089   0.25384   0.00000  Uiso   1.00
H811   H     0.03663   0.90747   0.23765   0.00000  Uiso   1.00
H812   H     0.06364   0.70022   0.23920   0.00000  Uiso   1.00
N813   N     0.16667   0.95069   0.25000   0.00000  Uiso   1.00
N814   N     0.16667   0.71598   0.25000   0.00000  Uiso   1.00
O815   O     0.10655   0.87291   0.24999   0.00000  Uiso   1.00
O816   O     0.18038   0.75095   0.47848   0.00000  Uiso   1.00
O817   O     0.14353   0.91193   0.47136   0.00000  Uiso   1.00
O818   O     0.10644   0.78055   0.01759   0.00000  Uiso   1.00
O819   O     0.22679   0.79375   0.25001   0.00000  Uiso   1.00
O820   O     0.22679   0.87291   0.25000   0.00000  Uiso   1.00
O821   O     0.10655   0.79375   0.25000   0.00000  Uiso   1.00
O822   O     0.16666   0.87293   0.18573   0.00000  Uiso   1.00
O823   O     0.16667   0.79374   0.31427   0.00000  Uiso   1.00
O824   O     0.16667   0.87293   0.31427   0.00000  Uiso   1.00
O825   O     0.16666   0.79374   0.18573   0.00000  Uiso   1.00
O826   O     0.22619   0.88150   0.03167   0.00000  Uiso   1.00
C827   C     0.42091   0.83341   0.25016   0.00000  Uiso   1.00
C828   C     0.64480   0.87559   0.24278   0.00000  Uiso   1.00
C829   C     0.64556   0.79329   0.25301   0.00000  Uiso   1.00
C830   C     0.35423   0.87543   0.24298   0.00000  Uiso   1.00
C831   C     0.52979   0.85717   0.05156   0.00000  Uiso   1.00
C832   C     0.50750   0.79156   0.45455   0.00000  Uiso   1.00
C833   C     0.48680   0.87182   0.45123   0.00000  Uiso   1.00
C834   C     0.46892   0.80648   0.04451   0.00000  Uiso   1.00
C835   C     0.52843   0.85932   0.09774   0.00000  Uiso   1.00
C836   C     0.50648   0.79193   0.40804   0.00000  Uiso   1.00
C837   C     0.48692   0.87177   0.40504   0.00000  Uiso   1.00
C838   C     0.57901   0.83360   0.24917   0.00000  Uiso   1.00
C839   C     0.47050   0.80607   0.09112   0.00000  Uiso   1.00
C840   C     0.49933   0.83336   0.11729   0.00000  Uiso   1.00
C841   C     0.49777   0.83234   0.38330   0.00000  Uiso   1.00
C842   C     0.49916   0.83157   0.02495   0.00000  Uiso   1.00
C843   C     0.49799   0.83174   0.47623   0.00000  Uiso   1.00
C844   C     0.62360   0.83426   0.24793   0.00000  Uiso   1.00
C845   C     0.37620   0.83423   0.25041   0.00000  Uiso   1.00
C846   C     0.43824   0.71552   0.18900   0.00000  Uiso   1.00
C847   C     0.39496   0.70711   0.20271   0.00000  Uiso   1.00
C848   C     0.55647   0.94925   0.31599   0.00000  Uiso   1.00
C849   C     0.49969   0.83346   0.16535   0.00000  Uiso   1.00
C850   C     0.54787   0.95481   0.36447   0.00000  Uiso   1.00
C851   C     0.55736   0.71664   0.31588   0.00000  Uiso   1.00
C852   C     0.60393   0.70777   0.31665   0.00000  Uiso   1.00
C853   C     0.45192   0.95129   0.17724   0.00000  Uiso   1.00
C854   C     0.47654   0.95403   0.13713   0.00000  Uiso   1.00
C855   C     0.60017   0.86748   0.04922   0.00000  Uiso   1.00
C856   C     0.62393   0.90730   0.07378   0.00000  Uiso   1.00
C857   C     0.66622   0.89224   0.09707   0.00000  Uiso   1.00
C858   C     0.55518   0.73631   0.47961   0.00000  Uiso   1.00
C859   C     0.55551   0.68402   0.47885   0.00000  Uiso   1.00
C860   C     0.49940   0.83309   0.33487   0.00000  Uiso   1.00
C861   C     0.59916   0.99917   0.47766   0.00000  Uiso   1.00
C862   C     0.43682   0.90810   0.48482   0.00000  Uiso   1.00
C863   C     0.41450   0.95373   0.47613   0.00000  Uiso   1.00
C864   C     0.37191   0.95235   0.49223   0.00000  Uiso   1.00
C865   C     0.39875   0.79162   0.02460   0.00000  Uiso   1.00
C866   C     0.37781   0.74962   0.04288   0.00000  Uiso   1.00
C867   C     0.33429   0.76070   0.05312   0.00000  Uiso   1.00
C868   C     0.47251   0.69131   0.21999   0.00000  Uiso   1.00
C869   C     0.52647   0.97503   0.28128   0.00000  Uiso   1.00
C870   C     0.52768   0.69133   0.28027   0.00000  Uiso   1.00
C871   C     0.47478   0.97545   0.21793   0.00000  Uiso   1.00
C872   C     0.35498   0.79374   0.25747   0.00000  Uiso   1.00
Cu873  Cu    0.50000   0.88022   0.25000   0.00000  Uiso   1.00
Cu874  Cu    0.50000   0.78645   0.25000   0.00000  Uiso   1.00
H875   H     0.55074   0.88001   0.11863   0.00000  Uiso   1.00
H876   H     0.37532   0.73744   0.19330   0.00000  Uiso   1.00
H877   H     0.37822   0.67821   0.18495   0.00000  Uiso   1.00
H878   H     0.44261   0.75228   0.18775   0.00000  Uiso   1.00
H879   H     0.43833   0.70593   0.15363   0.00000  Uiso   1.00
H880   H     0.51565   0.96640   0.36594   0.00000  Uiso   1.00
H881   H     0.55292   0.92183   0.38290   0.00000  Uiso   1.00
H882   H     0.56995   0.97922   0.38263   0.00000  Uiso   1.00
H883   H     0.55686   0.91301   0.31043   0.00000  Uiso   1.00
H884   H     0.58897   0.95707   0.31208   0.00000  Uiso   1.00
H885   H     0.61081   0.69379   0.28432   0.00000  Uiso   1.00
H886   H     0.51275   0.76054   0.39153   0.00000  Uiso   1.00
H887   H     0.62179   0.73997   0.32408   0.00000  Uiso   1.00
H888   H     0.61589   0.68457   0.34455   0.00000  Uiso   1.00
H889   H     0.55522   0.75316   0.31208   0.00000  Uiso   1.00
H890   H     0.54792   0.71042   0.34933   0.00000  Uiso   1.00
H891   H     0.50977   0.94613   0.14728   0.00000  Uiso   1.00
H892   H     0.46326   0.92947   0.11112   0.00000  Uiso   1.00
H893   H     0.47506   0.98871   0.12182   0.00000  Uiso   1.00
H894   H     0.44346   0.91604   0.18486   0.00000  Uiso   1.00
H895   H     0.42103   0.96504   0.16619   0.00000  Uiso   1.00
H896   H     0.61656   0.85780   0.02061   0.00000  Uiso   1.00
H897   H     0.47773   0.90250   0.38615   0.00000  Uiso   1.00
H898   H     0.60118   0.83663   0.07158   0.00000  Uiso   1.00
H899   H     0.62856   0.93496   0.04944   0.00000  Uiso   1.00
H900   H     0.60586   0.92156   0.09914   0.00000  Uiso   1.00
H901   H     0.66247   0.86563   0.12287   0.00000  Uiso   1.00
H902   H     0.34953   0.92207   0.11372   0.00000  Uiso   1.00
H903   H     0.35182   0.87840   0.07228   0.00000  Uiso   1.00
H904   H     0.57328   0.74835   0.01122   0.00000  Uiso   1.00
H905   H     0.57089   0.74943   0.45115   0.00000  Uiso   1.00
H906   H     0.54317   0.67017   0.00901   0.00000  Uiso   1.00
H907   H     0.53504   0.67191   0.44877   0.00000  Uiso   1.00
H908   H     0.44860   0.78553   0.10695   0.00000  Uiso   1.00
H909   H     0.61257   0.68010   0.44836   0.00000  Uiso   1.00
H910   H     0.59799   0.96129   0.47493   0.00000  Uiso   1.00
H911   H     0.61948   0.67534   0.00873   0.00000  Uiso   1.00
H912   H     0.44008   0.90038   0.02129   0.00000  Uiso   1.00
H913   H     0.41703   0.88084   0.46681   0.00000  Uiso   1.00
H914   H     0.43342   0.98156   0.49376   0.00000  Uiso   1.00
H915   H     0.41065   0.96141   0.43963   0.00000  Uiso   1.00
H916   H     0.35306   0.92327   0.47697   0.00000  Uiso   1.00
H917   H     0.35529   0.98457   0.48227   0.00000  Uiso   1.00
H918   H     0.37533   0.94895   0.02926   0.00000  Uiso   1.00
H919   H     0.37130   0.76239   0.26633   0.00000  Uiso   1.00
H920   H     0.38130   0.80112   0.49167   0.00000  Uiso   1.00
H921   H     0.39650   0.82160   0.04681   0.00000  Uiso   1.00
H922   H     0.37584   0.72193   0.01774   0.00000  Uiso   1.00
H923   H     0.39652   0.73691   0.07394   0.00000  Uiso   1.00
H924   H     0.33576   0.78744   0.07921   0.00000  Uiso   1.00
H925   H     0.65311   0.72950   0.06579   0.00000  Uiso   1.00
H926   H     0.64811   0.77294   0.02236   0.00000  Uiso   1.00
H927   H     0.62844   0.90779   0.23807   0.00000  Uiso   1.00
H928   H     0.62982   0.76089   0.25384   0.00000  Uiso   1.00
H929   H     0.36996   0.90747   0.23765   0.00000  Uiso   1.00
H930   H     0.39697   0.70022   0.23920   0.00000  Uiso   1.00
N931   N     0.50000   0.95069   0.25000   0.00000  Uiso   1.00
N932   N     0.50000   0.71598   0.25000   0.00000  Uiso   1.00
O933   O     0.43988   0.87291   0.24999   0.00000  Uiso   1.00
O934   O     0.51371   0.75095   0.47848   0.00000  Uiso   1.00
O935   O     0.47686   0.91193   0.47136   0.00000  Uiso   1.00
O936   O     0.43977   0.78055   0.01759   0.00000  Uiso   1.00
O937   O     0.56012   0.79375   0.25001   0.00000  Uiso   1.00
O938   O     0.56012   0.87291   0.25000   0.00000  Uiso   1.00
O939   O     0.43988   0.79375   0.25000   0.00000  Uiso   1.00
O940   O     0.50000   0.87293   0.18573   0.00000  Uiso   1.00
O941   O     0.50000   0.79374   0.31427   0.00000  Uiso   1.00
O942   O     0.50000   0.87293   0.31427   0.00000  Uiso   1.00
O943   O     0.50000   0.79374   0.18573   0.00000  Uiso   1.00
O944   O     0.55952   0.88150   0.03167   0.00000  Uiso   1.00
C945   C     0.75424   0.83341   0.25016   0.00000  Uiso   1.00
C946   C     0.97814   0.87559   0.24278   0.00000  Uiso   1.00
C947   C     0.97890   0.79329   0.25301   0.00000  Uiso   1.00
C948   C     0.68756   0.87543   0.24298   0.00000  Uiso   1.00
C949   C     0.86313   0.85717   0.05156   0.00000  Uiso   1.00
C950   C     0.84084   0.79156   0.45455   0.00000  Uiso   1.00
C951   C     0.82013   0.87182   0.45123   0.00000  Uiso   1.00
C952   C     0.80225   0.80648   0.04451   0.00000  Uiso   1.00
C953   C     0.86176   0.85932   0.09774   0.00000  Uiso   1.00
C954   C     0.83981   0.79193   0.40804   0.00000  Uiso   1.00
C955   C     0.82025   0.87177   0.40504   0.00000  Uiso   1.00
C956   C     0.91234   0.83360   0.24917   0.00000  Uiso   1.00
C957   C     0.80383   0.80607   0.09112   0.00000  Uiso   1.00
C958   C     0.83266   0.83336   0.11729   0.00000  Uiso   1.00
C959   C     0.83111   0.83234   0.38330   0.00000  Uiso   1.00
C960   C     0.83249   0.83157   0.02495   0.00000  Uiso   1.00
C961   C     0.83133   0.83174   0.47623   0.00000  Uiso   1.00
C962   C     0.95694   0.83426   0.24793   0.00000  Uiso   1.00
C963   C     0.70954   0.83423   0.25041   0.00000  Uiso   1.00
C964   C     0.77157   0.71552   0.18900   0.00000  Uiso   1.00
C965   C     0.72829   0.70711   0.20271   0.00000  Uiso   1.00
C966   C     0.88980   0.94925   0.31599   0.00000  Uiso   1.00
C967   C     0.83303   0.83346   0.16535   0.00000  Uiso   1.00
C968   C     0.88121   0.95481   0.36447   0.00000  Uiso   1.00
C969   C     0.89070   0.71664   0.31588   0.00000  Uiso   1.00
C970   C     0.93726   0.70777   0.31665   0.00000  Uiso   1.00
C971   C     0.78526   0.95129   0.17724   0.00000  Uiso   1.00
C972   C     0.80987   0.95403   0.13713   0.00000  Uiso   1.00
C973   C     0.93350   0.86748   0.04922   0.00000  Uiso   1.00
C974   C     0.95726   0.90730   0.07378   0.00000  Uiso   1.00
C975   C     0.99956   0.89224   0.09707   0.00000  Uiso   1.00
C976   C     0.88851   0.73631   0.47961   0.00000  Uiso   1.00
C977   C     0.88884   0.68402   0.47885   0.00000  Uiso   1.00
C978   C     0.83273   0.83309   0.33487   0.00000  Uiso   1.00
C979   C     0.93250   0.99917   0.47766   0.00000  Uiso   1.00
C980   C     0.77016   0.90810   0.48482   0.00000  Uiso   1.00
C981   C     0.74783   0.95373   0.47613   0.00000  Uiso   1.00
C982   C     0.70524   0.95235   0.49223   0.00000  Uiso   1.00
C983   C     0.73208   0.79162   0.02460   0.00000  Uiso   1.00
C984   C     0.71114   0.74962   0.04288   0.00000  Uiso   1.00
C985   C     0.66762   0.76070   0.05312   0.00000  Uiso   1.00
C986   C     0.80585   0.69131   0.21999   0.00000  Uiso   1.00
C987   C     0.85980   0.97503   0.28128   0.00000  Uiso   1.00
C988   C     0.86101   0.69133   0.28027   0.00000  Uiso   1.00
C989   C     0.80811   0.97545   0.21793   0.00000  Uiso   1.00
C990   C     0.68831   0.79374   0.25747   0.00000  Uiso   1.00
Cu991  Cu    0.83333   0.88022   0.25000   0.00000  Uiso   1.00
Cu992  Cu    0.83333   0.78645   0.25000   0.00000  Uiso   1.00
H993   H     0.88407   0.88001   0.11863   0.00000  Uiso   1.00
H994   H     0.70865   0.73744   0.19330   0.00000  Uiso   1.00
H995   H     0.71155   0.67821   0.18495   0.00000  Uiso   1.00
H996   H     0.77595   0.75228   0.18775   0.00000  Uiso   1.00
H997   H     0.77167   0.70593   0.15363   0.00000  Uiso   1.00
H998   H     0.84898   0.96640   0.36594   0.00000  Uiso   1.00
H999   H     0.88625   0.92183   0.38290   0.00000  Uiso   1.00
H1000  H     0.90328   0.97922   0.38263   0.00000  Uiso   1.00
H1001  H     0.89020   0.91301   0.31043   0.00000  Uiso   1.00
H1002  H     0.92230   0.95707   0.31208   0.00000  Uiso   1.00
H1003  H     0.94414   0.69379   0.28432   0.00000  Uiso   1.00
H1004  H     0.84608   0.76054   0.39153   0.00000  Uiso   1.00
H1005  H     0.95513   0.73997   0.32408   0.00000  Uiso   1.00
H1006  H     0.94922   0.68457   0.34455   0.00000  Uiso   1.00
H1007  H     0.88856   0.75316   0.31208   0.00000  Uiso   1.00
H1008  H     0.88126   0.71042   0.34933   0.00000  Uiso   1.00
H1009  H     0.84311   0.94613   0.14728   0.00000  Uiso   1.00
H1010  H     0.79659   0.92947   0.11112   0.00000  Uiso   1.00
H1011  H     0.80839   0.98871   0.12182   0.00000  Uiso   1.00
H1012  H     0.77679   0.91604   0.18486   0.00000  Uiso   1.00
H1013  H     0.75436   0.96504   0.16619   0.00000  Uiso   1.00
H1014  H     0.94989   0.85780   0.02061   0.00000  Uiso   1.00
H1015  H     0.81107   0.90250   0.38615   0.00000  Uiso   1.00
H1016  H     0.93451   0.83663   0.07158   0.00000  Uiso   1.00
H1017  H     0.96189   0.93496   0.04944   0.00000  Uiso   1.00
H1018  H     0.93919   0.92156   0.09914   0.00000  Uiso   1.00
H1019  H     0.99580   0.86563   0.12287   0.00000  Uiso   1.00
H1020  H     0.68286   0.92207   0.11372   0.00000  Uiso   1.00
H1021  H     0.68516   0.87840   0.07228   0.00000  Uiso   1.00
H1022  H     0.90661   0.74835   0.01122   0.00000  Uiso   1.00
H1023  H     0.90422   0.74943   0.45115   0.00000  Uiso   1.00
H1024  H     0.87650   0.67017   0.00901   0.00000  Uiso   1.00
H1025  H     0.86838   0.67191   0.44877   0.00000  Uiso   1.00
H1026  H     0.78193   0.78553   0.10695   0.00000  Uiso   1.00
H1027  H     0.94590   0.68010   0.44836   0.00000  Uiso   1.00
H1028  H     0.93132   0.96129   0.47493   0.00000  Uiso   1.00
H1029  H     0.95282   0.67534   0.00873   0.00000  Uiso   1.00
H1030  H     0.77341   0.90038   0.02129   0.00000  Uiso   1.00
H1031  H     0.75037   0.88084   0.46681   0.00000  Uiso   1.00
H1032  H     0.76675   0.98156   0.49376   0.00000  Uiso   1.00
H1033  H     0.74398   0.96141   0.43963   0.00000  Uiso   1.00
H1034  H     0.68640   0.92327   0.47697   0.00000  Uiso   1.00
H1035  H     0.68862   0.98457   0.48227   0.00000  Uiso   1.00
H1036  H     0.70866   0.94895   0.02926   0.00000  Uiso   1.00
H1037  H     0.70463   0.76239   0.26633   0.00000  Uiso   1.00
H1038  H     0.71463   0.80112   0.49167   0.00000  Uiso   1.00
H1039  H     0.72983   0.82160   0.04681   0.00000  Uiso   1.00
H1040  H     0.70917   0.72193   0.01774   0.00000  Uiso   1.00
H1041  H     0.72985   0.73691   0.07394   0.00000  Uiso   1.00
H1042  H     0.66909   0.78744   0.07921   0.00000  Uiso   1.00
H1043  H     0.98644   0.72950   0.06579   0.00000  Uiso   1.00
H1044  H     0.98144   0.77294   0.02236   0.00000  Uiso   1.00
H1045  H     0.96178   0.90779   0.23807   0.00000  Uiso   1.00
H1046  H     0.96315   0.76089   0.25384   0.00000  Uiso   1.00
H1047  H     0.70330   0.90747   0.23765   0.00000  Uiso   1.00
H1048  H     0.73031   0.70022   0.23920   0.00000  Uiso   1.00
N1049  N     0.83333   0.95069   0.25000   0.00000  Uiso   1.00
N1050  N     0.83333   0.71598   0.25000   0.00000  Uiso   1.00
O1051  O     0.77321   0.87291   0.24999   0.00000  Uiso   1.00
O1052  O     0.84705   0.75095   0.47848   0.00000  Uiso   1.00
O1053  O     0.81019   0.91193   0.47136   0.00000  Uiso   1.00
O1054  O     0.77310   0.78055   0.01759   0.00000  Uiso   1.00
O1055  O     0.89345   0.79375   0.25001   0.00000  Uiso   1.00
O1056  O     0.89345   0.87291   0.25000   0.00000  Uiso   1.00
O1057  O     0.77321   0.79375   0.25000   0.00000  Uiso   1.00
O1058  O     0.83333   0.87293   0.18573   0.00000  Uiso   1.00
O1059  O     0.83334   0.79374   0.31427   0.00000  Uiso   1.00
O1060  O     0.83334   0.87293   0.31427   0.00000  Uiso   1.00
O1061  O     0.83333   0.79374   0.18573   0.00000  Uiso   1.00
O1062  O     0.89285   0.88150   0.03167   0.00000  Uiso   1.00
C1063  C     0.08757   0.16675   0.75016   0.00000  Uiso   1.00
C1064  C     0.31147   0.20893   0.74278   0.00000  Uiso   1.00
C1065  C     0.31223   0.12663   0.75301   0.00000  Uiso   1.00
C1066  C     0.02090   0.20877   0.74298   0.00000  Uiso   1.00
C1067  C     0.19646   0.19051   0.55156   0.00000  Uiso   1.00
C1068  C     0.17417   0.12489   0.95455   0.00000  Uiso   1.00
C1069  C     0.15347   0.20515   0.95123   0.00000  Uiso   1.00
C1070  C     0.13559   0.13981   0.54451   0.00000  Uiso   1.00
C1071  C     0.19510   0.19266   0.59774   0.00000  Uiso   1.00
C1072  C     0.17314   0.12526   0.90804   0.00000  Uiso   1.00
C1073  C     0.15358   0.20510   0.90504   0.00000  Uiso   1.00
C1074  C     0.24568   0.16693   0.74917   0.00000  Uiso   1.00
C1075  C     0.13717   0.13941   0.59112   0.00000  Uiso   1.00
C1076  C     0.16599   0.16669   0.61729   0.00000  Uiso   1.00
C1077  C     0.16444   0.16567   0.88330   0.00000  Uiso   1.00
C1078  C     0.16582   0.16490   0.52495   0.00000  Uiso   1.00
C1079  C     0.16466   0.16507   0.97623   0.00000  Uiso   1.00
C1080  C     0.29027   0.16759   0.74793   0.00000  Uiso   1.00
C1081  C     0.04287   0.16756   0.75041   0.00000  Uiso   1.00
C1082  C     0.10491   0.04885   0.68900   0.00000  Uiso   1.00
C1083  C     0.06163   0.04044   0.70271   0.00000  Uiso   1.00
C1084  C     0.22313   0.28258   0.81599   0.00000  Uiso   1.00
C1085  C     0.16636   0.16679   0.66535   0.00000  Uiso   1.00
C1086  C     0.21454   0.28814   0.86447   0.00000  Uiso   1.00
C1087  C     0.22403   0.04997   0.81588   0.00000  Uiso   1.00
C1088  C     0.27059   0.04111   0.81665   0.00000  Uiso   1.00
C1089  C     0.11859   0.28462   0.67724   0.00000  Uiso   1.00
C1090  C     0.14320   0.28737   0.63713   0.00000  Uiso   1.00
C1091  C     0.26683   0.20081   0.54922   0.00000  Uiso   1.00
C1092  C     0.29060   0.24063   0.57378   0.00000  Uiso   1.00
C1093  C     0.33289   0.22557   0.59707   0.00000  Uiso   1.00
C1094  C     0.22185   0.06964   0.97961   0.00000  Uiso   1.00
C1095  C     0.22218   0.01735   0.97885   0.00000  Uiso   1.00
C1096  C     0.16606   0.16642   0.83487   0.00000  Uiso   1.00
C1097  C     0.26583   0.33250   0.97766   0.00000  Uiso   1.00
C1098  C     0.10349   0.24143   0.98482   0.00000  Uiso   1.00
C1099  C     0.08116   0.28706   0.97613   0.00000  Uiso   1.00
C1100  C     0.03857   0.28569   0.99223   0.00000  Uiso   1.00
C1101  C     0.06542   0.12495   0.52460   0.00000  Uiso   1.00
C1102  C     0.04447   0.08295   0.54288   0.00000  Uiso   1.00
C1103  C     0.00095   0.09404   0.55312   0.00000  Uiso   1.00
C1104  C     0.13918   0.02464   0.71999   0.00000  Uiso   1.00
C1105  C     0.19314   0.30836   0.78128   0.00000  Uiso   1.00
C1106  C     0.19434   0.02467   0.78027   0.00000  Uiso   1.00
C1107  C     0.14145   0.30878   0.71793   0.00000  Uiso   1.00
C1108  C     0.02164   0.12708   0.75747   0.00000  Uiso   1.00
Cu1109 Cu    0.16667   0.21355   0.75000   0.00000  Uiso   1.00
Cu1110 Cu    0.16667   0.11978   0.75000   0.00000  Uiso   1.00
H1111  H     0.21741   0.21334   0.61863   0.00000  Uiso   1.00
H1112  H     0.04199   0.07077   0.69330   0.00000  Uiso   1.00
H1113  H     0.04488   0.01154   0.68495   0.00000  Uiso   1.00
H1114  H     0.10928   0.08562   0.68775   0.00000  Uiso   1.00
H1115  H     0.10500   0.03926   0.65363   0.00000  Uiso   1.00
H1116  H     0.18232   0.29973   0.86594   0.00000  Uiso   1.00
H1117  H     0.21958   0.25516   0.88290   0.00000  Uiso   1.00
H1118  H     0.23662   0.31255   0.88263   0.00000  Uiso   1.00
H1119  H     0.22353   0.24634   0.81043   0.00000  Uiso   1.00
H1120  H     0.25563   0.29041   0.81208   0.00000  Uiso   1.00
H1121  H     0.27747   0.02712   0.78432   0.00000  Uiso   1.00
H1122  H     0.17941   0.09387   0.89153   0.00000  Uiso   1.00
H1123  H     0.28846   0.07331   0.82408   0.00000  Uiso   1.00
H1124  H     0.28255   0.01790   0.84455   0.00000  Uiso   1.00
H1125  H     0.22189   0.08650   0.81208   0.00000  Uiso   1.00
H1126  H     0.21459   0.04376   0.84933   0.00000  Uiso   1.00
H1127  H     0.17644   0.27946   0.64728   0.00000  Uiso   1.00
H1128  H     0.12993   0.26281   0.61112   0.00000  Uiso   1.00
H1129  H     0.14172   0.32204   0.62182   0.00000  Uiso   1.00
H1130  H     0.11012   0.24937   0.68486   0.00000  Uiso   1.00
H1131  H     0.08769   0.29838   0.66619   0.00000  Uiso   1.00
H1132  H     0.28322   0.19113   0.52061   0.00000  Uiso   1.00
H1133  H     0.14440   0.23584   0.88615   0.00000  Uiso   1.00
H1134  H     0.26784   0.16997   0.57158   0.00000  Uiso   1.00
H1135  H     0.29523   0.26829   0.54944   0.00000  Uiso   1.00
H1136  H     0.27252   0.25490   0.59914   0.00000  Uiso   1.00
H1137  H     0.32913   0.19896   0.62287   0.00000  Uiso   1.00
H1138  H     0.01620   0.25540   0.61372   0.00000  Uiso   1.00
H1139  H     0.01849   0.21173   0.57228   0.00000  Uiso   1.00
H1140  H     0.23995   0.08168   0.51122   0.00000  Uiso   1.00
H1141  H     0.23756   0.08276   0.95115   0.00000  Uiso   1.00
H1142  H     0.20984   0.00350   0.50901   0.00000  Uiso   1.00
H1143  H     0.20171   0.00525   0.94877   0.00000  Uiso   1.00
H1144  H     0.11526   0.11887   0.60695   0.00000  Uiso   1.00
H1145  H     0.27923   0.01344   0.94836   0.00000  Uiso   1.00
H1146  H     0.26466   0.29462   0.97493   0.00000  Uiso   1.00
H1147  H     0.28615   0.00867   0.50873   0.00000  Uiso   1.00
H1148  H     0.10674   0.23372   0.52129   0.00000  Uiso   1.00
H1149  H     0.08370   0.21418   0.96681   0.00000  Uiso   1.00
H1150  H     0.10009   0.31490   0.99376   0.00000  Uiso   1.00
H1151  H     0.07731   0.29474   0.93963   0.00000  Uiso   1.00
H1152  H     0.01973   0.25660   0.97697   0.00000  Uiso   1.00
H1153  H     0.02196   0.31791   0.98227   0.00000  Uiso   1.00
H1154  H     0.04200   0.28228   0.52926   0.00000  Uiso   1.00
H1155  H     0.03796   0.09572   0.76633   0.00000  Uiso   1.00
H1156  H     0.04797   0.13446   0.99167   0.00000  Uiso   1.00
H1157  H     0.06317   0.15493   0.54681   0.00000  Uiso   1.00
H1158  H     0.04251   0.05526   0.51774   0.00000  Uiso   1.00
H1159  H     0.06319   0.07024   0.57394   0.00000  Uiso   1.00
H1160  H     0.00243   0.12077   0.57921   0.00000  Uiso   1.00
H1161  H     0.31978   0.06283   0.56579   0.00000  Uiso   1.00
H1162  H     0.31477   0.10627   0.52236   0.00000  Uiso   1.00
H1163  H     0.29511   0.24112   0.73807   0.00000  Uiso   1.00
H1164  H     0.29649   0.09423   0.75384   0.00000  Uiso   1.00
H1165  H     0.03663   0.24081   0.73765   0.00000  Uiso   1.00
H1166  H     0.06364   0.03355   0.73920   0.00000  Uiso   1.00
N1167  N     0.16667   0.28402   0.75000   0.00000  Uiso   1.00
N1168  N     0.16667   0.04931   0.75000   0.00000  Uiso   1.00
O1169  O     0.10655   0.20625   0.74999   0.00000  Uiso   1.00
O1170  O     0.18038   0.08429   0.97848   0.00000  Uiso   1.00
O1171  O     0.14353   0.24526   0.97136   0.00000  Uiso   1.00
O1172  O     0.10644   0.11388   0.51759   0.00000  Uiso   1.00
O1173  O     0.22679   0.12709   0.75001   0.00000  Uiso   1.00
O1174  O     0.22679   0.20625   0.75000   0.00000  Uiso   1.00
O1175  O     0.10655   0.12709   0.75000   0.00000  Uiso   1.00
O1176  O     0.16666   0.20626   0.68573   0.00000  Uiso   1.00
O1177  O     0.16667   0.12707   0.81427   0.00000  Uiso   1.00
O1178  O     0.16667   0.20626   0.81427   0.00000  Uiso   1.00
O1179  O     0.16666   0.12707   0.68573   0.00000  Uiso   1.00
O1180  O     0.22619   0.21484   0.53167   0.00000  Uiso   1.00
C1181  C     0.42091   0.16675   0.75016   0.00000  Uiso   1.00
C1182  C     0.64480   0.20893   0.74278   0.00000  Uiso   1.00
C1183  C     0.64556   0.12663   0.75301   0.00000  Uiso   1.00
C1184  C     0.35423   0.20877   0.74298   0.00000  Uiso   1.00
C1185  C     0.52979   0.19051   0.55156   0.00000  Uiso   1.00
C1186  C     0.50750   0.12489   0.95455   0.00000  Uiso   1.00
C1187  C     0.48680   0.20515   0.95123   0.00000  Uiso   1.00
C1188  C     0.46892   0.13981   0.54451   0.00000  Uiso   1.00
C1189  C     0.52843   0.19266   0.59774   0.00000  Uiso   1.00
C1190  C     0.50648   0.12526   0.90804   0.00000  Uiso   1.00
C1191  C     0.48692   0.20510   0.90504   0.00000  Uiso   1.00
C1192  C     0.57901   0.16693   0.74917   0.00000  Uiso   1.00
C1193  C     0.47050   0.13941   0.59112   0.00000  Uiso   1.00
C1194  C     0.49933   0.16669   0.61729   0.00000  Uiso   1.00
C1195  C     0.49777   0.16567   0.88330   0.00000  Uiso   1.00
C1196  C     0.49916   0.16490   0.52495   0.00000  Uiso   1.00
C1197  C     0.49799   0.16507   0.97623   0.00000  Uiso   1.00
C1198  C     0.62360   0.16759   0.74793   0.00000  Uiso   1.00
C1199  C     0.37620   0.16756   0.75041   0.00000  Uiso   1.00
C1200  C     0.43824   0.04885   0.68900   0.00000  Uiso   1.00
C1201  C     0.39496   0.04044   0.70271   0.00000  Uiso   1.00
C1202  C     0.55647   0.28258   0.81599   0.00000  Uiso   1.00
C1203  C     0.49969   0.16679   0.66535   0.00000  Uiso   1.00
C1204  C     0.54787   0.28814   0.86447   0.00000  Uiso   1.00
C1205  C     0.55736   0.04997   0.81588   0.00000  Uiso   1.00
C1206  C     0.60393   0.04111   0.81665   0.00000  Uiso   1.00
C1207  C     0.45192   0.28462   0.67724   0.00000  Uiso   1.00
C1208  C     0.47654   0.28737   0.63713   0.00000  Uiso   1.00
C1209  C     0.60017   0.20081   0.54922   0.00000  Uiso   1.00
C1210  C     0.62393   0.24063   0.57378   0.00000  Uiso   1.00
C1211  C     0.66622   0.22557   0.59707   0.00000  Uiso   1.00
C1212  C     0.55518   0.06964   0.97961   0.00000  Uiso   1.00
C1213  C     0.55551   0.01735   0.97885   0.00000  Uiso   1.00
C1214  C     0.49940   0.16642   0.83487   0.00000  Uiso   1.00
C1215  C     0.59916   0.33250   0.97766   0.00000  Uiso   1.00
C1216  C     0.43682   0.24143   0.98482   0.00000  Uiso   1.00
C1217  C     0.41450   0.28706   0.97613   0.00000  Uiso   1.00
C1218  C     0.37191   0.28569   0.99223   0.00000  Uiso   1.00
C1219  C     0.39875   0.12495   0.52460   0.00000  Uiso   1.00
C1220  C     0.37781   0.08295   0.54288   0.00000  Uiso   1.00
C1221  C     0.33429   0.09404   0.55312   0.00000  Uiso   1.00
C1222  C     0.47251   0.02464   0.71999   0.00000  Uiso   1.00
C1223  C     0.52647   0.30836   0.78128   0.00000  Uiso   1.00
C1224  C     0.52768   0.02467   0.78027   0.00000  Uiso   1.00
C1225  C     0.47478   0.30878   0.71793   0.00000  Uiso   1.00
C1226  C     0.35498   0.12708   0.75747   0.00000  Uiso   1.00
Cu1227 Cu    0.50000   0.21355   0.75000   0.00000  Uiso   1.00
Cu1228 Cu    0.50000   0.11978   0.75000   0.00000  Uiso   1.00
H1229  H     0.55074   0.21334   0.61863   0.00000  Uiso   1.00
H1230  H     0.37532   0.07077   0.69330   0.00000  Uiso   1.00
H1231  H     0.37822   0.01154   0.68495   0.00000  Uiso   1.00
H1232  H     0.44261   0.08562   0.68775   0.00000  Uiso   1.00
H1233  H     0.43833   0.03926   0.65363   0.00000  Uiso   1.00
H1234  H     0.51565   0.29973   0.86594   0.00000  Uiso   1.00
H1235  H     0.55292   0.25516   0.88290   0.00000  Uiso   1.00
H1236  H     0.56995   0.31255   0.88263   0.00000  Uiso   1.00
H1237  H     0.55686   0.24634   0.81043   0.00000  Uiso   1.00
H1238  H     0.58897   0.29041   0.81208   0.00000  Uiso   1.00
H1239  H     0.61081   0.02712   0.78432   0.00000  Uiso   1.00
H1240  H     0.51275   0.09387   0.89153   0.00000  Uiso   1.00
H1241  H     0.62179   0.07331   0.82408   0.00000  Uiso   1.00
H1242  H     0.61589   0.01790   0.84455   0.00000  Uiso   1.00
H1243  H     0.55522   0.08650   0.81208   0.00000  Uiso   1.00
H1244  H     0.54792   0.04376   0.84933   0.00000  Uiso   1.00
H1245  H     0.50977   0.27946   0.64728   0.00000  Uiso   1.00
H1246  H     0.46326   0.26281   0.61112   0.00000  Uiso   1.00
H1247  H     0.47506   0.32204   0.62182   0.00000  Uiso   1.00
H1248  H     0.44346   0.24937   0.68486   0.00000  Uiso   1.00
H1249  H     0.42103   0.29838   0.66619   0.00000  Uiso   1.00
H1250  H     0.61656   0.19113   0.52061   0.00000  Uiso   1.00
H1251  H     0.47773   0.23584   0.88615   0.00000  Uiso   1.00
H1252  H     0.60118   0.16997   0.57158   0.00000  Uiso   1.00
H1253  H     0.62856   0.26829   0.54944   0.00000  Uiso   1.00
H1254  H     0.60586   0.25490   0.59914   0.00000  Uiso   1.00
H1255  H     0.66247   0.19896   0.62287   0.00000  Uiso   1.00
H1256  H     0.34953   0.25540   0.61372   0.00000  Uiso   1.00
H1257  H     0.35182   0.21173   0.57228   0.00000  Uiso   1.00
H1258  H     0.57328   0.08168   0.51122   0.00000  Uiso   1.00
H1259  H     0.57089   0.08276   0.95115   0.00000  Uiso   1.00
H1260  H     0.54317   0.00350   0.50901   0.00000  Uiso   1.00
H1261  H     0.53504   0.00525   0.94877   0.00000  Uiso   1.00
H1262  H     0.44860   0.11887   0.60695   0.00000  Uiso   1.00
H1263  H     0.61257   0.01344   0.94836   0.00000  Uiso   1.00
H1264  H     0.59799   0.29462   0.97493   0.00000  Uiso   1.00
H1265  H     0.61948   0.00867   0.50873   0.00000  Uiso   1.00
H1266  H     0.44008   0.23372   0.52129   0.00000  Uiso   1.00
H1267  H     0.41703   0.21418   0.96681   0.00000  Uiso   1.00
H1268  H     0.43342   0.31490   0.99376   0.00000  Uiso   1.00
H1269  H     0.41065   0.29474   0.93963   0.00000  Uiso   1.00
H1270  H     0.35306   0.25660   0.97697   0.00000  Uiso   1.00
H1271  H     0.35529   0.31791   0.98227   0.00000  Uiso   1.00
H1272  H     0.37533   0.28228   0.52926   0.00000  Uiso   1.00
H1273  H     0.37130   0.09572   0.76633   0.00000  Uiso   1.00
H1274  H     0.38130   0.13446   0.99167   0.00000  Uiso   1.00
H1275  H     0.39650   0.15493   0.54681   0.00000  Uiso   1.00
H1276  H     0.37584   0.05526   0.51774   0.00000  Uiso   1.00
H1277  H     0.39652   0.07024   0.57394   0.00000  Uiso   1.00
H1278  H     0.33576   0.12077   0.57921   0.00000  Uiso   1.00
H1279  H     0.65311   0.06283   0.56579   0.00000  Uiso   1.00
H1280  H     0.64811   0.10627   0.52236   0.00000  Uiso   1.00
H1281  H     0.62844   0.24112   0.73807   0.00000  Uiso   1.00
H1282  H     0.62982   0.09423   0.75384   0.00000  Uiso   1.00
H1283  H     0.36996   0.24081   0.73765   0.00000  Uiso   1.00
H1284  H     0.39697   0.03355   0.73920   0.00000  Uiso   1.00
N1285  N     0.50000   0.28402   0.75000   0.00000  Uiso   1.00
N1286  N     0.50000   0.04931   0.75000   0.00000  Uiso   1.00
O1287  O     0.43988   0.20625   0.74999   0.00000  Uiso   1.00
O1288  O     0.51371   0.08429   0.97848   0.00000  Uiso   1.00
O1289  O     0.47686   0.24526   0.97136   0.00000  Uiso   1.00
O1290  O     0.43977   0.11388   0.51759   0.00000  Uiso   1.00
O1291  O     0.56012   0.12709   0.75001   0.00000  Uiso   1.00
O1292  O     0.56012   0.20625   0.75000   0.00000  Uiso   1.00
O1293  O     0.43988   0.12709   0.75000   0.00000  Uiso   1.00
O1294  O     0.50000   0.20626   0.68573   0.00000  Uiso   1.00
O1295  O     0.50000   0.12707   0.81427   0.00000  Uiso   1.00
O1296  O     0.50000   0.20626   0.81427   0.00000  Uiso   1.00
O1297  O     0.50000   0.12707   0.68573   0.00000  Uiso   1.00
O1298  O     0.55952   0.21484   0.53167   0.00000  Uiso   1.00
C1299  C     0.75424   0.16675   0.75016   0.00000  Uiso   1.00
C1300  C     0.97814   0.20893   0.74278   0.00000  Uiso   1.00
C1301  C     0.97890   0.12663   0.75301   0.00000  Uiso   1.00
C1302  C     0.68756   0.20877   0.74298   0.00000  Uiso   1.00
C1303  C     0.86313   0.19051   0.55156   0.00000  Uiso   1.00
C1304  C     0.84084   0.12489   0.95455   0.00000  Uiso   1.00
C1305  C     0.82013   0.20515   0.95123   0.00000  Uiso   1.00
C1306  C     0.80225   0.13981   0.54451   0.00000  Uiso   1.00
C1307  C     0.86176   0.19266   0.59774   0.00000  Uiso   1.00
C1308  C     0.83981   0.12526   0.90804   0.00000  Uiso   1.00
C1309  C     0.82025   0.20510   0.90504   0.00000  Uiso   1.00
C1310  C     0.91234   0.16693   0.74917   0.00000  Uiso   1.00
C1311  C     0.80383   0.13941   0.59112   0.00000  Uiso   1.00
C1312  C     0.83266   0.16669   0.61729   0.00000  Uiso   1.00
C1313  C     0.83111   0.16567   0.88330   0.00000  Uiso   1.00
C1314  C     0.83249   0.16490   0.52495   0.00000  Uiso   1.00
C1315  C     0.83133   0.16507   0.97623   0.00000  Uiso   1.00
C1316  C     0.95694   0.16759   0.74793   0.00000  Uiso   1.00
C1317  C     0.70954   0.16756   0.75041   0.00000  Uiso   1.00
C1318  C     0.77157   0.04885   0.68900   0.00000  Uiso   1.00
C1319  C     0.72829   0.04044   0.70271   0.00000  Uiso   1.00
C1320  C     0.88980   0.28258   0.81599   0.00000  Uiso   1.00
C1321  C     0.83303   0.16679   0.66535   0.00000  Uiso   1.00
C1322  C     0.88121   0.28814   0.86447   0.00000  Uiso   1.00
C1323  C     0.89070   0.04997   0.81588   0.00000  Uiso   1.00
C1324  C     0.93726   0.04111   0.81665   0.00000  Uiso   1.00
C1325  C     0.78526   0.28462   0.67724   0.00000  Uiso   1.00
C1326  C     0.80987   0.28737   0.63713   0.00000  Uiso   1.00
C1327  C     0.93350   0.20081   0.54922   0.00000  Uiso   1.00
C1328  C     0.95726   0.24063   0.57378   0.00000  Uiso   1.00
C1329  C     0.99956   0.22557   0.59707   0.00000  Uiso   1.00
C1330  C     0.88851   0.06964   0.97961   0.00000  Uiso   1.00
C1331  C     0.88884   0.01735   0.97885   0.00000  Uiso   1.00
C1332  C     0.83273   0.16642   0.83487   0.00000  Uiso   1.00
C1333  C     0.93250   0.33250   0.97766   0.00000  Uiso   1.00
C1334  C     0.77016   0.24143   0.98482   0.00000  Uiso   1.00
C1335  C     0.74783   0.28706   0.97613   0.00000  Uiso   1.00
C1336  C     0.70524   0.28569   0.99223   0.00000  Uiso   1.00
C1337  C     0.73208   0.12495   0.52460   0.00000  Uiso   1.00
C1338  C     0.71114   0.08295   0.54288   0.00000  Uiso   1.00
C1339  C     0.66762   0.09404   0.55312   0.00000  Uiso   1.00
C1340  C     0.80585   0.02464   0.71999   0.00000  Uiso   1.00
C1341  C     0.85980   0.30836   0.78128   0.00000  Uiso   1.00
C1342  C     0.86101   0.02467   0.78027   0.00000  Uiso   1.00
C1343  C     0.80811   0.30878   0.71793   0.00000  Uiso   1.00
C1344  C     0.68831   0.12708   0.75747   0.00000  Uiso   1.00
Cu1345 Cu    0.83333   0.21355   0.75000   0.00000  Uiso   1.00
Cu1346 Cu    0.83333   0.11978   0.75000   0.00000  Uiso   1.00
H1347  H     0.88407   0.21334   0.61863   0.00000  Uiso   1.00
H1348  H     0.70865   0.07077   0.69330   0.00000  Uiso   1.00
H1349  H     0.71155   0.01154   0.68495   0.00000  Uiso   1.00
H1350  H     0.77595   0.08562   0.68775   0.00000  Uiso   1.00
H1351  H     0.77167   0.03926   0.65363   0.00000  Uiso   1.00
H1352  H     0.84898   0.29973   0.86594   0.00000  Uiso   1.00
H1353  H     0.88625   0.25516   0.88290   0.00000  Uiso   1.00
H1354  H     0.90328   0.31255   0.88263   0.00000  Uiso   1.00
H1355  H     0.89020   0.24634   0.81043   0.00000  Uiso   1.00
H1356  H     0.92230   0.29041   0.81208   0.00000  Uiso   1.00
H1357  H     0.94414   0.02712   0.78432   0.00000  Uiso   1.00
H1358  H     0.84608   0.09387   0.89153   0.00000  Uiso   1.00
H1359  H     0.95513   0.07331   0.82408   0.00000  Uiso   1.00
H1360  H     0.94922   0.01790   0.84455   0.00000  Uiso   1.00
H1361  H     0.88856   0.08650   0.81208   0.00000  Uiso   1.00
H1362  H     0.88126   0.04376   0.84933   0.00000  Uiso   1.00
H1363  H     0.84311   0.27946   0.64728   0.00000  Uiso   1.00
H1364  H     0.79659   0.26281   0.61112   0.00000  Uiso   1.00
H1365  H     0.80839   0.32204   0.62182   0.00000  Uiso   1.00
H1366  H     0.77679   0.24937   0.68486   0.00000  Uiso   1.00
H1367  H     0.75436   0.29838   0.66619   0.00000  Uiso   1.00
H1368  H     0.94989   0.19113   0.52061   0.00000  Uiso   1.00
H1369  H     0.81107   0.23584   0.88615   0.00000  Uiso   1.00
H1370  H     0.93451   0.16997   0.57158   0.00000  Uiso   1.00
H1371  H     0.96189   0.26829   0.54944   0.00000  Uiso   1.00
H1372  H     0.93919   0.25490   0.59914   0.00000  Uiso   1.00
H1373  H     0.99580   0.19896   0.62287   0.00000  Uiso   1.00
H1374  H     0.68286   0.25540   0.61372   0.00000  Uiso   1.00
H1375  H     0.68516   0.21173   0.57228   0.00000  Uiso   1.00
H1376  H     0.90661   0.08168   0.51122   0.00000  Uiso   1.00
H1377  H     0.90422   0.08276   0.95115   0.00000  Uiso   1.00
H1378  H     0.87650   0.00350   0.50901   0.00000  Uiso   1.00
H1379  H     0.86838   0.00525   0.94877   0.00000  Uiso   1.00
H1380  H     0.78193   0.11887   0.60695   0.00000  Uiso   1.00
H1381  H     0.94590   0.01344   0.94836   0.00000  Uiso   1.00
H1382  H     0.93132   0.29462   0.97493   0.00000  Uiso   1.00
H1383  H     0.95282   0.00867   0.50873   0.00000  Uiso   1.00
H1384  H     0.77341   0.23372   0.52129   0.00000  Uiso   1.00
H1385  H     0.75037   0.21418   0.96681   0.00000  Uiso   1.00
H1386  H     0.76675   0.31490   0.99376   0.00000  Uiso   1.00
H1387  H     0.74398   0.29474   0.93963   0.00000  Uiso   1.00
H1388  H     0.68640   0.25660   0.97697   0.00000  Uiso   1.00
H1389  H     0.68862   0.31791   0.98227   0.00000  Uiso   1.00
H1390  H     0.70866   0.28228   0.52926   0.00000  Uiso   1.00
H1391  H     0.70463   0.09572   0.76633   0.00000  Uiso   1.00
H1392  H     0.71463   0.13446   0.99167   0.00000  Uiso   1.00
H1393  H     0.72983   0.15493   0.54681   0.00000  Uiso   1.00
H1394  H     0.70917   0.05526   0.51774   0.00000  Uiso   1.00
H1395  H     0.72985   0.07024   0.57394   0.00000  Uiso   1.00
H1396  H     0.66909   0.12077   0.57921   0.00000  Uiso   1.00
H1397  H     0.98644   0.06283   0.56579   0.00000  Uiso   1.00
H1398  H     0.98144   0.10627   0.52236   0.00000  Uiso   1.00
H1399  H     0.96178   0.24112   0.73807   0.00000  Uiso   1.00
H1400  H     0.96315   0.09423   0.75384   0.00000  Uiso   1.00
H1401  H     0.70330   0.24081   0.73765   0.00000  Uiso   1.00
H1402  H     0.73031   0.03355   0.73920   0.00000  Uiso   1.00
N1403  N     0.83333   0.28402   0.75000   0.00000  Uiso   1.00
N1404  N     0.83333   0.04931   0.75000   0.00000  Uiso   1.00
O1405  O     0.77321   0.20625   0.74999   0.00000  Uiso   1.00
O1406  O     0.84705   0.08429   0.97848   0.00000  Uiso   1.00
O1407  O     0.81019   0.24526   0.97136   0.00000  Uiso   1.00
O1408  O     0.77310   0.11388   0.51759   0.00000  Uiso   1.00
O1409  O     0.89345   0.12709   0.75001   0.00000  Uiso   1.00
O1410  O     0.89345   0.20625   0.75000   0.00000  Uiso   1.00
O1411  O     0.77321   0.12709   0.75000   0.00000  Uiso   1.00
O1412  O     0.83333   0.20626   0.68573   0.00000  Uiso   1.00
O1413  O     0.83334   0.12707   0.81427   0.00000  Uiso   1.00
O1414  O     0.83334   0.20626   0.81427   0.00000  Uiso   1.00
O1415  O     0.83333   0.12707   0.68573   0.00000  Uiso   1.00
O1416  O     0.89285   0.21484   0.53167   0.00000  Uiso   1.00
C1417  C     0.08757   0.50008   0.75016   0.00000  Uiso   1.00
C1418  C     0.31147   0.54226   0.74278   0.00000  Uiso   1.00
C1419  C     0.31223   0.45996   0.75301   0.00000  Uiso   1.00
C1420  C     0.02090   0.54210   0.74298   0.00000  Uiso   1.00
C1421  C     0.19646   0.52384   0.55156   0.00000  Uiso   1.00
C1422  C     0.17417   0.45822   0.95455   0.00000  Uiso   1.00
C1423  C     0.15347   0.53848   0.95123   0.00000  Uiso   1.00
C1424  C     0.13559   0.47314   0.54451   0.00000  Uiso   1.00
C1425  C     0.19510   0.52599   0.59774   0.00000  Uiso   1.00
C1426  C     0.17314   0.45860   0.90804   0.00000  Uiso   1.00
C1427  C     0.15358   0.53843   0.90504   0.00000  Uiso   1.00
C1428  C     0.24568   0.50027   0.74917   0.00000  Uiso   1.00
C1429  C     0.13717   0.47274   0.59112   0.00000  Uiso   1.00
C1430  C     0.16599   0.50003   0.61729   0.00000  Uiso   1.00
C1431  C     0.16444   0.49901   0.88330   0.00000  Uiso   1.00
C1432  C     0.16582   0.49824   0.52495   0.00000  Uiso   1.00
C1433  C     0.16466   0.49841   0.97623   0.00000  Uiso   1.00
C1434  C     0.29027   0.50093   0.74793   0.00000  Uiso   1.00
C1435  C     0.04287   0.50090   0.75041   0.00000  Uiso   1.00
C1436  C     0.10491   0.38219   0.68900   0.00000  Uiso   1.00
C1437  C     0.06163   0.37377   0.70271   0.00000  Uiso   1.00
C1438  C     0.22313   0.61592   0.81599   0.00000  Uiso   1.00
C1439  C     0.16636   0.50013   0.66535   0.00000  Uiso   1.00
C1440  C     0.21454   0.62148   0.86447   0.00000  Uiso   1.00
C1441  C     0.22403   0.38331   0.81588   0.00000  Uiso   1.00
C1442  C     0.27059   0.37444   0.81665   0.00000  Uiso   1.00
C1443  C     0.11859   0.61796   0.67724   0.00000  Uiso   1.00
C1444  C     0.14320   0.62070   0.63713   0.00000  Uiso   1.00
C1445  C     0.26683   0.53414   0.54922   0.00000  Uiso   1.00
C1446  C     0.29060   0.57396   0.57378   0.00000  Uiso   1.00
C1447  C     0.33289   0.55890   0.59707   0.00000  Uiso   1.00
C1448  C     0.22185   0.40297   0.97961   0.00000  Uiso   1.00
C1449  C     0.22218   0.35068   0.97885   0.00000  Uiso   1.00
C1450  C     0.16606   0.49975   0.83487   0.00000  Uiso   1.00
C1451  C     0.26583   0.66584   0.97766   0.00000  Uiso   1.00
C1452  C     0.10349   0.57477   0.98482   0.00000  Uiso   1.00
C1453  C     0.08116   0.62040   0.97613   0.00000  Uiso   1.00
C1454  C     0.03857   0.61902   0.99223   0.00000  Uiso   1.00
C1455  C     0.06542   0.45828   0.52460   0.00000  Uiso   1.00
C1456  C     0.04447   0.41628   0.54288   0.00000  Uiso   1.00
C1457  C     0.00095   0.42737   0.55312   0.00000  Uiso   1.00
C1458  C     0.13918   0.35797   0.71999   0.00000  Uiso   1.00
C1459  C     0.19314   0.64170   0.78128   0.00000  Uiso   1.00
C1460  C     0.19434   0.35800   0.78027   0.00000  Uiso   1.00
C1461  C     0.14145   0.64212   0.71793   0.00000  Uiso   1.00
C1462  C     0.02164   0.46041   0.75747   0.00000  Uiso   1.00
Cu1463 Cu    0.16667   0.54689   0.75000   0.00000  Uiso   1.00
Cu1464 Cu    0.16667   0.45311   0.75000   0.00000  Uiso   1.00
H1465  H     0.21741   0.54668   0.61863   0.00000  Uiso   1.00
H1466  H     0.04199   0.40410   0.69330   0.00000  Uiso   1.00
H1467  H     0.04488   0.34487   0.68495   0.00000  Uiso   1.00
H1468  H     0.10928   0.41895   0.68775   0.00000  Uiso   1.00
H1469  H     0.10500   0.37259   0.65363   0.00000  Uiso   1.00
H1470  H     0.18232   0.63307   0.86594   0.00000  Uiso   1.00
H1471  H     0.21958   0.58850   0.88290   0.00000  Uiso   1.00
H1472  H     0.23662   0.64589   0.88263   0.00000  Uiso   1.00
H1473  H     0.22353   0.57968   0.81043   0.00000  Uiso   1.00
H1474  H     0.25563   0.62374   0.81208   0.00000  Uiso   1.00
H1475  H     0.27747   0.36045   0.78432   0.00000  Uiso   1.00
H1476  H     0.17941   0.42720   0.89153   0.00000  Uiso   1.00
H1477  H     0.28846   0.40664   0.82408   0.00000  Uiso   1.00
H1478  H     0.28255   0.35123   0.84455   0.00000  Uiso   1.00
H1479  H     0.22189   0.41983   0.81208   0.00000  Uiso   1.00
H1480  H     0.21459   0.37709   0.84933   0.00000  Uiso   1.00
H1481  H     0.17644   0.61280   0.64728   0.00000  Uiso   1.00
H1482  H     0.12993   0.59614   0.61112   0.00000  Uiso   1.00
H1483  H     0.14172   0.65537   0.62182   0.00000  Uiso   1.00
H1484  H     0.11012   0.58270   0.68486   0.00000  Uiso   1.00
H1485  H     0.08769   0.63171   0.66619   0.00000  Uiso   1.00
H1486  H     0.28322   0.52446   0.52061   0.00000  Uiso   1.00
H1487  H     0.14440   0.56917   0.88615   0.00000  Uiso   1.00
H1488  H     0.26784   0.50330   0.57158   0.00000  Uiso   1.00
H1489  H     0.29523   0.60163   0.54944   0.00000  Uiso   1.00
H1490  H     0.27252   0.58823   0.59914   0.00000  Uiso   1.00
H1491  H     0.32913   0.53230   0.62287   0.00000  Uiso   1.00
H1492  H     0.01620   0.58873   0.61372   0.00000  Uiso   1.00
H1493  H     0.01849   0.54506   0.57228   0.00000  Uiso   1.00
H1494  H     0.23995   0.41502   0.51122   0.00000  Uiso   1.00
H1495  H     0.23756   0.41610   0.95115   0.00000  Uiso   1.00
H1496  H     0.20984   0.33683   0.50901   0.00000  Uiso   1.00
H1497  H     0.20171   0.33858   0.94877   0.00000  Uiso   1.00
H1498  H     0.11526   0.45220   0.60695   0.00000  Uiso   1.00
H1499  H     0.27923   0.34677   0.94836   0.00000  Uiso   1.00
H1500  H     0.26466   0.62795   0.97493   0.00000  Uiso   1.00
H1501  H     0.28615   0.34201   0.50873   0.00000  Uiso   1.00
H1502  H     0.10674   0.56705   0.52129   0.00000  Uiso   1.00
H1503  H     0.08370   0.54751   0.96681   0.00000  Uiso   1.00
H1504  H     0.10009   0.64823   0.99376   0.00000  Uiso   1.00
H1505  H     0.07731   0.62808   0.93963   0.00000  Uiso   1.00
H1506  H     0.01973   0.58994   0.97697   0.00000  Uiso   1.00
H1507  H     0.02196   0.65124   0.98227   0.00000  Uiso   1.00
H1508  H     0.04200   0.61561   0.52926   0.00000  Uiso   1.00
H1509  H     0.03796   0.42905   0.76633   0.00000  Uiso   1.00
H1510  H     0.04797   0.46779   0.99167   0.00000  Uiso   1.00
H1511  H     0.06317   0.48826   0.54681   0.00000  Uiso   1.00
H1512  H     0.04251   0.38859   0.51774   0.00000  Uiso   1.00
H1513  H     0.06319   0.40358   0.57394   0.00000  Uiso   1.00
H1514  H     0.00243   0.45411   0.57921   0.00000  Uiso   1.00
H1515  H     0.31978   0.39617   0.56579   0.00000  Uiso   1.00
H1516  H     0.31477   0.43960   0.52236   0.00000  Uiso   1.00
H1517  H     0.29511   0.57446   0.73807   0.00000  Uiso   1.00
H1518  H     0.29649   0.42756   0.75384   0.00000  Uiso   1.00
H1519  H     0.03663   0.57414   0.73765   0.00000  Uiso   1.00
H1520  H     0.06364   0.36689   0.73920   0.00000  Uiso   1.00
N1521  N     0.16667   0.61736   0.75000   0.00000  Uiso   1.00
N1522  N     0.16667   0.38264   0.75000   0.00000  Uiso   1.00
O1523  O     0.10655   0.53958   0.74999   0.00000  Uiso   1.00
O1524  O     0.18038   0.41762   0.97848   0.00000  Uiso   1.00
O1525  O     0.14353   0.57859   0.97136   0.00000  Uiso   1.00
O1526  O     0.10644   0.44722   0.51759   0.00000  Uiso   1.00
O1527  O     0.22679   0.46042   0.75001   0.00000  Uiso   1.00
O1528  O     0.22679   0.53958   0.75000   0.00000  Uiso   1.00
O1529  O     0.10655   0.46042   0.75000   0.00000  Uiso   1.00
O1530  O     0.16666   0.53959   0.68573   0.00000  Uiso   1.00
O1531  O     0.16667   0.46041   0.81427   0.00000  Uiso   1.00
O1532  O     0.16667   0.53959   0.81427   0.00000  Uiso   1.00
O1533  O     0.16666   0.46041   0.68573   0.00000  Uiso   1.00
O1534  O     0.22619   0.54817   0.53167   0.00000  Uiso   1.00
C1535  C     0.42091   0.50008   0.75016   0.00000  Uiso   1.00
C1536  C     0.64480   0.54226   0.74278   0.00000  Uiso   1.00
C1537  C     0.64556   0.45996   0.75301   0.00000  Uiso   1.00
C1538  C     0.35423   0.54210   0.74298   0.00000  Uiso   1.00
C1539  C     0.52979   0.52384   0.55156   0.00000  Uiso   1.00
C1540  C     0.50750   0.45822   0.95455   0.00000  Uiso   1.00
C1541  C     0.48680   0.53848   0.95123   0.00000  Uiso   1.00
C1542  C     0.46892   0.47314   0.54451   0.00000  Uiso   1.00
C1543  C     0.52843   0.52599   0.59774   0.00000  Uiso   1.00
C1544  C     0.50648   0.45860   0.90804   0.00000  Uiso   1.00
C1545  C     0.48692   0.53843   0.90504   0.00000  Uiso   1.00
C1546  C     0.57901   0.50027   0.74917   0.00000  Uiso   1.00
C1547  C     0.47050   0.47274   0.59112   0.00000  Uiso   1.00
C1548  C     0.49933   0.50003   0.61729   0.00000  Uiso   1.00
C1549  C     0.49777   0.49901   0.88330   0.00000  Uiso   1.00
C1550  C     0.49916   0.49824   0.52495   0.00000  Uiso   1.00
C1551  C     0.49799   0.49841   0.97623   0.00000  Uiso   1.00
C1552  C     0.62360   0.50093   0.74793   0.00000  Uiso   1.00
C1553  C     0.37620   0.50090   0.75041   0.00000  Uiso   1.00
C1554  C     0.43824   0.38219   0.68900   0.00000  Uiso   1.00
C1555  C     0.39496   0.37377   0.70271   0.00000  Uiso   1.00
C1556  C     0.55647   0.61592   0.81599   0.00000  Uiso   1.00
C1557  C     0.49969   0.50013   0.66535   0.00000  Uiso   1.00
C1558  C     0.54787   0.62148   0.86447   0.00000  Uiso   1.00
C1559  C     0.55736   0.38331   0.81588   0.00000  Uiso   1.00
C1560  C     0.60393   0.37444   0.81665   0.00000  Uiso   1.00
C1561  C     0.45192   0.61796   0.67724   0.00000  Uiso   1.00
C1562  C     0.47654   0.62070   0.63713   0.00000  Uiso   1.00
C1563  C     0.60017   0.53414   0.54922   0.00000  Uiso   1.00
C1564  C     0.62393   0.57396   0.57378   0.00000  Uiso   1.00
C1565  C     0.66622   0.55890   0.59707   0.00000  Uiso   1.00
C1566  C     0.55518   0.40297   0.97961   0.00000  Uiso   1.00
C1567  C     0.55551   0.35068   0.97885   0.00000  Uiso   1.00
C1568  C     0.49940   0.49975   0.83487   0.00000  Uiso   1.00
C1569  C     0.59916   0.66584   0.97766   0.00000  Uiso   1.00
C1570  C     0.43682   0.57477   0.98482   0.00000  Uiso   1.00
C1571  C     0.41450   0.62040   0.97613   0.00000  Uiso   1.00
C1572  C     0.37191   0.61902   0.99223   0.00000  Uiso   1.00
C1573  C     0.39875   0.45828   0.52460   0.00000  Uiso   1.00
C1574  C     0.37781   0.41628   0.54288   0.00000  Uiso   1.00
C1575  C     0.33429   0.42737   0.55312   0.00000  Uiso   1.00
C1576  C     0.47251   0.35797   0.71999   0.00000  Uiso   1.00
C1577  C     0.52647   0.64170   0.78128   0.00000  Uiso   1.00
C1578  C     0.52768   0.35800   0.78027   0.00000  Uiso   1.00
C1579  C     0.47478   0.64212   0.71793   0.00000  Uiso   1.00
C1580  C     0.35498   0.46041   0.75747   0.00000  Uiso   1.00
Cu1581 Cu    0.50000   0.54689   0.75000   0.00000  Uiso   1.00
Cu1582 Cu    0.50000   0.45311   0.75000   0.00000  Uiso   1.00
H1583  H     0.55074   0.54668   0.61863   0.00000  Uiso   1.00
H1584  H     0.37532   0.40410   0.69330   0.00000  Uiso   1.00
H1585  H     0.37822   0.34487   0.68495   0.00000  Uiso   1.00
H1586  H     0.44261   0.41895   0.68775   0.00000  Uiso   1.00
H1587  H     0.43833   0.37259   0.65363   0.00000  Uiso   1.00
H1588  H     0.51565   0.63307   0.86594   0.00000  Uiso   1.00
H1589  H     0.55292   0.58850   0.88290   0.00000  Uiso   1.00
H1590  H     0.56995   0.64589   0.88263   0.00000  Uiso   1.00
H1591  H     0.55686   0.57968   0.81043   0.00000  Uiso   1.00
H1592  H     0.58897   0.62374   0.81208   0.00000  Uiso   1.00
H1593  H     0.61081   0.36045   0.78432   0.00000  Uiso   1.00
H1594  H     0.51275   0.42720   0.89153   0.00000  Uiso   1.00
H1595  H     0.62179   0.40664   0.82408   0.00000  Uiso   1.00
H1596  H     0.61589   0.35123   0.84455   0.00000  Uiso   1.00
H1597  H     0.55522   0.41983   0.81208   0.00000  Uiso   1.00
H1598  H     0.54792   0.37709   0.84933   0.00000  Uiso   1.00
H1599  H     0.50977   0.61280   0.64728   0.00000  Uiso   1.00
H1600  H     0.46326   0.59614   0.61112   0.00000  Uiso   1.00
H1601  H     0.47506   0.65537   0.62182   0.00000  Uiso   1.00
H1602  H     0.44346   0.58270   0.68486   0.00000  Uiso   1.00
H1603  H     0.42103   0.63171   0.66619   0.00000  Uiso   1.00
H1604  H     0.61656   0.52446   0.52061   0.00000  Uiso   1.00
H1605  H     0.47773   0.56917   0.88615   0.00000  Uiso   1.00
H1606  H     0.60118   0.50330   0.57158   0.00000  Uiso   1.00
H1607  H     0.62856   0.60163   0.54944   0.00000  Uiso   1.00
H1608  H     0.60586   0.58823   0.59914   0.00000  Uiso   1.00
H1609  H     0.66247   0.53230   0.62287   0.00000  Uiso   1.00
H1610  H     0.34953   0.58873   0.61372   0.00000  Uiso   1.00
H1611  H     0.35182   0.54506   0.57228   0.00000  Uiso   1.00
H1612  H     0.57328   0.41502   0.51122   0.00000  Uiso   1.00
H1613  H     0.57089   0.41610   0.95115   0.00000  Uiso   1.00
H1614  H     0.54317   0.33683   0.50901   0.00000  Uiso   1.00
H1615  H     0.53504   0.33858   0.94877   0.00000  Uiso   1.00
H1616  H     0.44860   0.45220   0.60695   0.00000  Uiso   1.00
H1617  H     0.61257   0.34677   0.94836   0.00000  Uiso   1.00
H1618  H     0.59799   0.62795   0.97493   0.00000  Uiso   1.00
H1619  H     0.61948   0.34201   0.50873   0.00000  Uiso   1.00
H1620  H     0.44008   0.56705   0.52129   0.00000  Uiso   1.00
H1621  H     0.41703   0.54751   0.96681   0.00000  Uiso   1.00
H1622  H     0.43342   0.64823   0.99376   0.00000  Uiso   1.00
H1623  H     0.41065   0.62808   0.93963   0.00000  Uiso   1.00
H1624  H     0.35306   0.58994   0.97697   0.00000  Uiso   1.00
H1625  H     0.35529   0.65124   0.98227   0.00000  Uiso   1.00
H1626  H     0.37533   0.61561   0.52926   0.00000  Uiso   1.00
H1627  H     0.37130   0.42905   0.76633   0.00000  Uiso   1.00
H1628  H     0.38130   0.46779   0.99167   0.00000  Uiso   1.00
H1629  H     0.39650   0.48826   0.54681   0.00000  Uiso   1.00
H1630  H     0.37584   0.38859   0.51774   0.00000  Uiso   1.00
H1631  H     0.39652   0.40358   0.57394   0.00000  Uiso   1.00
H1632  H     0.33576   0.45411   0.57921   0.00000  Uiso   1.00
H1633  H     0.65311   0.39617   0.56579   0.00000  Uiso   1.00
H1634  H     0.64811   0.43960   0.52236   0.00000  Uiso   1.00
H1635  H     0.62844   0.57446   0.73807   0.00000  Uiso   1.00
H1636  H     0.62982   0.42756   0.75384   0.00000  Uiso   1.00
H1637  H     0.36996   0.57414   0.73765   0.00000  Uiso   1.00
H1638  H     0.39697   0.36689   0.73920   0.00000  Uiso   1.00
N1639  N     0.50000   0.61736   0.75000   0.00000  Uiso   1.00
N1640  N     0.50000   0.38264   0.75000   0.00000  Uiso   1.00
O1641  O     0.43988   0.53958   0.74999   0.00000  Uiso   1.00
O1642  O     0.51371   0.41762   0.97848   0.00000  Uiso   1.00
O1643  O     0.47686   0.57859   0.97136   0.00000  Uiso   1.00
O1644  O     0.43977   0.44722   0.51759   0.00000  Uiso   1.00
O1645  O     0.56012   0.46042   0.75001   0.00000  Uiso   1.00
O1646  O     0.56012   0.53958   0.75000   0.00000  Uiso   1.00
O1647  O     0.43988   0.46042   0.75000   0.00000  Uiso   1.00
O1648  O     0.50000   0.53959   0.68573   0.00000  Uiso   1.00
O1649  O     0.50000   0.46041   0.81427   0.00000  Uiso   1.00
O1650  O     0.50000   0.53959   0.81427   0.00000  Uiso   1.00
O1651  O     0.50000   0.46041   0.68573   0.00000  Uiso   1.00
O1652  O     0.55952   0.54817   0.53167   0.00000  Uiso   1.00
C1653  C     0.75424   0.50008   0.75016   0.00000  Uiso   1.00
C1654  C     0.97814   0.54226   0.74278   0.00000  Uiso   1.00
C1655  C     0.97890   0.45996   0.75301   0.00000  Uiso   1.00
C1656  C     0.68756   0.54210   0.74298   0.00000  Uiso   1.00
C1657  C     0.86313   0.52384   0.55156   0.00000  Uiso   1.00
C1658  C     0.84084   0.45822   0.95455   0.00000  Uiso   1.00
C1659  C     0.82013   0.53848   0.95123   0.00000  Uiso   1.00
C1660  C     0.80225   0.47314   0.54451   0.00000  Uiso   1.00
C1661  C     0.86176   0.52599   0.59774   0.00000  Uiso   1.00
C1662  C     0.83981   0.45860   0.90804   0.00000  Uiso   1.00
C1663  C     0.82025   0.53843   0.90504   0.00000  Uiso   1.00
C1664  C     0.91234   0.50027   0.74917   0.00000  Uiso   1.00
C1665  C     0.80383   0.47274   0.59112   0.00000  Uiso   1.00
C1666  C     0.83266   0.50003   0.61729   0.00000  Uiso   1.00
C1667  C     0.83111   0.49901   0.88330   0.00000  Uiso   1.00
C1668  C     0.83249   0.49824   0.52495   0.00000  Uiso   1.00
C1669  C     0.83133   0.49841   0.97623   0.00000  Uiso   1.00
C1670  C     0.95694   0.50093   0.74793   0.00000  Uiso   1.00
C1671  C     0.70954   0.50090   0.75041   0.00000  Uiso   1.00
C1672  C     0.77157   0.38219   0.68900   0.00000  Uiso   1.00
C1673  C     0.72829   0.37377   0.70271   0.00000  Uiso   1.00
C1674  C     0.88980   0.61592   0.81599   0.00000  Uiso   1.00
C1675  C     0.83303   0.50013   0.66535   0.00000  Uiso   1.00
C1676  C     0.88121   0.62148   0.86447   0.00000  Uiso   1.00
C1677  C     0.89070   0.38331   0.81588   0.00000  Uiso   1.00
C1678  C     0.93726   0.37444   0.81665   0.00000  Uiso   1.00
C1679  C     0.78526   0.61796   0.67724   0.00000  Uiso   1.00
C1680  C     0.80987   0.62070   0.63713   0.00000  Uiso   1.00
C1681  C     0.93350   0.53414   0.54922   0.00000  Uiso   1.00
C1682  C     0.95726   0.57396   0.57378   0.00000  Uiso   1.00
C1683  C     0.99956   0.55890   0.59707   0.00000  Uiso   1.00
C1684  C     0.88851   0.40297   0.97961   0.00000  Uiso   1.00
C1685  C     0.88884   0.35068   0.97885   0.00000  Uiso   1.00
C1686  C     0.83273   0.49975   0.83487   0.00000  Uiso   1.00
C1687  C     0.93250   0.66584   0.97766   0.00000  Uiso   1.00
C1688  C     0.77016   0.57477   0.98482   0.00000  Uiso   1.00
C1689  C     0.74783   0.62040   0.97613   0.00000  Uiso   1.00
C1690  C     0.70524   0.61902   0.99223   0.00000  Uiso   1.00
C1691  C     0.73208   0.45828   0.52460   0.00000  Uiso   1.00
C1692  C     0.71114   0.41628   0.54288   0.00000  Uiso   1.00
C1693  C     0.66762   0.42737   0.55312   0.00000  Uiso   1.00
C1694  C     0.80585   0.35797   0.71999   0.00000  Uiso   1.00
C1695  C     0.85980   0.64170   0.78128   0.00000  Uiso   1.00
C1696  C     0.86101   0.35800   0.78027   0.00000  Uiso   1.00
C1697  C     0.80811   0.64212   0.71793   0.00000  Uiso   1.00
C1698  C     0.68831   0.46041   0.75747   0.00000  Uiso   1.00
Cu1699 Cu    0.83333   0.54689   0.75000   0.00000  Uiso   1.00
Cu1700 Cu    0.83333   0.45311   0.75000   0.00000  Uiso   1.00
H1701  H     0.88407   0.54668   0.61863   0.00000  Uiso   1.00
H1702  H     0.70865   0.40410   0.69330   0.00000  Uiso   1.00
H1703  H     0.71155   0.34487   0.68495   0.00000  Uiso   1.00
H1704  H     0.77595   0.41895   0.68775   0.00000  Uiso   1.00
H1705  H     0.77167   0.37259   0.65363   0.00000  Uiso   1.00
H1706  H     0.84898   0.63307   0.86594   0.00000  Uiso   1.00
H1707  H     0.88625   0.58850   0.88290   0.00000  Uiso   1.00
H1708  H     0.90328   0.64589   0.88263   0.00000  Uiso   1.00
H1709  H     0.89020   0.57968   0.81043   0.00000  Uiso   1.00
H1710  H     0.92230   0.62374   0.81208   0.00000  Uiso   1.00
H1711  H     0.94414   0.36045   0.78432   0.00000  Uiso   1.00
H1712  H     0.84608   0.42720   0.89153   0.00000  Uiso   1.00
H1713  H     0.95513   0.40664   0.82408   0.00000  Uiso   1.00
H1714  H     0.94922   0.35123   0.84455   0.00000  Uiso   1.00
H1715  H     0.88856   0.41983   0.81208   0.00000  Uiso   1.00
H1716  H     0.88126   0.37709   0.84933   0.00000  Uiso   1.00
H1717  H     0.84311   0.61280   0.64728   0.00000  Uiso   1.00
H1718  H     0.79659   0.59614   0.61112   0.00000  Uiso   1.00
H1719  H     0.80839   0.65537   0.62182   0.00000  Uiso   1.00
H1720  H     0.77679   0.58270   0.68486   0.00000  Uiso   1.00
H1721  H     0.75436   0.63171   0.66619   0.00000  Uiso   1.00
H1722  H     0.94989   0.52446   0.52061   0.00000  Uiso   1.00
H1723  H     0.81107   0.56917   0.88615   0.00000  Uiso   1.00
H1724  H     0.93451   0.50330   0.57158   0.00000  Uiso   1.00
H1725  H     0.96189   0.60163   0.54944   0.00000  Uiso   1.00
H1726  H     0.93919   0.58823   0.59914   0.00000  Uiso   1.00
H1727  H     0.99580   0.53230   0.62287   0.00000  Uiso   1.00
H1728  H     0.68286   0.58873   0.61372   0.00000  Uiso   1.00
H1729  H     0.68516   0.54506   0.57228   0.00000  Uiso   1.00
H1730  H     0.90661   0.41502   0.51122   0.00000  Uiso   1.00
H1731  H     0.90422   0.41610   0.95115   0.00000  Uiso   1.00
H1732  H     0.87650   0.33683   0.50901   0.00000  Uiso   1.00
H1733  H     0.86838   0.33858   0.94877   0.00000  Uiso   1.00
H1734  H     0.78193   0.45220   0.60695   0.00000  Uiso   1.00
H1735  H     0.94590   0.34677   0.94836   0.00000  Uiso   1.00
H1736  H     0.93132   0.62795   0.97493   0.00000  Uiso   1.00
H1737  H     0.95282   0.34201   0.50873   0.00000  Uiso   1.00
H1738  H     0.77341   0.56705   0.52129   0.00000  Uiso   1.00
H1739  H     0.75037   0.54751   0.96681   0.00000  Uiso   1.00
H1740  H     0.76675   0.64823   0.99376   0.00000  Uiso   1.00
H1741  H     0.74398   0.62808   0.93963   0.00000  Uiso   1.00
H1742  H     0.68640   0.58994   0.97697   0.00000  Uiso   1.00
H1743  H     0.68862   0.65124   0.98227   0.00000  Uiso   1.00
H1744  H     0.70866   0.61561   0.52926   0.00000  Uiso   1.00
H1745  H     0.70463   0.42905   0.76633   0.00000  Uiso   1.00
H1746  H     0.71463   0.46779   0.99167   0.00000  Uiso   1.00
H1747  H     0.72983   0.48826   0.54681   0.00000  Uiso   1.00
H1748  H     0.70917   0.38859   0.51774   0.00000  Uiso   1.00
H1749  H     0.72985   0.40358   0.57394   0.00000  Uiso   1.00
H1750  H     0.66909   0.45411   0.57921   0.00000  Uiso   1.00
H1751  H     0.98644   0.39617   0.56579   0.00000  Uiso   1.00
H1752  H     0.98144   0.43960   0.52236   0.00000  Uiso   1.00
H1753  H     0.96178   0.57446   0.73807   0.00000  Uiso   1.00
H1754  H     0.96315   0.42756   0.75384   0.00000  Uiso   1.00
H1755  H     0.70330   0.57414   0.73765   0.00000  Uiso   1.00
H1756  H     0.73031   0.36689   0.73920   0.00000  Uiso   1.00
N1757  N     0.83333   0.61736   0.75000   0.00000  Uiso   1.00
N1758  N     0.83333   0.38264   0.75000   0.00000  Uiso   1.00
O1759  O     0.77321   0.53958   0.74999   0.00000  Uiso   1.00
O1760  O     0.84705   0.41762   0.97848   0.00000  Uiso   1.00
O1761  O     0.81019   0.57859   0.97136   0.00000  Uiso   1.00
O1762  O     0.77310   0.44722   0.51759   0.00000  Uiso   1.00
O1763  O     0.89345   0.46042   0.75001   0.00000  Uiso   1.00
O1764  O     0.89345   0.53958   0.75000   0.00000  Uiso   1.00
O1765  O     0.77321   0.46042   0.75000   0.00000  Uiso   1.00
O1766  O     0.83333   0.53959   0.68573   0.00000  Uiso   1.00
O1767  O     0.83334   0.46041   0.81427   0.00000  Uiso   1.00
O1768  O     0.83334   0.53959   0.81427   0.00000  Uiso   1.00
O1769  O     0.83333   0.46041   0.68573   0.00000  Uiso   1.00
O1770  O     0.89285   0.54817   0.53167   0.00000  Uiso   1.00
C1771  C     0.08757   0.83341   0.75016   0.00000  Uiso   1.00
C1772  C     0.31147   0.87559   0.74278   0.00000  Uiso   1.00
C1773  C     0.31223   0.79329   0.75301   0.00000  Uiso   1.00
C1774  C     0.02090   0.87543   0.74298   0.00000  Uiso   1.00
C1775  C     0.19646   0.85717   0.55156   0.00000  Uiso   1.00
C1776  C     0.17417   0.79156   0.95455   0.00000  Uiso   1.00
C1777  C     0.15347   0.87182   0.95123   0.00000  Uiso   1.00
C1778  C     0.13559   0.80648   0.54451   0.00000  Uiso   1.00
C1779  C     0.19510   0.85932   0.59774   0.00000  Uiso   1.00
C1780  C     0.17314   0.79193   0.90804   0.00000  Uiso   1.00
C1781  C     0.15358   0.87177   0.90504   0.00000  Uiso   1.00
C1782  C     0.24568   0.83360   0.74917   0.00000  Uiso   1.00
C1783  C     0.13717   0.80607   0.59112   0.00000  Uiso   1.00
C1784  C     0.16599   0.83336   0.61729   0.00000  Uiso   1.00
C1785  C     0.16444   0.83234   0.88330   0.00000  Uiso   1.00
C1786  C     0.16582   0.83157   0.52495   0.00000  Uiso   1.00
C1787  C     0.16466   0.83174   0.97623   0.00000  Uiso   1.00
C1788  C     0.29027   0.83426   0.74793   0.00000  Uiso   1.00
C1789  C     0.04287   0.83423   0.75041   0.00000  Uiso   1.00
C1790  C     0.10491   0.71552   0.68900   0.00000  Uiso   1.00
C1791  C     0.06163   0.70711   0.70271   0.00000  Uiso   1.00
C1792  C     0.22313   0.94925   0.81599   0.00000  Uiso   1.00
C1793  C     0.16636   0.83346   0.66535   0.00000  Uiso   1.00
C1794  C     0.21454   0.95481   0.86447   0.00000  Uiso   1.00
C1795  C     0.22403   0.71664   0.81588   0.00000  Uiso   1.00
C1796  C     0.27059   0.70777   0.81665   0.00000  Uiso   1.00
C1797  C     0.11859   0.95129   0.67724   0.00000  Uiso   1.00
C1798  C     0.14320   0.95403   0.63713   0.00000  Uiso   1.00
C1799  C     0.26683   0.86748   0.54922   0.00000  Uiso   1.00
C1800  C     0.29060   0.90730   0.57378   0.00000  Uiso   1.00
C1801  C     0.33289   0.89224   0.59707   0.00000  Uiso   1.00
C1802  C     0.22185   0.73631   0.97961   0.00000  Uiso   1.00
C1803  C     0.22218   0.68402   0.97885   0.00000  Uiso   1.00
C1804  C     0.16606   0.83309   0.83487   0.00000  Uiso   1.00
C1805  C     0.26583   0.99917   0.97766   0.00000  Uiso   1.00
C1806  C     0.10349   0.90810   0.98482   0.00000  Uiso   1.00
C1807  C     0.08116   0.95373   0.97613   0.00000  Uiso   1.00
C1808  C     0.03857   0.95235   0.99223   0.00000  Uiso   1.00
C1809  C     0.06542   0.79162   0.52460   0.00000  Uiso   1.00
C1810  C     0.04447   0.74962   0.54288   0.00000  Uiso   1.00
C1811  C     0.00095   0.76070   0.55312   0.00000  Uiso   1.00
C1812  C     0.13918   0.69131   0.71999   0.00000  Uiso   1.00
C1813  C     0.19314   0.97503   0.78128   0.00000  Uiso   1.00
C1814  C     0.19434   0.69133   0.78027   0.00000  Uiso   1.00
C1815  C     0.14145   0.97545   0.71793   0.00000  Uiso   1.00
C1816  C     0.02164   0.79374   0.75747   0.00000  Uiso   1.00
Cu1817 Cu    0.16667   0.88022   0.75000   0.00000  Uiso   1.00
Cu1818 Cu    0.16667   0.78645   0.75000   0.00000  Uiso   1.00
H1819  H     0.21741   0.88001   0.61863   0.00000  Uiso   1.00
H1820  H     0.04199   0.73744   0.69330   0.00000  Uiso   1.00
H1821  H     0.04488   0.67821   0.68495   0.00000  Uiso   1.00
H1822  H     0.10928   0.75228   0.68775   0.00000  Uiso   1.00
H1823  H     0.10500   0.70593   0.65363   0.00000  Uiso   1.00
H1824  H     0.18232   0.96640   0.86594   0.00000  Uiso   1.00
H1825  H     0.21958   0.92183   0.88290   0.00000  Uiso   1.00
H1826  H     0.23662   0.97922   0.88263   0.00000  Uiso   1.00
H1827  H     0.22353   0.91301   0.81043   0.00000  Uiso   1.00
H1828  H     0.25563   0.95707   0.81208   0.00000  Uiso   1.00
H1829  H     0.27747   0.69379   0.78432   0.00000  Uiso   1.00
H1830  H     0.17941   0.76054   0.89153   0.00000  Uiso   1.00
H1831  H     0.28846   0.73997   0.82408   0.00000  Uiso   1.00
H1832  H     0.28255   0.68457   0.84455   0.00000  Uiso   1.00
H1833  H     0.22189   0.75316   0.81208   0.00000  Uiso   1.00
H1834  H     0.21459   0.71042   0.84933   0.00000  Uiso   1.00
H1835  H     0.17644   0.94613   0.64728   0.00000  Uiso   1.00
H1836  H     0.12993   0.92947   0.61112   0.00000  Uiso   1.00
H1837  H     0.14172   0.98871   0.62182   0.00000  Uiso   1.00
H1838  H     0.11012   0.91604   0.68486   0.00000  Uiso   1.00
H1839  H     0.08769   0.96504   0.66619   0.00000  Uiso   1.00
H1840  H     0.28322   0.85780   0.52061   0.00000  Uiso   1.00
H1841  H     0.14440   0.90250   0.88615   0.00000  Uiso   1.00
H1842  H     0.26784   0.83663   0.57158   0.00000  Uiso   1.00
H1843  H     0.29523   0.93496   0.54944   0.00000  Uiso   1.00
H1844  H     0.27252   0.92156   0.59914   0.00000  Uiso   1.00
H1845  H     0.32913   0.86563   0.62287   0.00000  Uiso   1.00
H1846  H     0.01620   0.92207   0.61372   0.00000  Uiso   1.00
H1847  H     0.01849   0.87840   0.57228   0.00000  Uiso   1.00
H1848  H     0.23995   0.74835   0.51122   0.00000  Uiso   1.00
H1849  H     0.23756   0.74943   0.95115   0.00000  Uiso   1.00
H1850  H     0.20984   0.67017   0.50901   0.00000  Uiso   1.00
H1851  H     0.20171   0.67191   0.94877   0.00000  Uiso   1.00
H1852  H     0.11526   0.78553   0.60695   0.00000  Uiso   1.00
H1853  H     0.27923   0.68010   0.94836   0.00000  Uiso   1.00
H1854  H     0.26466   0.96129   0.97493   0.00000  Uiso   1.00
H1855  H     0.28615   0.67534   0.50873   0.00000  Uiso   1.00
H1856  H     0.10674   0.90038   0.52129   0.00000  Uiso   1.00
H1857  H     0.08370   0.88084   0.96681   0.00000  Uiso   1.00
H1858  H     0.10009   0.98156   0.99376   0.00000  Uiso   1.00
H1859  H     0.07731   0.96141   0.93963   0.00000  Uiso   1.00
H1860  H     0.01973   0.92327   0.97697   0.00000  Uiso   1.00
H1861  H     0.02196   0.98457   0.98227   0.00000  Uiso   1.00
H1862  H     0.04200   0.94895   0.52926   0.00000  Uiso   1.00
H1863  H     0.03796   0.76239   0.76633   0.00000  Uiso   1.00
H1864  H     0.04797   0.80112   0.99167   0.00000  Uiso   1.00
H1865  H     0.06317   0.82160   0.54681   0.00000  Uiso   1.00
H1866  H     0.04251   0.72193   0.51774   0.00000  Uiso   1.00
H1867  H     0.06319   0.73691   0.57394   0.00000  Uiso   1.00
H1868  H     0.00243   0.78744   0.57921   0.00000  Uiso   1.00
H1869  H     0.31978   0.72950   0.56579   0.00000  Uiso   1.00
H1870  H     0.31477   0.77294   0.52236   0.00000  Uiso   1.00
H1871  H     0.29511   0.90779   0.73807   0.00000  Uiso   1.00
H1872  H     0.29649   0.76089   0.75384   0.00000  Uiso   1.00
H1873  H     0.03663   0.90747   0.73765   0.00000  Uiso   1.00
H1874  H     0.06364   0.70022   0.73920   0.00000  Uiso   1.00
N1875  N     0.16667   0.95069   0.75000   0.00000  Uiso   1.00
N1876  N     0.16667   0.71598   0.75000   0.00000  Uiso   1.00
O1877  O     0.10655   0.87291   0.74999   0.00000  Uiso   1.00
O1878  O     0.18038   0.75095   0.97848   0.00000  Uiso   1.00
O1879  O     0.14353   0.91193   0.97136   0.00000  Uiso   1.00
O1880  O     0.10644   0.78055   0.51759   0.00000  Uiso   1.00
O1881  O     0.22679   0.79375   0.75001   0.00000  Uiso   1.00
O1882  O     0.22679   0.87291   0.75000   0.00000  Uiso   1.00
O1883  O     0.10655   0.79375   0.75000   0.00000  Uiso   1.00
O1884  O     0.16666   0.87293   0.68573   0.00000  Uiso   1.00
O1885  O     0.16667   0.79374   0.81427   0.00000  Uiso   1.00
O1886  O     0.16667   0.87293   0.81427   0.00000  Uiso   1.00
O1887  O     0.16666   0.79374   0.68573   0.00000  Uiso   1.00
O1888  O     0.22619   0.88150   0.53167   0.00000  Uiso   1.00
C1889  C     0.42091   0.83341   0.75016   0.00000  Uiso   1.00
C1890  C     0.64480   0.87559   0.74278   0.00000  Uiso   1.00
C1891  C     0.64556   0.79329   0.75301   0.00000  Uiso   1.00
C1892  C     0.35423   0.87543   0.74298   0.00000  Uiso   1.00
C1893  C     0.52979   0.85717   0.55156   0.00000  Uiso   1.00
C1894  C     0.50750   0.79156   0.95455   0.00000  Uiso   1.00
C1895  C     0.48680   0.87182   0.95123   0.00000  Uiso   1.00
C1896  C     0.46892   0.80648   0.54451   0.00000  Uiso   1.00
C1897  C     0.52843   0.85932   0.59774   0.00000  Uiso   1.00
C1898  C     0.50648   0.79193   0.90804   0.00000  Uiso   1.00
C1899  C     0.48692   0.87177   0.90504   0.00000  Uiso   1.00
C1900  C     0.57901   0.83360   0.74917   0.00000  Uiso   1.00
C1901  C     0.47050   0.80607   0.59112   0.00000  Uiso   1.00
C1902  C     0.49933   0.83336   0.61729   0.00000  Uiso   1.00
C1903  C     0.49777   0.83234   0.88330   0.00000  Uiso   1.00
C1904  C     0.49916   0.83157   0.52495   0.00000  Uiso   1.00
C1905  C     0.49799   0.83174   0.97623   0.00000  Uiso   1.00
C1906  C     0.62360   0.83426   0.74793   0.00000  Uiso   1.00
C1907  C     0.37620   0.83423   0.75041   0.00000  Uiso   1.00
C1908  C     0.43824   0.71552   0.68900   0.00000  Uiso   1.00
C1909  C     0.39496   0.70711   0.70271   0.00000  Uiso   1.00
C1910  C     0.55647   0.94925   0.81599   0.00000  Uiso   1.00
C1911  C     0.49969   0.83346   0.66535   0.00000  Uiso   1.00
C1912  C     0.54787   0.95481   0.86447   0.00000  Uiso   1.00
C1913  C     0.55736   0.71664   0.81588   0.00000  Uiso   1.00
C1914  C     0.60393   0.70777   0.81665   0.00000  Uiso   1.00
C1915  C     0.45192   0.95129   0.67724   0.00000  Uiso   1.00
C1916  C     0.47654   0.95403   0.63713   0.00000  Uiso   1.00
C1917  C     0.60017   0.86748   0.54922   0.00000  Uiso   1.00
C1918  C     0.62393   0.90730   0.57378   0.00000  Uiso   1.00
C1919  C     0.66622   0.89224   0.59707   0.00000  Uiso   1.00
C1920  C     0.55518   0.73631   0.97961   0.00000  Uiso   1.00
C1921  C     0.55551   0.68402   0.97885   0.00000  Uiso   1.00
C1922  C     0.49940   0.83309   0.83487   0.00000  Uiso   1.00
C1923  C     0.59916   0.99917   0.97766   0.00000  Uiso   1.00
C1924  C     0.43682   0.90810   0.98482   0.00000  Uiso   1.00
C1925  C     0.41450   0.95373   0.97613   0.00000  Uiso   1.00
C1926  C     0.37191   0.95235   0.99223   0.00000  Uiso   1.00
C1927  C     0.39875   0.79162   0.52460   0.00000  Uiso   1.00
C1928  C     0.37781   0.74962   0.54288   0.00000  Uiso   1.00
C1929  C     0.33429   0.76070   0.55312   0.00000  Uiso   1.00
C1930  C     0.47251   0.69131   0.71999   0.00000  Uiso   1.00
C1931  C     0.52647   0.97503   0.78128   0.00000  Uiso   1.00
C1932  C     0.52768   0.69133   0.78027   0.00000  Uiso   1.00
C1933  C     0.47478   0.97545   0.71793   0.00000  Uiso   1.00
C1934  C     0.35498   0.79374   0.75747   0.00000  Uiso   1.00
Cu1935 Cu    0.50000   0.88022   0.75000   0.00000  Uiso   1.00
Cu1936 Cu    0.50000   0.78645   0.75000   0.00000  Uiso   1.00
H1937  H     0.55074   0.88001   0.61863   0.00000  Uiso   1.00
H1938  H     0.37532   0.73744   0.69330   0.00000  Uiso   1.00
H1939  H     0.37822   0.67821   0.68495   0.00000  Uiso   1.00
H1940  H     0.44261   0.75228   0.68775   0.00000  Uiso   1.00
H1941  H     0.43833   0.70593   0.65363   0.00000  Uiso   1.00
H1942  H     0.51565   0.96640   0.86594   0.00000  Uiso   1.00
H1943  H     0.55292   0.92183   0.88290   0.00000  Uiso   1.00
H1944  H     0.56995   0.97922   0.88263   0.00000  Uiso   1.00
H1945  H     0.55686   0.91301   0.81043   0.00000  Uiso   1.00
H1946  H     0.58897   0.95707   0.81208   0.00000  Uiso   1.00
H1947  H     0.61081   0.69379   0.78432   0.00000  Uiso   1.00
H1948  H     0.51275   0.76054   0.89153   0.00000  Uiso   1.00
H1949  H     0.62179   0.73997   0.82408   0.00000  Uiso   1.00
H1950  H     0.61589   0.68457   0.84455   0.00000  Uiso   1.00
H1951  H     0.55522   0.75316   0.81208   0.00000  Uiso   1.00
H1952  H     0.54792   0.71042   0.84933   0.00000  Uiso   1.00
H1953  H     0.50977   0.94613   0.64728   0.00000  Uiso   1.00
H1954  H     0.46326   0.92947   0.61112   0.00000  Uiso   1.00
H1955  H     0.47506   0.98871   0.62182   0.00000  Uiso   1.00
H1956  H     0.44346   0.91604   0.68486   0.00000  Uiso   1.00
H1957  H     0.42103   0.96504   0.66619   0.00000  Uiso   1.00
H1958  H     0.61656   0.85780   0.52061   0.00000  Uiso   1.00
H1959  H     0.47773   0.90250   0.88615   0.00000  Uiso   1.00
H1960  H     0.60118   0.83663   0.57158   0.00000  Uiso   1.00
H1961  H     0.62856   0.93496   0.54944   0.00000  Uiso   1.00
H1962  H     0.60586   0.92156   0.59914   0.00000  Uiso   1.00
H1963  H     0.66247   0.86563   0.62287   0.00000  Uiso   1.00
H1964  H     0.34953   0.92207   0.61372   0.00000  Uiso   1.00
H1965  H     0.35182   0.87840   0.57228   0.00000  Uiso   1.00
H1966  H     0.57328   0.74835   0.51122   0.00000  Uiso   1.00
H1967  H     0.57089   0.74943   0.95115   0.00000  Uiso   1.00
H1968  H     0.54317   0.67017   0.50901   0.00000  Uiso   1.00
H1969  H     0.53504   0.67191   0.94877   0.00000  Uiso   1.00
H1970  H     0.44860   0.78553   0.60695   0.00000  Uiso   1.00
H1971  H     0.61257   0.68010   0.94836   0.00000  Uiso   1.00
H1972  H     0.59799   0.96129   0.97493   0.00000  Uiso   1.00
H1973  H     0.61948   0.67534   0.50873   0.00000  Uiso   1.00
H1974  H     0.44008   0.90038   0.52129   0.00000  Uiso   1.00
H1975  H     0.41703   0.88084   0.96681   0.00000  Uiso   1.00
H1976  H     0.43342   0.98156   0.99376   0.00000  Uiso   1.00
H1977  H     0.41065   0.96141   0.93963   0.00000  Uiso   1.00
H1978  H     0.35306   0.92327   0.97697   0.00000  Uiso   1.00
H1979  H     0.35529   0.98457   0.98227   0.00000  Uiso   1.00
H1980  H     0.37533   0.94895   0.52926   0.00000  Uiso   1.00
H1981  H     0.37130   0.76239   0.76633   0.00000  Uiso   1.00
H1982  H     0.38130   0.80112   0.99167   0.00000  Uiso   1.00
H1983  H     0.39650   0.82160   0.54681   0.00000  Uiso   1.00
H1984  H     0.37584   0.72193   0.51774   0.00000  Uiso   1.00
H1985  H     0.39652   0.73691   0.57394   0.00000  Uiso   1.00
H1986  H     0.33576   0.78744   0.57921   0.00000  Uiso   1.00
H1987  H     0.65311   0.72950   0.56579   0.00000  Uiso   1.00
H1988  H     0.64811   0.77294   0.52236   0.00000  Uiso   1.00
H1989  H     0.62844   0.90779   0.73807   0.00000  Uiso   1.00
H1990  H     0.62982   0.76089   0.75384   0.00000  Uiso   1.00
H1991  H     0.36996   0.90747   0.73765   0.00000  Uiso   1.00
H1992  H     0.39697   0.70022   0.73920   0.00000  Uiso   1.00
N1993  N     0.50000   0.95069   0.75000   0.00000  Uiso   1.00
N1994  N     0.50000   0.71598   0.75000   0.00000  Uiso   1.00
O1995  O     0.43988   0.87291   0.74999   0.00000  Uiso   1.00
O1996  O     0.51371   0.75095   0.97848   0.00000  Uiso   1.00
O1997  O     0.47686   0.91193   0.97136   0.00000  Uiso   1.00
O1998  O     0.43977   0.78055   0.51759   0.00000  Uiso   1.00
O1999  O     0.56012   0.79375   0.75001   0.00000  Uiso   1.00
O2000  O     0.56012   0.87291   0.75000   0.00000  Uiso   1.00
O2001  O     0.43988   0.79375   0.75000   0.00000  Uiso   1.00
O2002  O     0.50000   0.87293   0.68573   0.00000  Uiso   1.00
O2003  O     0.50000   0.79374   0.81427   0.00000  Uiso   1.00
O2004  O     0.50000   0.87293   0.81427   0.00000  Uiso   1.00
O2005  O     0.50000   0.79374   0.68573   0.00000  Uiso   1.00
O2006  O     0.55952   0.88150   0.53167   0.00000  Uiso   1.00
C2007  C     0.75424   0.83341   0.75016   0.00000  Uiso   1.00
C2008  C     0.97814   0.87559   0.74278   0.00000  Uiso   1.00
C2009  C     0.97890   0.79329   0.75301   0.00000  Uiso   1.00
C2010  C     0.68756   0.87543   0.74298   0.00000  Uiso   1.00
C2011  C     0.86313   0.85717   0.55156   0.00000  Uiso   1.00
C2012  C     0.84084   0.79156   0.95455   0.00000  Uiso   1.00
C2013  C     0.82013   0.87182   0.95123   0.00000  Uiso   1.00
C2014  C     0.80225   0.80648   0.54451   0.00000  Uiso   1.00
C2015  C     0.86176   0.85932   0.59774   0.00000  Uiso   1.00
C2016  C     0.83981   0.79193   0.90804   0.00000  Uiso   1.00
C2017  C     0.82025   0.87177   0.90504   0.00000  Uiso   1.00
C2018  C     0.91234   0.83360   0.74917   0.00000  Uiso   1.00
C2019  C     0.80383   0.80607   0.59112   0.00000  Uiso   1.00
C2020  C     0.83266   0.83336   0.61729   0.00000  Uiso   1.00
C2021  C     0.83111   0.83234   0.88330   0.00000  Uiso   1.00
C2022  C     0.83249   0.83157   0.52495   0.00000  Uiso   1.00
C2023  C     0.83133   0.83174   0.97623   0.00000  Uiso   1.00
C2024  C     0.95694   0.83426   0.74793   0.00000  Uiso   1.00
C2025  C     0.70954   0.83423   0.75041   0.00000  Uiso   1.00
C2026  C     0.77157   0.71552   0.68900   0.00000  Uiso   1.00
C2027  C     0.72829   0.70711   0.70271   0.00000  Uiso   1.00
C2028  C     0.88980   0.94925   0.81599   0.00000  Uiso   1.00
C2029  C     0.83303   0.83346   0.66535   0.00000  Uiso   1.00
C2030  C     0.88121   0.95481   0.86447   0.00000  Uiso   1.00
C2031  C     0.89070   0.71664   0.81588   0.00000  Uiso   1.00
C2032  C     0.93726   0.70777   0.81665   0.00000  Uiso   1.00
C2033  C     0.78526   0.95129   0.67724   0.00000  Uiso   1.00
C2034  C     0.80987   0.95403   0.63713   0.00000  Uiso   1.00
C2035  C     0.93350   0.86748   0.54922   0.00000  Uiso   1.00
C2036  C     0.95726   0.90730   0.57378   0.00000  Uiso   1.00
C2037  C     0.99956   0.89224   0.59707   0.00000  Uiso   1.00
C2038  C     0.88851   0.73631   0.97961   0.00000  Uiso   1.00
C2039  C     0.88884   0.68402   0.97885   0.00000  Uiso   1.00
C2040  C     0.83273   0.83309   0.83487   0.00000  Uiso   1.00
C2041  C     0.93250   0.99917   0.97766   0.00000  Uiso   1.00
C2042  C     0.77016   0.90810   0.98482   0.00000  Uiso   1.00
C2043  C     0.74783   0.95373   0.97613   0.00000  Uiso   1.00
C2044  C     0.70524   0.95235   0.99223   0.00000  Uiso   1.00
C2045  C     0.73208   0.79162   0.52460   0.00000  Uiso   1.00
C2046  C     0.71114   0.74962   0.54288   0.00000  Uiso   1.00
C2047  C     0.66762   0.76070   0.55312   0.00000  Uiso   1.00
C2048  C     0.80585   0.69131   0.71999   0.00000  Uiso   1.00
C2049  C     0.85980   0.97503   0.78128   0.00000  Uiso   1.00
C2050  C     0.86101   0.69133   0.78027   0.00000  Uiso   1.00
C2051  C     0.80811   0.97545   0.71793   0.00000  Uiso   1.00
C2052  C     0.68831   0.79374   0.75747   0.00000  Uiso   1.00
Cu2053 Cu    0.83333   0.88022   0.75000   0.00000  Uiso   1.00
Cu2054 Cu    0.83333   0.78645   0.75000   0.00000  Uiso   1.00
H2055  H     0.88407   0.88001   0.61863   0.00000  Uiso   1.00
H2056  H     0.70865   0.73744   0.69330   0.00000  Uiso   1.00
H2057  H     0.71155   0.67821   0.68495   0.00000  Uiso   1.00
H2058  H     0.77595   0.75228   0.68775   0.00000  Uiso   1.00
H2059  H     0.77167   0.70593   0.65363   0.00000  Uiso   1.00
H2060  H     0.84898   0.96640   0.86594   0.00000  Uiso   1.00
H2061  H     0.88625   0.92183   0.88290   0.00000  Uiso   1.00
H2062  H     0.90328   0.97922   0.88263   0.00000  Uiso   1.00
H2063  H     0.89020   0.91301   0.81043   0.00000  Uiso   1.00
H2064  H     0.92230   0.95707   0.81208   0.00000  Uiso   1.00
H2065  H     0.94414   0.69379   0.78432   0.00000  Uiso   1.00
H2066  H     0.84608   0.76054   0.89153   0.00000  Uiso   1.00
H2067  H     0.95513   0.73997   0.82408   0.00000  Uiso   1.00
H2068  H     0.94922   0.68457   0.84455   0.00000  Uiso   1.00
H2069  H     0.88856   0.75316   0.81208   0.00000  Uiso   1.00
H2070  H     0.88126   0.71042   0.84933   0.00000  Uiso   1.00
H2071  H     0.84311   0.94613   0.64728   0.00000  Uiso   1.00
H2072  H     0.79659   0.92947   0.61112   0.00000  Uiso   1.00
H2073  H     0.80839   0.98871   0.62182   0.00000  Uiso   1.00
H2074  H     0.77679   0.91604   0.68486   0.00000  Uiso   1.00
H2075  H     0.75436   0.96504   0.66619   0.00000  Uiso   1.00
H2076  H     0.94989   0.85780   0.52061   0.00000  Uiso   1.00
H2077  H     0.81107   0.90250   0.88615   0.00000  Uiso   1.00
H2078  H     0.93451   0.83663   0.57158   0.00000  Uiso   1.00
H2079  H     0.96189   0.93496   0.54944   0.00000  Uiso   1.00
H2080  H     0.93919   0.92156   0.59914   0.00000  Uiso   1.00
H2081  H     0.99580   0.86563   0.62287   0.00000  Uiso   1.00
H2082  H     0.68286   0.92207   0.61372   0.00000  Uiso   1.00
H2083  H     0.68516   0.87840   0.57228   0.00000  Uiso   1.00
H2084  H     0.90661   0.74835   0.51122   0.00000  Uiso   1.00
H2085  H     0.90422   0.74943   0.95115   0.00000  Uiso   1.00
H2086  H     0.87650   0.67017   0.50901   0.00000  Uiso   1.00
H2087  H     0.86838   0.67191   0.94877   0.00000  Uiso   1.00
H2088  H     0.78193   0.78553   0.60695   0.00000  Uiso   1.00
H2089  H     0.94590   0.68010   0.94836   0.00000  Uiso   1.00
H2090  H     0.93132   0.96129   0.97493   0.00000  Uiso   1.00
H2091  H     0.95282   0.67534   0.50873   0.00000  Uiso   1.00
H2092  H     0.77341   0.90038   0.52129   0.00000  Uiso   1.00
H2093  H     0.75037   0.88084   0.96681   0.00000  Uiso   1.00
H2094  H     0.76675   0.98156   0.99376   0.00000  Uiso   1.00
H2095  H     0.74398   0.96141   0.93963   0.00000  Uiso   1.00
H2096  H     0.68640   0.92327   0.97697   0.00000  Uiso   1.00
H2097  H     0.68862   0.98457   0.98227   0.00000  Uiso   1.00
H2098  H     0.70866   0.94895   0.52926   0.00000  Uiso   1.00
H2099  H     0.70463   0.76239   0.76633   0.00000  Uiso   1.00
H2100  H     0.71463   0.80112   0.99167   0.00000  Uiso   1.00
H2101  H     0.72983   0.82160   0.54681   0.00000  Uiso   1.00
H2102  H     0.70917   0.72193   0.51774   0.00000  Uiso   1.00
H2103  H     0.72985   0.73691   0.57394   0.00000  Uiso   1.00
H2104  H     0.66909   0.78744   0.57921   0.00000  Uiso   1.00
H2105  H     0.98644   0.72950   0.56579   0.00000  Uiso   1.00
H2106  H     0.98144   0.77294   0.52236   0.00000  Uiso   1.00
H2107  H     0.96178   0.90779   0.73807   0.00000  Uiso   1.00
H2108  H     0.96315   0.76089   0.75384   0.00000  Uiso   1.00
H2109  H     0.70330   0.90747   0.73765   0.00000  Uiso   1.00
H2110  H     0.73031   0.70022   0.73920   0.00000  Uiso   1.00
N2111  N     0.83333   0.95069   0.75000   0.00000  Uiso   1.00
N2112  N     0.83333   0.71598   0.75000   0.00000  Uiso   1.00
O2113  O     0.77321   0.87291   0.74999   0.00000  Uiso   1.00
O2114  O     0.84705   0.75095   0.97848   0.00000  Uiso   1.00
O2115  O     0.81019   0.91193   0.97136   0.00000  Uiso   1.00
O2116  O     0.77310   0.78055   0.51759   0.00000  Uiso   1.00
O2117  O     0.89345   0.79375   0.75001   0.00000  Uiso   1.00
O2118  O     0.89345   0.87291   0.75000   0.00000  Uiso   1.00
O2119  O     0.77321   0.79375   0.75000   0.00000  Uiso   1.00
O2120  O     0.83333   0.87293   0.68573   0.00000  Uiso   1.00
O2121  O     0.83334   0.79374   0.81427   0.00000  Uiso   1.00
O2122  O     0.83334   0.87293   0.81427   0.00000  Uiso   1.00
O2123  O     0.83333   0.79374   0.68573   0.00000  Uiso   1.00
O2124  O     0.89285   0.88150   0.53167   0.00000  Uiso   1.00
loop_
_geom_bond_atom_site_label_1
_geom_bond_atom_site_label_2
_geom_bond_distance
_geom_bond_site_symmetry_2
_ccdc_geom_bond_type
C1     O113    1.317   .     A
C1     C19     1.455   .     S
C1     O107    1.304   .     A
C2     C18     1.403   .     A
C2     H101    1.083   .     S
C2     C122    1.390   .     S
C3     C18     1.395   .     A
C3     H102    1.074   .     S
C3     C164    1.379   .     S
C4     H103    1.083   .     S
C4     C19     1.406   .     A
C4     C238    1.390   1_455 S
C5     C16     1.409   .     A
C5     C9      1.400   .     A
C5     O118    1.389   .     S
C6     C17     1.405   .     A
C6     C10     1.398   .     A
C6     O108    1.384   .     S
C7     C11     1.393   .     A
C7     C17     1.410   .     A
C7     O109    1.384   .     S
C8     C13     1.399   .     A
C8     C16     1.408   .     A
C8     O110    1.389   .     S
C9     H49     1.081   .     S
C9     C14     1.394   .     A
C10    C15     1.401   .     A
C10    H60     1.081   .     S
C11    H71     1.081   .     S
C11    C15     1.401   .     A
C12    O112    1.309   .     A
C12    C18     1.455   .     S
C12    O111    1.313   .     A
C13    C14     1.394   .     A
C13    H82     1.082   .     S
C14    C23     1.447   .     S
C15    C34     1.467   .     S
C16    C1079   1.464   1_554 S
C17    C1078   1.464   .     S
C19    C46     1.393   .     A
C20    H53     1.105   .     S
C20    C42     1.531   .     S
C20    H52     1.083   .     S
C20    C21     1.535   .     S
C21    H104    1.109   .     S
C21    H50     1.109   .     S
C21    H51     1.105   .     S
C22    H57     1.074   .     S
C22    C43     1.531   .     S
C22    C24     1.533   .     S
C22    H58     1.100   .     S
C23    O117    1.307   .     A
C23    O114    1.311   .     A
C24    H55     1.110   .     S
C24    H54     1.110   .     S
C24    H56     1.105   .     S
C25    H63     1.074   .     S
C25    C44     1.538   .     S
C25    C26     1.535   .     S
C25    H64     1.104   .     S
C26    H61     1.111   .     S
C26    H59     1.110   .     S
C26    H62     1.107   .     S
C27    H68     1.093   .     S
C27    H69     1.095   .     S
C27    C45     1.525   .     S
C27    C28     1.535   .     S
C28    H66     1.111   .     S
C28    H67     1.108   .     S
C28    H65     1.110   .     S
C29    H72     1.118   .     S
C29    C30     1.533   .     S
C29    H70     1.111   .     S
C29    O118    1.420   .     S
C30    C31     1.526   .     S
C30    H74     1.109   .     S
C30    H73     1.108   .     S
C31    H75     1.111   .     S
C31    H194    1.111   .     S
C31    H195    1.109   .     S
C32    C33     1.528   .     S
C32    H79     1.117   .     S
C32    O108    1.414   .     S
C32    H1140   1.111   .     S
C33    H81     1.111   .     S
C33    C743    1.524   1_545 S
C33    H1142   1.112   .     S
C34    O116    1.315   .     A
C34    O115    1.313   .     A
C35    H84     1.110   .     S
C35    C387    1.524   .     S
C35    H437    1.111   .     S
C35    H1501   1.109   .     S
C36    C37     1.527   .     S
C36    H87     1.119   .     S
C36    O109    1.416   .     S
C36    H1148   1.112   .     S
C37    H88     1.112   .     S
C37    C38     1.526   .     S
C37    H89     1.112   .     S
C38    H91     1.108   .     S
C38    H90     1.111   .     S
C38    H1154   1.110   .     S
C39    O110    1.418   .     S
C39    H95     1.116   .     S
C39    C40     1.530   .     S
C39    H1156   1.111   1_554 S
C40    H96     1.110   .     S
C40    H97     1.110   .     S
C40    C41     1.525   .     S
C41    H98     1.110   .     S
C41    H335    1.110   1_455 S
C41    H336    1.110   1_455 S
C42    N106    1.388   .     A
C42    C753    1.442   1_545 S
C43    N105    1.388   .     A
C43    C398    1.450   .     S
C44    N106    1.394   .     A
C44    C751    1.450   1_545 S
C45    N105    1.385   .     A
C45    C396    1.442   .     S
C46    H93     1.076   .     S
C46    C239    1.379   1_455 S
Cu47   O114    1.951   .     S
Cu47   O112    1.968   .     S
Cu47   Cu48    2.739   .     S
Cu47   O116    1.947   .     S
Cu47   O107    1.965   .     S
Cu47   N105    2.058   .     S
Cu48   N106    2.058   .     S
Cu48   O115    1.951   .     S
Cu48   O117    1.947   .     S
Cu48   O111    1.965   .     S
Cu48   O113    1.968   .     S
H76    C267    1.111   1_455 S
H77    C267    1.109   1_455 S
H78    C1094   1.111   1_554 S
H80    C1095   1.112   1_554 S
H83    C743    1.111   1_545 S
H85    C1805   1.109   1_544 S
H86    C1098   1.112   1_554 S
H92    C1100   1.110   1_554 S
H94    C1101   1.111   .     S
H99    C159    1.110   .     S
H100   C159    1.110   .     S
C119   O231    1.317   .     A
C119   C137    1.455   .     S
C119   O225    1.304   .     A
C120   C136    1.403   .     A
C120   H219    1.083   .     S
C120   C240    1.390   .     S
C121   C136    1.395   .     A
C121   H220    1.074   .     S
C121   C282    1.379   .     S
C122   H221    1.083   .     S
C122   C137    1.406   .     A
C123   C134    1.409   .     A
C123   C127    1.400   .     A
C123   O236    1.389   .     S
C124   C135    1.405   .     A
C124   C128    1.398   .     A
C124   O226    1.384   .     S
C125   C129    1.393   .     A
C125   C135    1.410   .     A
C125   O227    1.384   .     S
C126   C131    1.399   .     A
C126   C134    1.408   .     A
C126   O228    1.389   .     S
C127   H167    1.081   .     S
C127   C132    1.394   .     A
C128   C133    1.401   .     A
C128   H178    1.081   .     S
C129   H189    1.081   .     S
C129   C133    1.401   .     A
C130   O230    1.309   .     A
C130   C136    1.455   .     S
C130   O229    1.313   .     A
C131   C132    1.394   .     A
C131   H200    1.082   .     S
C132   C141    1.447   .     S
C133   C152    1.467   .     S
C134   C1197   1.464   1_554 S
C135   C1196   1.464   .     S
C137   C164    1.393   .     A
C138   H171    1.105   .     S
C138   C160    1.531   .     S
C138   H170    1.083   .     S
C138   C139    1.535   .     S
C139   H222    1.109   .     S
C139   H168    1.109   .     S
C139   H169    1.105   .     S
C140   H175    1.074   .     S
C140   C161    1.531   .     S
C140   C142    1.533   .     S
C140   H176    1.100   .     S
C141   O235    1.307   .     A
C141   O232    1.311   .     A
C142   H173    1.110   .     S
C142   H172    1.110   .     S
C142   H174    1.105   .     S
C143   H181    1.074   .     S
C143   C162    1.538   .     S
C143   C144    1.535   .     S
C143   H182    1.104   .     S
C144   H179    1.111   .     S
C144   H177    1.110   .     S
C144   H180    1.107   .     S
C145   H186    1.093   .     S
C145   H187    1.095   .     S
C145   C163    1.525   .     S
C145   C146    1.535   .     S
C146   H184    1.111   .     S
C146   H185    1.108   .     S
C146   H183    1.110   .     S
C147   H190    1.118   .     S
C147   C148    1.533   .     S
C147   H188    1.111   .     S
C147   O236    1.420   .     S
C148   C149    1.526   .     S
C148   H192    1.109   .     S
C148   H191    1.108   .     S
C149   H193    1.111   .     S
C149   H312    1.111   .     S
C149   H313    1.109   .     S
C150   C151    1.528   .     S
C150   H197    1.117   .     S
C150   O226    1.414   .     S
C150   H1258   1.111   .     S
C151   H199    1.111   .     S
C151   C861    1.524   1_545 S
C151   H1260   1.112   .     S
C152   O234    1.315   .     A
C152   O233    1.313   .     A
C153   H202    1.110   .     S
C153   C505    1.524   .     S
C153   H555    1.111   .     S
C153   H1619   1.109   .     S
C154   C155    1.527   .     S
C154   H205    1.119   .     S
C154   O227    1.416   .     S
C154   H1266   1.112   .     S
C155   H206    1.112   .     S
C155   C156    1.526   .     S
C155   H207    1.112   .     S
C156   H209    1.108   .     S
C156   H208    1.111   .     S
C156   H1272   1.110   .     S
C157   O228    1.418   .     S
C157   H213    1.116   .     S
C157   C158    1.530   .     S
C157   H1274   1.111   1_554 S
C158   H214    1.110   .     S
C158   H215    1.110   .     S
C158   C159    1.525   .     S
C159   H216    1.110   .     S
C160   N224    1.388   .     A
C160   C871    1.442   1_545 S
C161   N223    1.388   .     A
C161   C516    1.450   .     S
C162   N224    1.394   .     A
C162   C869    1.450   1_545 S
C163   N223    1.385   .     A
C163   C514    1.442   .     S
C164   H211    1.076   .     S
Cu165  O232    1.951   .     S
Cu165  O230    1.968   .     S
Cu165  Cu166   2.739   .     S
Cu165  O234    1.947   .     S
Cu165  O225    1.965   .     S
Cu165  N223    2.058   .     S
Cu166  N224    2.058   .     S
Cu166  O233    1.951   .     S
Cu166  O235    1.947   .     S
Cu166  O229    1.965   .     S
Cu166  O231    1.968   .     S
H196   C1212   1.111   1_554 S
H198   C1213   1.112   1_554 S
H201   C861    1.111   1_545 S
H203   C1923   1.109   1_544 S
H204   C1216   1.112   1_554 S
H210   C1218   1.110   1_554 S
H212   C1219   1.111   .     S
H217   C277    1.110   .     S
H218   C277    1.110   .     S
C237   O349    1.317   .     A
C237   C255    1.455   .     S
C237   O343    1.304   .     A
C238   C254    1.403   .     A
C238   H337    1.083   .     S
C238   C4      1.390   1_655 S
C239   C254    1.395   .     A
C239   H338    1.074   .     S
C239   C46     1.379   1_655 S
C240   H339    1.083   .     S
C240   C255    1.406   .     A
C241   C252    1.409   .     A
C241   C245    1.400   .     A
C241   O354    1.389   .     S
C242   C253    1.405   .     A
C242   C246    1.398   .     A
C242   O344    1.384   .     S
C243   C247    1.393   .     A
C243   C253    1.410   .     A
C243   O345    1.384   .     S
C244   C249    1.399   .     A
C244   C252    1.408   .     A
C244   O346    1.389   .     S
C245   H285    1.081   .     S
C245   C250    1.394   .     A
C246   C251    1.401   .     A
C246   H296    1.081   .     S
C247   H307    1.081   .     S
C247   C251    1.401   .     A
C248   O348    1.309   .     A
C248   C254    1.455   .     S
C248   O347    1.313   .     A
C249   C250    1.394   .     A
C249   H318    1.082   .     S
C250   C259    1.447   .     S
C251   C270    1.467   .     S
C252   C1315   1.464   1_554 S
C253   C1314   1.464   .     S
C255   C282    1.393   .     A
C256   H289    1.105   .     S
C256   C278    1.531   .     S
C256   H288    1.083   .     S
C256   C257    1.535   .     S
C257   H340    1.109   .     S
C257   H286    1.109   .     S
C257   H287    1.105   .     S
C258   H293    1.074   .     S
C258   C279    1.531   .     S
C258   C260    1.533   .     S
C258   H294    1.100   .     S
C259   O353    1.307   .     A
C259   O350    1.311   .     A
C260   H291    1.110   .     S
C260   H290    1.110   .     S
C260   H292    1.105   .     S
C261   H299    1.074   .     S
C261   C280    1.538   .     S
C261   C262    1.535   .     S
C261   H300    1.104   .     S
C262   H297    1.111   .     S
C262   H295    1.110   .     S
C262   H298    1.107   .     S
C263   H304    1.093   .     S
C263   H305    1.095   .     S
C263   C281    1.525   .     S
C263   C264    1.535   .     S
C264   H302    1.111   .     S
C264   H303    1.108   .     S
C264   H301    1.110   .     S
C265   H308    1.118   .     S
C265   C266    1.533   .     S
C265   H306    1.111   .     S
C265   O354    1.420   .     S
C266   C267    1.526   .     S
C266   H310    1.109   .     S
C266   H309    1.108   .     S
C267   H311    1.111   .     S
C267   H76     1.111   1_655 S
C267   H77     1.109   1_655 S
C268   C269    1.528   .     S
C268   H315    1.117   .     S
C268   O344    1.414   .     S
C268   H1376   1.111   .     S
C269   H317    1.111   .     S
C269   C979    1.524   1_545 S
C269   H1378   1.112   .     S
C270   O352    1.315   .     A
C270   O351    1.313   .     A
C271   H320    1.110   .     S
C271   C623    1.524   .     S
C271   H673    1.111   .     S
C271   H1737   1.109   .     S
C272   C273    1.527   .     S
C272   H323    1.119   .     S
C272   O345    1.416   .     S
C272   H1384   1.112   .     S
C273   H324    1.112   .     S
C273   C274    1.526   .     S
C273   H325    1.112   .     S
C274   H327    1.108   .     S
C274   H326    1.111   .     S
C274   H1390   1.110   .     S
C275   O346    1.418   .     S
C275   H331    1.116   .     S
C275   C276    1.530   .     S
C275   H1392   1.111   1_554 S
C276   H332    1.110   .     S
C276   H333    1.110   .     S
C276   C277    1.525   .     S
C277   H334    1.110   .     S
C278   N342    1.388   .     A
C278   C989    1.442   1_545 S
C279   N341    1.388   .     A
C279   C634    1.450   .     S
C280   N342    1.394   .     A
C280   C987    1.450   1_545 S
C281   N341    1.385   .     A
C281   C632    1.442   .     S
C282   H329    1.076   .     S
Cu283  O350    1.951   .     S
Cu283  O348    1.968   .     S
Cu283  Cu284   2.739   .     S
Cu283  O352    1.947   .     S
Cu283  O343    1.965   .     S
Cu283  N341    2.058   .     S
Cu284  N342    2.058   .     S
Cu284  O351    1.951   .     S
Cu284  O353    1.947   .     S
Cu284  O347    1.965   .     S
Cu284  O349    1.968   .     S
H314   C1330   1.111   1_554 S
H316   C1331   1.112   1_554 S
H319   C979    1.111   1_545 S
H321   C2041   1.109   1_544 S
H322   C1334   1.112   1_554 S
H328   C1336   1.110   1_554 S
H330   C1337   1.111   .     S
H335   C41     1.110   1_655 S
H336   C41     1.110   1_655 S
C355   O467    1.317   .     A
C355   C373    1.455   .     S
C355   O461    1.304   .     A
C356   C372    1.403   .     A
C356   H455    1.083   .     S
C356   C476    1.390   .     S
C357   C372    1.395   .     A
C357   H456    1.074   .     S
C357   C518    1.379   .     S
C358   H457    1.083   .     S
C358   C373    1.406   .     A
C358   C592    1.390   1_455 S
C359   C370    1.409   .     A
C359   C363    1.400   .     A
C359   O472    1.389   .     S
C360   C371    1.405   .     A
C360   C364    1.398   .     A
C360   O462    1.384   .     S
C361   C365    1.393   .     A
C361   C371    1.410   .     A
C361   O463    1.384   .     S
C362   C367    1.399   .     A
C362   C370    1.408   .     A
C362   O464    1.389   .     S
C363   H403    1.081   .     S
C363   C368    1.394   .     A
C364   C369    1.401   .     A
C364   H414    1.081   .     S
C365   H425    1.081   .     S
C365   C369    1.401   .     A
C366   O466    1.309   .     A
C366   C372    1.455   .     S
C366   O465    1.313   .     A
C367   C368    1.394   .     A
C367   H436    1.082   .     S
C368   C377    1.447   .     S
C369   C388    1.467   .     S
C370   C1433   1.464   1_554 S
C371   C1432   1.464   .     S
C373   C400    1.393   .     A
C374   H407    1.105   .     S
C374   C396    1.531   .     S
C374   H406    1.083   .     S
C374   C375    1.535   .     S
C375   H458    1.109   .     S
C375   H404    1.109   .     S
C375   H405    1.105   .     S
C376   H411    1.074   .     S
C376   C397    1.531   .     S
C376   C378    1.533   .     S
C376   H412    1.100   .     S
C377   O471    1.307   .     A
C377   O468    1.311   .     A
C378   H409    1.110   .     S
C378   H408    1.110   .     S
C378   H410    1.105   .     S
C379   H417    1.074   .     S
C379   C398    1.538   .     S
C379   C380    1.535   .     S
C379   H418    1.104   .     S
C380   H415    1.111   .     S
C380   H413    1.110   .     S
C380   H416    1.107   .     S
C381   H422    1.093   .     S
C381   H423    1.095   .     S
C381   C399    1.525   .     S
C381   C382    1.535   .     S
C382   H420    1.111   .     S
C382   H421    1.108   .     S
C382   H419    1.110   .     S
C383   H426    1.118   .     S
C383   C384    1.533   .     S
C383   H424    1.111   .     S
C383   O472    1.420   .     S
C384   C385    1.526   .     S
C384   H428    1.109   .     S
C384   H427    1.108   .     S
C385   H429    1.111   .     S
C385   H548    1.111   .     S
C385   H549    1.109   .     S
C386   C387    1.528   .     S
C386   H433    1.117   .     S
C386   O462    1.414   .     S
C386   H1494   1.111   .     S
C387   H435    1.111   .     S
C387   H1496   1.112   .     S
C388   O470    1.315   .     A
C388   O469    1.313   .     A
C389   H438    1.110   .     S
C389   C741    1.524   .     S
C389   H791    1.111   .     S
C389   H1855   1.109   .     S
C390   C391    1.527   .     S
C390   H441    1.119   .     S
C390   O463    1.416   .     S
C390   H1502   1.112   .     S
C391   H442    1.112   .     S
C391   C392    1.526   .     S
C391   H443    1.112   .     S
C392   H445    1.108   .     S
C392   H444    1.111   .     S
C392   H1508   1.110   .     S
C393   O464    1.418   .     S
C393   H449    1.116   .     S
C393   C394    1.530   .     S
C393   H1510   1.111   1_554 S
C394   H450    1.110   .     S
C394   H451    1.110   .     S
C394   C395    1.525   .     S
C395   H452    1.110   .     S
C395   H689    1.110   1_455 S
C395   H690    1.110   1_455 S
C396   N460    1.388   .     A
C397   N459    1.388   .     A
C397   C752    1.450   .     S
C398   N460    1.394   .     A
C399   N459    1.385   .     A
C399   C750    1.442   .     S
C400   H447    1.076   .     S
C400   C593    1.379   1_455 S
Cu401  O468    1.951   .     S
Cu401  O466    1.968   .     S
Cu401  Cu402   2.739   .     S
Cu401  O470    1.947   .     S
Cu401  O461    1.965   .     S
Cu401  N459    2.058   .     S
Cu402  N460    2.058   .     S
Cu402  O469    1.951   .     S
Cu402  O471    1.947   .     S
Cu402  O465    1.965   .     S
Cu402  O467    1.968   .     S
H430   C621    1.111   1_455 S
H431   C621    1.109   1_455 S
H432   C1448   1.111   1_554 S
H434   C1449   1.112   1_554 S
H439   C1097   1.109   1_554 S
H440   C1452   1.112   1_554 S
H446   C1454   1.110   1_554 S
H448   C1455   1.111   .     S
H453   C513    1.110   .     S
H454   C513    1.110   .     S
C473   O585    1.317   .     A
C473   C491    1.455   .     S
C473   O579    1.304   .     A
C474   C490    1.403   .     A
C474   H573    1.083   .     S
C474   C594    1.390   .     S
C475   C490    1.395   .     A
C475   H574    1.074   .     S
C475   C636    1.379   .     S
C476   H575    1.083   .     S
C476   C491    1.406   .     A
C477   C488    1.409   .     A
C477   C481    1.400   .     A
C477   O590    1.389   .     S
C478   C489    1.405   .     A
C478   C482    1.398   .     A
C478   O580    1.384   .     S
C479   C483    1.393   .     A
C479   C489    1.410   .     A
C479   O581    1.384   .     S
C480   C485    1.399   .     A
C480   C488    1.408   .     A
C480   O582    1.389   .     S
C481   H521    1.081   .     S
C481   C486    1.394   .     A
C482   C487    1.401   .     A
C482   H532    1.081   .     S
C483   H543    1.081   .     S
C483   C487    1.401   .     A
C484   O584    1.309   .     A
C484   C490    1.455   .     S
C484   O583    1.313   .     A
C485   C486    1.394   .     A
C485   H554    1.082   .     S
C486   C495    1.447   .     S
C487   C506    1.467   .     S
C488   C1551   1.464   1_554 S
C489   C1550   1.464   .     S
C491   C518    1.393   .     A
C492   H525    1.105   .     S
C492   C514    1.531   .     S
C492   H524    1.083   .     S
C492   C493    1.535   .     S
C493   H576    1.109   .     S
C493   H522    1.109   .     S
C493   H523    1.105   .     S
C494   H529    1.074   .     S
C494   C515    1.531   .     S
C494   C496    1.533   .     S
C494   H530    1.100   .     S
C495   O589    1.307   .     A
C495   O586    1.311   .     A
C496   H527    1.110   .     S
C496   H526    1.110   .     S
C496   H528    1.105   .     S
C497   H535    1.074   .     S
C497   C516    1.538   .     S
C497   C498    1.535   .     S
C497   H536    1.104   .     S
C498   H533    1.111   .     S
C498   H531    1.110   .     S
C498   H534    1.107   .     S
C499   H540    1.093   .     S
C499   H541    1.095   .     S
C499   C517    1.525   .     S
C499   C500    1.535   .     S
C500   H538    1.111   .     S
C500   H539    1.108   .     S
C500   H537    1.110   .     S
C501   H544    1.118   .     S
C501   C502    1.533   .     S
C501   H542    1.111   .     S
C501   O590    1.420   .     S
C502   C503    1.526   .     S
C502   H546    1.109   .     S
C502   H545    1.108   .     S
C503   H547    1.111   .     S
C503   H666    1.111   .     S
C503   H667    1.109   .     S
C504   C505    1.528   .     S
C504   H551    1.117   .     S
C504   O580    1.414   .     S
C504   H1612   1.111   .     S
C505   H553    1.111   .     S
C505   H1614   1.112   .     S
C506   O588    1.315   .     A
C506   O587    1.313   .     A
C507   H556    1.110   .     S
C507   C859    1.524   .     S
C507   H909    1.111   .     S
C507   H1973   1.109   .     S
C508   C509    1.527   .     S
C508   H559    1.119   .     S
C508   O581    1.416   .     S
C508   H1620   1.112   .     S
C509   H560    1.112   .     S
C509   C510    1.526   .     S
C509   H561    1.112   .     S
C510   H563    1.108   .     S
C510   H562    1.111   .     S
C510   H1626   1.110   .     S
C511   O582    1.418   .     S
C511   H567    1.116   .     S
C511   C512    1.530   .     S
C511   H1628   1.111   1_554 S
C512   H568    1.110   .     S
C512   H569    1.110   .     S
C512   C513    1.525   .     S
C513   H570    1.110   .     S
C514   N578    1.388   .     A
C515   N577    1.388   .     A
C515   C870    1.450   .     S
C516   N578    1.394   .     A
C517   N577    1.385   .     A
C517   C868    1.442   .     S
C518   H565    1.076   .     S
Cu519  O586    1.951   .     S
Cu519  O584    1.968   .     S
Cu519  Cu520   2.739   .     S
Cu519  O588    1.947   .     S
Cu519  O579    1.965   .     S
Cu519  N577    2.058   .     S
Cu520  N578    2.058   .     S
Cu520  O587    1.951   .     S
Cu520  O589    1.947   .     S
Cu520  O583    1.965   .     S
Cu520  O585    1.968   .     S
H550   C1566   1.111   1_554 S
H552   C1567   1.112   1_554 S
H557   C1215   1.109   1_554 S
H558   C1570   1.112   1_554 S
H564   C1572   1.110   1_554 S
H566   C1573   1.111   .     S
H571   C631    1.110   .     S
H572   C631    1.110   .     S
C591   O703    1.317   .     A
C591   C609    1.455   .     S
C591   O697    1.304   .     A
C592   C608    1.403   .     A
C592   H691    1.083   .     S
C592   C358    1.390   1_655 S
C593   C608    1.395   .     A
C593   H692    1.074   .     S
C593   C400    1.379   1_655 S
C594   H693    1.083   .     S
C594   C609    1.406   .     A
C595   C606    1.409   .     A
C595   C599    1.400   .     A
C595   O708    1.389   .     S
C596   C607    1.405   .     A
C596   C600    1.398   .     A
C596   O698    1.384   .     S
C597   C601    1.393   .     A
C597   C607    1.410   .     A
C597   O699    1.384   .     S
C598   C603    1.399   .     A
C598   C606    1.408   .     A
C598   O700    1.389   .     S
C599   H639    1.081   .     S
C599   C604    1.394   .     A
C600   C605    1.401   .     A
C600   H650    1.081   .     S
C601   H661    1.081   .     S
C601   C605    1.401   .     A
C602   O702    1.309   .     A
C602   C608    1.455   .     S
C602   O701    1.313   .     A
C603   C604    1.394   .     A
C603   H672    1.082   .     S
C604   C613    1.447   .     S
C605   C624    1.467   .     S
C606   C1669   1.464   1_554 S
C607   C1668   1.464   .     S
C609   C636    1.393   .     A
C610   H643    1.105   .     S
C610   C632    1.531   .     S
C610   H642    1.083   .     S
C610   C611    1.535   .     S
C611   H694    1.109   .     S
C611   H640    1.109   .     S
C611   H641    1.105   .     S
C612   H647    1.074   .     S
C612   C633    1.531   .     S
C612   C614    1.533   .     S
C612   H648    1.100   .     S
C613   O707    1.307   .     A
C613   O704    1.311   .     A
C614   H645    1.110   .     S
C614   H644    1.110   .     S
C614   H646    1.105   .     S
C615   H653    1.074   .     S
C615   C634    1.538   .     S
C615   C616    1.535   .     S
C615   H654    1.104   .     S
C616   H651    1.111   .     S
C616   H649    1.110   .     S
C616   H652    1.107   .     S
C617   H658    1.093   .     S
C617   H659    1.095   .     S
C617   C635    1.525   .     S
C617   C618    1.535   .     S
C618   H656    1.111   .     S
C618   H657    1.108   .     S
C618   H655    1.110   .     S
C619   H662    1.118   .     S
C619   C620    1.533   .     S
C619   H660    1.111   .     S
C619   O708    1.420   .     S
C620   C621    1.526   .     S
C620   H664    1.109   .     S
C620   H663    1.108   .     S
C621   H665    1.111   .     S
C621   H430    1.111   1_655 S
C621   H431    1.109   1_655 S
C622   C623    1.528   .     S
C622   H669    1.117   .     S
C622   O698    1.414   .     S
C622   H1730   1.111   .     S
C623   H671    1.111   .     S
C623   H1732   1.112   .     S
C624   O706    1.315   .     A
C624   O705    1.313   .     A
C625   H674    1.110   .     S
C625   C977    1.524   .     S
C625   H1027   1.111   .     S
C625   H2091   1.109   .     S
C626   C627    1.527   .     S
C626   H677    1.119   .     S
C626   O699    1.416   .     S
C626   H1738   1.112   .     S
C627   H678    1.112   .     S
C627   C628    1.526   .     S
C627   H679    1.112   .     S
C628   H681    1.108   .     S
C628   H680    1.111   .     S
C628   H1744   1.110   .     S
C629   O700    1.418   .     S
C629   H685    1.116   .     S
C629   C630    1.530   .     S
C629   H1746   1.111   1_554 S
C630   H686    1.110   .     S
C630   H687    1.110   .     S
C630   C631    1.525   .     S
C631   H688    1.110   .     S
C632   N696    1.388   .     A
C633   N695    1.388   .     A
C633   C988    1.450   .     S
C634   N696    1.394   .     A
C635   N695    1.385   .     A
C635   C986    1.442   .     S
C636   H683    1.076   .     S
Cu637  O704    1.951   .     S
Cu637  O702    1.968   .     S
Cu637  Cu638   2.739   .     S
Cu637  O706    1.947   .     S
Cu637  O697    1.965   .     S
Cu637  N695    2.058   .     S
Cu638  N696    2.058   .     S
Cu638  O705    1.951   .     S
Cu638  O707    1.947   .     S
Cu638  O701    1.965   .     S
Cu638  O703    1.968   .     S
H668   C1684   1.111   1_554 S
H670   C1685   1.112   1_554 S
H675   C1333   1.109   1_554 S
H676   C1688   1.112   1_554 S
H682   C1690   1.110   1_554 S
H684   C1691   1.111   .     S
H689   C395    1.110   1_655 S
H690   C395    1.110   1_655 S
C709   O821    1.317   .     A
C709   C727    1.455   .     S
C709   O815    1.304   .     A
C710   C726    1.403   .     A
C710   H809    1.083   .     S
C710   C830    1.390   .     S
C711   C726    1.395   .     A
C711   H810    1.074   .     S
C711   C872    1.379   .     S
C712   H811    1.083   .     S
C712   C727    1.406   .     A
C712   C946    1.390   1_455 S
C713   C724    1.409   .     A
C713   C717    1.400   .     A
C713   O826    1.389   .     S
C714   C725    1.405   .     A
C714   C718    1.398   .     A
C714   O816    1.384   .     S
C715   C719    1.393   .     A
C715   C725    1.410   .     A
C715   O817    1.384   .     S
C716   C721    1.399   .     A
C716   C724    1.408   .     A
C716   O818    1.389   .     S
C717   H757    1.081   .     S
C717   C722    1.394   .     A
C718   C723    1.401   .     A
C718   H768    1.081   .     S
C719   H779    1.081   .     S
C719   C723    1.401   .     A
C720   O820    1.309   .     A
C720   C726    1.455   .     S
C720   O819    1.313   .     A
C721   C722    1.394   .     A
C721   H790    1.082   .     S
C722   C731    1.447   .     S
C723   C742    1.467   .     S
C724   C1787   1.464   1_554 S
C725   C1786   1.464   .     S
C727   C754    1.393   .     A
C728   H761    1.105   .     S
C728   C750    1.531   .     S
C728   H760    1.083   .     S
C728   C729    1.535   .     S
C729   H812    1.109   .     S
C729   H758    1.109   .     S
C729   H759    1.105   .     S
C730   H765    1.074   .     S
C730   C751    1.531   .     S
C730   C732    1.533   .     S
C730   H766    1.100   .     S
C731   O825    1.307   .     A
C731   O822    1.311   .     A
C732   H763    1.110   .     S
C732   H762    1.110   .     S
C732   H764    1.105   .     S
C733   H771    1.074   .     S
C733   C752    1.538   .     S
C733   C734    1.535   .     S
C733   H772    1.104   .     S
C734   H769    1.111   .     S
C734   H767    1.110   .     S
C734   H770    1.107   .     S
C735   H776    1.093   .     S
C735   H777    1.095   .     S
C735   C753    1.525   .     S
C735   C736    1.535   .     S
C736   H774    1.111   .     S
C736   H775    1.108   .     S
C736   H773    1.110   .     S
C737   H780    1.118   .     S
C737   C738    1.533   .     S
C737   H778    1.111   .     S
C737   O826    1.420   .     S
C738   C739    1.526   .     S
C738   H782    1.109   .     S
C738   H781    1.108   .     S
C739   H783    1.111   .     S
C739   H902    1.111   .     S
C739   H903    1.109   .     S
C740   C741    1.528   .     S
C740   H787    1.117   .     S
C740   O816    1.414   .     S
C740   H1848   1.111   .     S
C741   H789    1.111   .     S
C741   H1850   1.112   .     S
C742   O824    1.315   .     A
C742   O823    1.313   .     A
C743   H792    1.110   .     S
C743   C33     1.524   1_565 S
C743   H83     1.111   1_565 S
C743   H1147   1.109   1_565 S
C744   C745    1.527   .     S
C744   H795    1.119   .     S
C744   O817    1.416   .     S
C744   H1856   1.112   .     S
C745   H796    1.112   .     S
C745   C746    1.526   .     S
C745   H797    1.112   .     S
C746   H799    1.108   .     S
C746   H798    1.111   .     S
C746   H1862   1.110   .     S
C747   O818    1.418   .     S
C747   H803    1.116   .     S
C747   C748    1.530   .     S
C747   H1864   1.111   1_554 S
C748   H804    1.110   .     S
C748   H805    1.110   .     S
C748   C749    1.525   .     S
C749   H806    1.110   .     S
C749   H1043   1.110   1_455 S
C749   H1044   1.110   1_455 S
C750   N814    1.388   .     A
C751   N813    1.388   .     A
C751   C44     1.450   1_565 S
C752   N814    1.394   .     A
C753   N813    1.385   .     A
C753   C42     1.442   1_565 S
C754   H801    1.076   .     S
C754   C947    1.379   1_455 S
Cu755  O822    1.951   .     S
Cu755  O820    1.968   .     S
Cu755  Cu756   2.739   .     S
Cu755  O824    1.947   .     S
Cu755  O815    1.965   .     S
Cu755  N813    2.058   .     S
Cu756  N814    2.058   .     S
Cu756  O823    1.951   .     S
Cu756  O825    1.947   .     S
Cu756  O819    1.965   .     S
Cu756  O821    1.968   .     S
H784   C975    1.111   1_455 S
H785   C975    1.109   1_455 S
H786   C1802   1.111   1_554 S
H788   C1803   1.112   1_554 S
H793   C1451   1.109   1_554 S
H794   C1806   1.112   1_554 S
H800   C1808   1.110   1_554 S
H802   C1809   1.111   .     S
H807   C867    1.110   .     S
H808   C867    1.110   .     S
C827   O939    1.317   .     A
C827   C845    1.455   .     S
C827   O933    1.304   .     A
C828   C844    1.403   .     A
C828   H927    1.083   .     S
C828   C948    1.390   .     S
C829   C844    1.395   .     A
C829   H928    1.074   .     S
C829   C990    1.379   .     S
C830   H929    1.083   .     S
C830   C845    1.406   .     A
C831   C842    1.409   .     A
C831   C835    1.400   .     A
C831   O944    1.389   .     S
C832   C843    1.405   .     A
C832   C836    1.398   .     A
C832   O934    1.384   .     S
C833   C837    1.393   .     A
C833   C843    1.410   .     A
C833   O935    1.384   .     S
C834   C839    1.399   .     A
C834   C842    1.408   .     A
C834   O936    1.389   .     S
C835   H875    1.081   .     S
C835   C840    1.394   .     A
C836   C841    1.401   .     A
C836   H886    1.081   .     S
C837   H897    1.081   .     S
C837   C841    1.401   .     A
C838   O938    1.309   .     A
C838   C844    1.455   .     S
C838   O937    1.313   .     A
C839   C840    1.394   .     A
C839   H908    1.082   .     S
C840   C849    1.447   .     S
C841   C860    1.467   .     S
C842   C1905   1.464   1_554 S
C843   C1904   1.464   .     S
C845   C872    1.393   .     A
C846   H879    1.105   .     S
C846   C868    1.531   .     S
C846   H878    1.083   .     S
C846   C847    1.535   .     S
C847   H930    1.109   .     S
C847   H876    1.109   .     S
C847   H877    1.105   .     S
C848   H883    1.074   .     S
C848   C869    1.531   .     S
C848   C850    1.533   .     S
C848   H884    1.100   .     S
C849   O943    1.307   .     A
C849   O940    1.311   .     A
C850   H881    1.110   .     S
C850   H880    1.110   .     S
C850   H882    1.105   .     S
C851   H889    1.074   .     S
C851   C870    1.538   .     S
C851   C852    1.535   .     S
C851   H890    1.104   .     S
C852   H887    1.111   .     S
C852   H885    1.110   .     S
C852   H888    1.107   .     S
C853   H894    1.093   .     S
C853   H895    1.095   .     S
C853   C871    1.525   .     S
C853   C854    1.535   .     S
C854   H892    1.111   .     S
C854   H893    1.108   .     S
C854   H891    1.110   .     S
C855   H898    1.118   .     S
C855   C856    1.533   .     S
C855   H896    1.111   .     S
C855   O944    1.420   .     S
C856   C857    1.526   .     S
C856   H900    1.109   .     S
C856   H899    1.108   .     S
C857   H901    1.111   .     S
C857   H1020   1.111   .     S
C857   H1021   1.109   .     S
C858   C859    1.528   .     S
C858   H905    1.117   .     S
C858   O934    1.414   .     S
C858   H1966   1.111   .     S
C859   H907    1.111   .     S
C859   H1968   1.112   .     S
C860   O942    1.315   .     A
C860   O941    1.313   .     A
C861   H910    1.110   .     S
C861   C151    1.524   1_565 S
C861   H201    1.111   1_565 S
C861   H1265   1.109   1_565 S
C862   C863    1.527   .     S
C862   H913    1.119   .     S
C862   O935    1.416   .     S
C862   H1974   1.112   .     S
C863   H914    1.112   .     S
C863   C864    1.526   .     S
C863   H915    1.112   .     S
C864   H917    1.108   .     S
C864   H916    1.111   .     S
C864   H1980   1.110   .     S
C865   O936    1.418   .     S
C865   H921    1.116   .     S
C865   C866    1.530   .     S
C865   H1982   1.111   1_554 S
C866   H922    1.110   .     S
C866   H923    1.110   .     S
C866   C867    1.525   .     S
C867   H924    1.110   .     S
C868   N932    1.388   .     A
C869   N931    1.388   .     A
C869   C162    1.450   1_565 S
C870   N932    1.394   .     A
C871   N931    1.385   .     A
C871   C160    1.442   1_565 S
C872   H919    1.076   .     S
Cu873  O940    1.951   .     S
Cu873  O938    1.968   .     S
Cu873  Cu874   2.739   .     S
Cu873  O942    1.947   .     S
Cu873  O933    1.965   .     S
Cu873  N931    2.058   .     S
Cu874  N932    2.058   .     S
Cu874  O941    1.951   .     S
Cu874  O943    1.947   .     S
Cu874  O937    1.965   .     S
Cu874  O939    1.968   .     S
H904   C1920   1.111   1_554 S
H906   C1921   1.112   1_554 S
H911   C1569   1.109   1_554 S
H912   C1924   1.112   1_554 S
H918   C1926   1.110   1_554 S
H920   C1927   1.111   .     S
H925   C985    1.110   .     S
H926   C985    1.110   .     S
C945   O1057   1.317   .     A
C945   C963    1.455   .     S
C945   O1051   1.304   .     A
C946   C962    1.403   .     A
C946   H1045   1.083   .     S
C946   C712    1.390   1_655 S
C947   C962    1.395   .     A
C947   H1046   1.074   .     S
C947   C754    1.379   1_655 S
C948   H1047   1.083   .     S
C948   C963    1.406   .     A
C949   C960    1.409   .     A
C949   C953    1.400   .     A
C949   O1062   1.389   .     S
C950   C961    1.405   .     A
C950   C954    1.398   .     A
C950   O1052   1.384   .     S
C951   C955    1.393   .     A
C951   C961    1.410   .     A
C951   O1053   1.384   .     S
C952   C957    1.399   .     A
C952   C960    1.408   .     A
C952   O1054   1.389   .     S
C953   H993    1.081   .     S
C953   C958    1.394   .     A
C954   C959    1.401   .     A
C954   H1004   1.081   .     S
C955   H1015   1.081   .     S
C955   C959    1.401   .     A
C956   O1056   1.309   .     A
C956   C962    1.455   .     S
C956   O1055   1.313   .     A
C957   C958    1.394   .     A
C957   H1026   1.082   .     S
C958   C967    1.447   .     S
C959   C978    1.467   .     S
C960   C2023   1.464   1_554 S
C961   C2022   1.464   .     S
C963   C990    1.393   .     A
C964   H997    1.105   .     S
C964   C986    1.531   .     S
C964   H996    1.083   .     S
C964   C965    1.535   .     S
C965   H1048   1.109   .     S
C965   H994    1.109   .     S
C965   H995    1.105   .     S
C966   H1001   1.074   .     S
C966   C987    1.531   .     S
C966   C968    1.533   .     S
C966   H1002   1.100   .     S
C967   O1061   1.307   .     A
C967   O1058   1.311   .     A
C968   H999    1.110   .     S
C968   H998    1.110   .     S
C968   H1000   1.105   .     S
C969   H1007   1.074   .     S
C969   C988    1.538   .     S
C969   C970    1.535   .     S
C969   H1008   1.104   .     S
C970   H1005   1.111   .     S
C970   H1003   1.110   .     S
C970   H1006   1.107   .     S
C971   H1012   1.093   .     S
C971   H1013   1.095   .     S
C971   C989    1.525   .     S
C971   C972    1.535   .     S
C972   H1010   1.111   .     S
C972   H1011   1.108   .     S
C972   H1009   1.110   .     S
C973   H1016   1.118   .     S
C973   C974    1.533   .     S
C973   H1014   1.111   .     S
C973   O1062   1.420   .     S
C974   C975    1.526   .     S
C974   H1018   1.109   .     S
C974   H1017   1.108   .     S
C975   H1019   1.111   .     S
C975   H784    1.111   1_655 S
C975   H785    1.109   1_655 S
C976   C977    1.528   .     S
C976   H1023   1.117   .     S
C976   O1052   1.414   .     S
C976   H2084   1.111   .     S
C977   H1025   1.111   .     S
C977   H2086   1.112   .     S
C978   O1060   1.315   .     A
C978   O1059   1.313   .     A
C979   H1028   1.110   .     S
C979   C269    1.524   1_565 S
C979   H319    1.111   1_565 S
C979   H1383   1.109   1_565 S
C980   C981    1.527   .     S
C980   H1031   1.119   .     S
C980   O1053   1.416   .     S
C980   H2092   1.112   .     S
C981   H1032   1.112   .     S
C981   C982    1.526   .     S
C981   H1033   1.112   .     S
C982   H1035   1.108   .     S
C982   H1034   1.111   .     S
C982   H2098   1.110   .     S
C983   O1054   1.418   .     S
C983   H1039   1.116   .     S
C983   C984    1.530   .     S
C983   H2100   1.111   1_554 S
C984   H1040   1.110   .     S
C984   H1041   1.110   .     S
C984   C985    1.525   .     S
C985   H1042   1.110   .     S
C986   N1050   1.388   .     A
C987   N1049   1.388   .     A
C987   C280    1.450   1_565 S
C988   N1050   1.394   .     A
C989   N1049   1.385   .     A
C989   C278    1.442   1_565 S
C990   H1037   1.076   .     S
Cu991  O1058   1.951   .     S
Cu991  O1056   1.968   .     S
Cu991  Cu992   2.739   .     S
Cu991  O1060   1.947   .     S
Cu991  O1051   1.965   .     S
Cu991  N1049   2.058   .     S
Cu992  N1050   2.058   .     S
Cu992  O1059   1.951   .     S
Cu992  O1061   1.947   .     S
Cu992  O1055   1.965   .     S
Cu992  O1057   1.968   .     S
H1022  C2038   1.111   1_554 S
H1024  C2039   1.112   1_554 S
H1029  C1687   1.109   1_554 S
H1030  C2042   1.112   1_554 S
H1036  C2044   1.110   1_554 S
H1038  C2045   1.111   .     S
H1043  C749    1.110   1_655 S
H1044  C749    1.110   1_655 S
C1063  O1175   1.317   .     A
C1063  C1081   1.455   .     S
C1063  O1169   1.304   .     A
C1064  C1080   1.403   .     A
C1064  H1163   1.083   .     S
C1064  C1184   1.390   .     S
C1065  C1080   1.395   .     A
C1065  H1164   1.074   .     S
C1065  C1226   1.379   .     S
C1066  H1165   1.083   .     S
C1066  C1081   1.406   .     A
C1066  C1300   1.390   1_455 S
C1067  C1078   1.409   .     A
C1067  C1071   1.400   .     A
C1067  O1180   1.389   .     S
C1068  C1079   1.405   .     A
C1068  C1072   1.398   .     A
C1068  O1170   1.384   .     S
C1069  C1073   1.393   .     A
C1069  C1079   1.410   .     A
C1069  O1171   1.384   .     S
C1070  C1075   1.399   .     A
C1070  C1078   1.408   .     A
C1070  O1172   1.389   .     S
C1071  H1111   1.081   .     S
C1071  C1076   1.394   .     A
C1072  C1077   1.401   .     A
C1072  H1122   1.081   .     S
C1073  H1133   1.081   .     S
C1073  C1077   1.401   .     A
C1074  O1174   1.309   .     A
C1074  C1080   1.455   .     S
C1074  O1173   1.313   .     A
C1075  C1076   1.394   .     A
C1075  H1144   1.082   .     S
C1076  C1085   1.447   .     S
C1077  C1096   1.467   .     S
C1079  C16     1.464   1_556 S
C1081  C1108   1.393   .     A
C1082  H1115   1.105   .     S
C1082  C1104   1.531   .     S
C1082  H1114   1.083   .     S
C1082  C1083   1.535   .     S
C1083  H1166   1.109   .     S
C1083  H1112   1.109   .     S
C1083  H1113   1.105   .     S
C1084  H1119   1.074   .     S
C1084  C1105   1.531   .     S
C1084  C1086   1.533   .     S
C1084  H1120   1.100   .     S
C1085  O1179   1.307   .     A
C1085  O1176   1.311   .     A
C1086  H1117   1.110   .     S
C1086  H1116   1.110   .     S
C1086  H1118   1.105   .     S
C1087  H1125   1.074   .     S
C1087  C1106   1.538   .     S
C1087  C1088   1.535   .     S
C1087  H1126   1.104   .     S
C1088  H1123   1.111   .     S
C1088  H1121   1.110   .     S
C1088  H1124   1.107   .     S
C1089  H1130   1.093   .     S
C1089  H1131   1.095   .     S
C1089  C1107   1.525   .     S
C1089  C1090   1.535   .     S
C1090  H1128   1.111   .     S
C1090  H1129   1.108   .     S
C1090  H1127   1.110   .     S
C1091  H1134   1.118   .     S
C1091  C1092   1.533   .     S
C1091  H1132   1.111   .     S
C1091  O1180   1.420   .     S
C1092  C1093   1.526   .     S
C1092  H1136   1.109   .     S
C1092  H1135   1.108   .     S
C1093  H1137   1.111   .     S
C1093  H1256   1.111   .     S
C1093  H1257   1.109   .     S
C1094  C1095   1.528   .     S
C1094  H1141   1.117   .     S
C1094  O1170   1.414   .     S
C1094  H78     1.111   1_556 S
C1095  H1143   1.111   .     S
C1095  C1805   1.524   1_545 S
C1095  H80     1.112   1_556 S
C1096  O1178   1.315   .     A
C1096  O1177   1.313   .     A
C1097  H1146   1.110   .     S
C1097  C1449   1.524   .     S
C1097  H1499   1.111   .     S
C1097  H439    1.109   1_556 S
C1098  C1099   1.527   .     S
C1098  H1149   1.119   .     S
C1098  O1171   1.416   .     S
C1098  H86     1.112   1_556 S
C1099  H1150   1.112   .     S
C1099  C1100   1.526   .     S
C1099  H1151   1.112   .     S
C1100  H1153   1.108   .     S
C1100  H1152   1.111   .     S
C1100  H92     1.110   1_556 S
C1101  O1172   1.418   .     S
C1101  H1157   1.116   .     S
C1101  C1102   1.530   .     S
C1102  H1158   1.110   .     S
C1102  H1159   1.110   .     S
C1102  C1103   1.525   .     S
C1103  H1160   1.110   .     S
C1103  H1397   1.110   1_455 S
C1103  H1398   1.110   1_455 S
C1104  N1168   1.388   .     A
C1104  C1815   1.442   1_545 S
C1105  N1167   1.388   .     A
C1105  C1460   1.450   .     S
C1106  N1168   1.394   .     A
C1106  C1813   1.450   1_545 S
C1107  N1167   1.385   .     A
C1107  C1458   1.442   .     S
C1108  H1155   1.076   .     S
C1108  C1301   1.379   1_455 S
Cu1109 O1176   1.951   .     S
Cu1109 O1174   1.968   .     S
Cu1109 Cu1110  2.739   .     S
Cu1109 O1178   1.947   .     S
Cu1109 O1169   1.965   .     S
Cu1109 N1167   2.058   .     S
Cu1110 N1168   2.058   .     S
Cu1110 O1177   1.951   .     S
Cu1110 O1179   1.947   .     S
Cu1110 O1173   1.965   .     S
Cu1110 O1175   1.968   .     S
H1138  C1329   1.111   1_455 S
H1139  C1329   1.109   1_455 S
H1145  C1805   1.111   1_545 S
H1147  C743    1.109   1_545 S
H1156  C39     1.111   1_556 S
H1161  C1221   1.110   .     S
H1162  C1221   1.110   .     S
C1181  O1293   1.317   .     A
C1181  C1199   1.455   .     S
C1181  O1287   1.304   .     A
C1182  C1198   1.403   .     A
C1182  H1281   1.083   .     S
C1182  C1302   1.390   .     S
C1183  C1198   1.395   .     A
C1183  H1282   1.074   .     S
C1183  C1344   1.379   .     S
C1184  H1283   1.083   .     S
C1184  C1199   1.406   .     A
C1185  C1196   1.409   .     A
C1185  C1189   1.400   .     A
C1185  O1298   1.389   .     S
C1186  C1197   1.405   .     A
C1186  C1190   1.398   .     A
C1186  O1288   1.384   .     S
C1187  C1191   1.393   .     A
C1187  C1197   1.410   .     A
C1187  O1289   1.384   .     S
C1188  C1193   1.399   .     A
C1188  C1196   1.408   .     A
C1188  O1290   1.389   .     S
C1189  H1229   1.081   .     S
C1189  C1194   1.394   .     A
C1190  C1195   1.401   .     A
C1190  H1240   1.081   .     S
C1191  H1251   1.081   .     S
C1191  C1195   1.401   .     A
C1192  O1292   1.309   .     A
C1192  C1198   1.455   .     S
C1192  O1291   1.313   .     A
C1193  C1194   1.394   .     A
C1193  H1262   1.082   .     S
C1194  C1203   1.447   .     S
C1195  C1214   1.467   .     S
C1197  C134    1.464   1_556 S
C1199  C1226   1.393   .     A
C1200  H1233   1.105   .     S
C1200  C1222   1.531   .     S
C1200  H1232   1.083   .     S
C1200  C1201   1.535   .     S
C1201  H1284   1.109   .     S
C1201  H1230   1.109   .     S
C1201  H1231   1.105   .     S
C1202  H1237   1.074   .     S
C1202  C1223   1.531   .     S
C1202  C1204   1.533   .     S
C1202  H1238   1.100   .     S
C1203  O1297   1.307   .     A
C1203  O1294   1.311   .     A
C1204  H1235   1.110   .     S
C1204  H1234   1.110   .     S
C1204  H1236   1.105   .     S
C1205  H1243   1.074   .     S
C1205  C1224   1.538   .     S
C1205  C1206   1.535   .     S
C1205  H1244   1.104   .     S
C1206  H1241   1.111   .     S
C1206  H1239   1.110   .     S
C1206  H1242   1.107   .     S
C1207  H1248   1.093   .     S
C1207  H1249   1.095   .     S
C1207  C1225   1.525   .     S
C1207  C1208   1.535   .     S
C1208  H1246   1.111   .     S
C1208  H1247   1.108   .     S
C1208  H1245   1.110   .     S
C1209  H1252   1.118   .     S
C1209  C1210   1.533   .     S
C1209  H1250   1.111   .     S
C1209  O1298   1.420   .     S
C1210  C1211   1.526   .     S
C1210  H1254   1.109   .     S
C1210  H1253   1.108   .     S
C1211  H1255   1.111   .     S
C1211  H1374   1.111   .     S
C1211  H1375   1.109   .     S
C1212  C1213   1.528   .     S
C1212  H1259   1.117   .     S
C1212  O1288   1.414   .     S
C1212  H196    1.111   1_556 S
C1213  H1261   1.111   .     S
C1213  C1923   1.524   1_545 S
C1213  H198    1.112   1_556 S
C1214  O1296   1.315   .     A
C1214  O1295   1.313   .     A
C1215  H1264   1.110   .     S
C1215  C1567   1.524   .     S
C1215  H1617   1.111   .     S
C1215  H557    1.109   1_556 S
C1216  C1217   1.527   .     S
C1216  H1267   1.119   .     S
C1216  O1289   1.416   .     S
C1216  H204    1.112   1_556 S
C1217  H1268   1.112   .     S
C1217  C1218   1.526   .     S
C1217  H1269   1.112   .     S
C1218  H1271   1.108   .     S
C1218  H1270   1.111   .     S
C1218  H210    1.110   1_556 S
C1219  O1290   1.418   .     S
C1219  H1275   1.116   .     S
C1219  C1220   1.530   .     S
C1220  H1276   1.110   .     S
C1220  H1277   1.110   .     S
C1220  C1221   1.525   .     S
C1221  H1278   1.110   .     S
C1222  N1286   1.388   .     A
C1222  C1933   1.442   1_545 S
C1223  N1285   1.388   .     A
C1223  C1578   1.450   .     S
C1224  N1286   1.394   .     A
C1224  C1931   1.450   1_545 S
C1225  N1285   1.385   .     A
C1225  C1576   1.442   .     S
C1226  H1273   1.076   .     S
Cu1227 O1294   1.951   .     S
Cu1227 O1292   1.968   .     S
Cu1227 Cu1228  2.739   .     S
Cu1227 O1296   1.947   .     S
Cu1227 O1287   1.965   .     S
Cu1227 N1285   2.058   .     S
Cu1228 N1286   2.058   .     S
Cu1228 O1295   1.951   .     S
Cu1228 O1297   1.947   .     S
Cu1228 O1291   1.965   .     S
Cu1228 O1293   1.968   .     S
H1263  C1923   1.111   1_545 S
H1265  C861    1.109   1_545 S
H1274  C157    1.111   1_556 S
H1279  C1339   1.110   .     S
H1280  C1339   1.110   .     S
C1299  O1411   1.317   .     A
C1299  C1317   1.455   .     S
C1299  O1405   1.304   .     A
C1300  C1316   1.403   .     A
C1300  H1399   1.083   .     S
C1300  C1066   1.390   1_655 S
C1301  C1316   1.395   .     A
C1301  H1400   1.074   .     S
C1301  C1108   1.379   1_655 S
C1302  H1401   1.083   .     S
C1302  C1317   1.406   .     A
C1303  C1314   1.409   .     A
C1303  C1307   1.400   .     A
C1303  O1416   1.389   .     S
C1304  C1315   1.405   .     A
C1304  C1308   1.398   .     A
C1304  O1406   1.384   .     S
C1305  C1309   1.393   .     A
C1305  C1315   1.410   .     A
C1305  O1407   1.384   .     S
C1306  C1311   1.399   .     A
C1306  C1314   1.408   .     A
C1306  O1408   1.389   .     S
C1307  H1347   1.081   .     S
C1307  C1312   1.394   .     A
C1308  C1313   1.401   .     A
C1308  H1358   1.081   .     S
C1309  H1369   1.081   .     S
C1309  C1313   1.401   .     A
C1310  O1410   1.309   .     A
C1310  C1316   1.455   .     S
C1310  O1409   1.313   .     A
C1311  C1312   1.394   .     A
C1311  H1380   1.082   .     S
C1312  C1321   1.447   .     S
C1313  C1332   1.467   .     S
C1315  C252    1.464   1_556 S
C1317  C1344   1.393   .     A
C1318  H1351   1.105   .     S
C1318  C1340   1.531   .     S
C1318  H1350   1.083   .     S
C1318  C1319   1.535   .     S
C1319  H1402   1.109   .     S
C1319  H1348   1.109   .     S
C1319  H1349   1.105   .     S
C1320  H1355   1.074   .     S
C1320  C1341   1.531   .     S
C1320  C1322   1.533   .     S
C1320  H1356   1.100   .     S
C1321  O1415   1.307   .     A
C1321  O1412   1.311   .     A
C1322  H1353   1.110   .     S
C1322  H1352   1.110   .     S
C1322  H1354   1.105   .     S
C1323  H1361   1.074   .     S
C1323  C1342   1.538   .     S
C1323  C1324   1.535   .     S
C1323  H1362   1.104   .     S
C1324  H1359   1.111   .     S
C1324  H1357   1.110   .     S
C1324  H1360   1.107   .     S
C1325  H1366   1.093   .     S
C1325  H1367   1.095   .     S
C1325  C1343   1.525   .     S
C1325  C1326   1.535   .     S
C1326  H1364   1.111   .     S
C1326  H1365   1.108   .     S
C1326  H1363   1.110   .     S
C1327  H1370   1.118   .     S
C1327  C1328   1.533   .     S
C1327  H1368   1.111   .     S
C1327  O1416   1.420   .     S
C1328  C1329   1.526   .     S
C1328  H1372   1.109   .     S
C1328  H1371   1.108   .     S
C1329  H1373   1.111   .     S
C1329  H1138   1.111   1_655 S
C1329  H1139   1.109   1_655 S
C1330  C1331   1.528   .     S
C1330  H1377   1.117   .     S
C1330  O1406   1.414   .     S
C1330  H314    1.111   1_556 S
C1331  H1379   1.111   .     S
C1331  C2041   1.524   1_545 S
C1331  H316    1.112   1_556 S
C1332  O1414   1.315   .     A
C1332  O1413   1.313   .     A
C1333  H1382   1.110   .     S
C1333  C1685   1.524   .     S
C1333  H1735   1.111   .     S
C1333  H675    1.109   1_556 S
C1334  C1335   1.527   .     S
C1334  H1385   1.119   .     S
C1334  O1407   1.416   .     S
C1334  H322    1.112   1_556 S
C1335  H1386   1.112   .     S
C1335  C1336   1.526   .     S
C1335  H1387   1.112   .     S
C1336  H1389   1.108   .     S
C1336  H1388   1.111   .     S
C1336  H328    1.110   1_556 S
C1337  O1408   1.418   .     S
C1337  H1393   1.116   .     S
C1337  C1338   1.530   .     S
C1338  H1394   1.110   .     S
C1338  H1395   1.110   .     S
C1338  C1339   1.525   .     S
C1339  H1396   1.110   .     S
C1340  N1404   1.388   .     A
C1340  C2051   1.442   1_545 S
C1341  N1403   1.388   .     A
C1341  C1696   1.450   .     S
C1342  N1404   1.394   .     A
C1342  C2049   1.450   1_545 S
C1343  N1403   1.385   .     A
C1343  C1694   1.442   .     S
C1344  H1391   1.076   .     S
Cu1345 O1412   1.951   .     S
Cu1345 O1410   1.968   .     S
Cu1345 Cu1346  2.739   .     S
Cu1345 O1414   1.947   .     S
Cu1345 O1405   1.965   .     S
Cu1345 N1403   2.058   .     S
Cu1346 N1404   2.058   .     S
Cu1346 O1413   1.951   .     S
Cu1346 O1415   1.947   .     S
Cu1346 O1409   1.965   .     S
Cu1346 O1411   1.968   .     S
H1381  C2041   1.111   1_545 S
H1383  C979    1.109   1_545 S
H1392  C275    1.111   1_556 S
H1397  C1103   1.110   1_655 S
H1398  C1103   1.110   1_655 S
C1417  O1529   1.317   .     A
C1417  C1435   1.455   .     S
C1417  O1523   1.304   .     A
C1418  C1434   1.403   .     A
C1418  H1517   1.083   .     S
C1418  C1538   1.390   .     S
C1419  C1434   1.395   .     A
C1419  H1518   1.074   .     S
C1419  C1580   1.379   .     S
C1420  H1519   1.083   .     S
C1420  C1435   1.406   .     A
C1420  C1654   1.390   1_455 S
C1421  C1432   1.409   .     A
C1421  C1425   1.400   .     A
C1421  O1534   1.389   .     S
C1422  C1433   1.405   .     A
C1422  C1426   1.398   .     A
C1422  O1524   1.384   .     S
C1423  C1427   1.393   .     A
C1423  C1433   1.410   .     A
C1423  O1525   1.384   .     S
C1424  C1429   1.399   .     A
C1424  C1432   1.408   .     A
C1424  O1526   1.389   .     S
C1425  H1465   1.081   .     S
C1425  C1430   1.394   .     A
C1426  C1431   1.401   .     A
C1426  H1476   1.081   .     S
C1427  H1487   1.081   .     S
C1427  C1431   1.401   .     A
C1428  O1528   1.309   .     A
C1428  C1434   1.455   .     S
C1428  O1527   1.313   .     A
C1429  C1430   1.394   .     A
C1429  H1498   1.082   .     S
C1430  C1439   1.447   .     S
C1431  C1450   1.467   .     S
C1433  C370    1.464   1_556 S
C1435  C1462   1.393   .     A
C1436  H1469   1.105   .     S
C1436  C1458   1.531   .     S
C1436  H1468   1.083   .     S
C1436  C1437   1.535   .     S
C1437  H1520   1.109   .     S
C1437  H1466   1.109   .     S
C1437  H1467   1.105   .     S
C1438  H1473   1.074   .     S
C1438  C1459   1.531   .     S
C1438  C1440   1.533   .     S
C1438  H1474   1.100   .     S
C1439  O1533   1.307   .     A
C1439  O1530   1.311   .     A
C1440  H1471   1.110   .     S
C1440  H1470   1.110   .     S
C1440  H1472   1.105   .     S
C1441  H1479   1.074   .     S
C1441  C1460   1.538   .     S
C1441  C1442   1.535   .     S
C1441  H1480   1.104   .     S
C1442  H1477   1.111   .     S
C1442  H1475   1.110   .     S
C1442  H1478   1.107   .     S
C1443  H1484   1.093   .     S
C1443  H1485   1.095   .     S
C1443  C1461   1.525   .     S
C1443  C1444   1.535   .     S
C1444  H1482   1.111   .     S
C1444  H1483   1.108   .     S
C1444  H1481   1.110   .     S
C1445  H1488   1.118   .     S
C1445  C1446   1.533   .     S
C1445  H1486   1.111   .     S
C1445  O1534   1.420   .     S
C1446  C1447   1.526   .     S
C1446  H1490   1.109   .     S
C1446  H1489   1.108   .     S
C1447  H1491   1.111   .     S
C1447  H1610   1.111   .     S
C1447  H1611   1.109   .     S
C1448  C1449   1.528   .     S
C1448  H1495   1.117   .     S
C1448  O1524   1.414   .     S
C1448  H432    1.111   1_556 S
C1449  H1497   1.111   .     S
C1449  H434    1.112   1_556 S
C1450  O1532   1.315   .     A
C1450  O1531   1.313   .     A
C1451  H1500   1.110   .     S
C1451  C1803   1.524   .     S
C1451  H1853   1.111   .     S
C1451  H793    1.109   1_556 S
C1452  C1453   1.527   .     S
C1452  H1503   1.119   .     S
C1452  O1525   1.416   .     S
C1452  H440    1.112   1_556 S
C1453  H1504   1.112   .     S
C1453  C1454   1.526   .     S
C1453  H1505   1.112   .     S
C1454  H1507   1.108   .     S
C1454  H1506   1.111   .     S
C1454  H446    1.110   1_556 S
C1455  O1526   1.418   .     S
C1455  H1511   1.116   .     S
C1455  C1456   1.530   .     S
C1456  H1512   1.110   .     S
C1456  H1513   1.110   .     S
C1456  C1457   1.525   .     S
C1457  H1514   1.110   .     S
C1457  H1751   1.110   1_455 S
C1457  H1752   1.110   1_455 S
C1458  N1522   1.388   .     A
C1459  N1521   1.388   .     A
C1459  C1814   1.450   .     S
C1460  N1522   1.394   .     A
C1461  N1521   1.385   .     A
C1461  C1812   1.442   .     S
C1462  H1509   1.076   .     S
C1462  C1655   1.379   1_455 S
Cu1463 O1530   1.951   .     S
Cu1463 O1528   1.968   .     S
Cu1463 Cu1464  2.739   .     S
Cu1463 O1532   1.947   .     S
Cu1463 O1523   1.965   .     S
Cu1463 N1521   2.058   .     S
Cu1464 N1522   2.058   .     S
Cu1464 O1531   1.951   .     S
Cu1464 O1533   1.947   .     S
Cu1464 O1527   1.965   .     S
Cu1464 O1529   1.968   .     S
H1492  C1683   1.111   1_455 S
H1493  C1683   1.109   1_455 S
H1510  C393    1.111   1_556 S
H1515  C1575   1.110   .     S
H1516  C1575   1.110   .     S
C1535  O1647   1.317   .     A
C1535  C1553   1.455   .     S
C1535  O1641   1.304   .     A
C1536  C1552   1.403   .     A
C1536  H1635   1.083   .     S
C1536  C1656   1.390   .     S
C1537  C1552   1.395   .     A
C1537  H1636   1.074   .     S
C1537  C1698   1.379   .     S
C1538  H1637   1.083   .     S
C1538  C1553   1.406   .     A
C1539  C1550   1.409   .     A
C1539  C1543   1.400   .     A
C1539  O1652   1.389   .     S
C1540  C1551   1.405   .     A
C1540  C1544   1.398   .     A
C1540  O1642   1.384   .     S
C1541  C1545   1.393   .     A
C1541  C1551   1.410   .     A
C1541  O1643   1.384   .     S
C1542  C1547   1.399   .     A
C1542  C1550   1.408   .     A
C1542  O1644   1.389   .     S
C1543  H1583   1.081   .     S
C1543  C1548   1.394   .     A
C1544  C1549   1.401   .     A
C1544  H1594   1.081   .     S
C1545  H1605   1.081   .     S
C1545  C1549   1.401   .     A
C1546  O1646   1.309   .     A
C1546  C1552   1.455   .     S
C1546  O1645   1.313   .     A
C1547  C1548   1.394   .     A
C1547  H1616   1.082   .     S
C1548  C1557   1.447   .     S
C1549  C1568   1.467   .     S
C1551  C488    1.464   1_556 S
C1553  C1580   1.393   .     A
C1554  H1587   1.105   .     S
C1554  C1576   1.531   .     S
C1554  H1586   1.083   .     S
C1554  C1555   1.535   .     S
C1555  H1638   1.109   .     S
C1555  H1584   1.109   .     S
C1555  H1585   1.105   .     S
C1556  H1591   1.074   .     S
C1556  C1577   1.531   .     S
C1556  C1558   1.533   .     S
C1556  H1592   1.100   .     S
C1557  O1651   1.307   .     A
C1557  O1648   1.311   .     A
C1558  H1589   1.110   .     S
C1558  H1588   1.110   .     S
C1558  H1590   1.105   .     S
C1559  H1597   1.074   .     S
C1559  C1578   1.538   .     S
C1559  C1560   1.535   .     S
C1559  H1598   1.104   .     S
C1560  H1595   1.111   .     S
C1560  H1593   1.110   .     S
C1560  H1596   1.107   .     S
C1561  H1602   1.093   .     S
C1561  H1603   1.095   .     S
C1561  C1579   1.525   .     S
C1561  C1562   1.535   .     S
C1562  H1600   1.111   .     S
C1562  H1601   1.108   .     S
C1562  H1599   1.110   .     S
C1563  H1606   1.118   .     S
C1563  C1564   1.533   .     S
C1563  H1604   1.111   .     S
C1563  O1652   1.420   .     S
C1564  C1565   1.526   .     S
C1564  H1608   1.109   .     S
C1564  H1607   1.108   .     S
C1565  H1609   1.111   .     S
C1565  H1728   1.111   .     S
C1565  H1729   1.109   .     S
C1566  C1567   1.528   .     S
C1566  H1613   1.117   .     S
C1566  O1642   1.414   .     S
C1566  H550    1.111   1_556 S
C1567  H1615   1.111   .     S
C1567  H552    1.112   1_556 S
C1568  O1650   1.315   .     A
C1568  O1649   1.313   .     A
C1569  H1618   1.110   .     S
C1569  C1921   1.524   .     S
C1569  H1971   1.111   .     S
C1569  H911    1.109   1_556 S
C1570  C1571   1.527   .     S
C1570  H1621   1.119   .     S
C1570  O1643   1.416   .     S
C1570  H558    1.112   1_556 S
C1571  H1622   1.112   .     S
C1571  C1572   1.526   .     S
C1571  H1623   1.112   .     S
C1572  H1625   1.108   .     S
C1572  H1624   1.111   .     S
C1572  H564    1.110   1_556 S
C1573  O1644   1.418   .     S
C1573  H1629   1.116   .     S
C1573  C1574   1.530   .     S
C1574  H1630   1.110   .     S
C1574  H1631   1.110   .     S
C1574  C1575   1.525   .     S
C1575  H1632   1.110   .     S
C1576  N1640   1.388   .     A
C1577  N1639   1.388   .     A
C1577  C1932   1.450   .     S
C1578  N1640   1.394   .     A
C1579  N1639   1.385   .     A
C1579  C1930   1.442   .     S
C1580  H1627   1.076   .     S
Cu1581 O1648   1.951   .     S
Cu1581 O1646   1.968   .     S
Cu1581 Cu1582  2.739   .     S
Cu1581 O1650   1.947   .     S
Cu1581 O1641   1.965   .     S
Cu1581 N1639   2.058   .     S
Cu1582 N1640   2.058   .     S
Cu1582 O1649   1.951   .     S
Cu1582 O1651   1.947   .     S
Cu1582 O1645   1.965   .     S
Cu1582 O1647   1.968   .     S
H1628  C511    1.111   1_556 S
H1633  C1693   1.110   .     S
H1634  C1693   1.110   .     S
C1653  O1765   1.317   .     A
C1653  C1671   1.455   .     S
C1653  O1759   1.304   .     A
C1654  C1670   1.403   .     A
C1654  H1753   1.083   .     S
C1654  C1420   1.390   1_655 S
C1655  C1670   1.395   .     A
C1655  H1754   1.074   .     S
C1655  C1462   1.379   1_655 S
C1656  H1755   1.083   .     S
C1656  C1671   1.406   .     A
C1657  C1668   1.409   .     A
C1657  C1661   1.400   .     A
C1657  O1770   1.389   .     S
C1658  C1669   1.405   .     A
C1658  C1662   1.398   .     A
C1658  O1760   1.384   .     S
C1659  C1663   1.393   .     A
C1659  C1669   1.410   .     A
C1659  O1761   1.384   .     S
C1660  C1665   1.399   .     A
C1660  C1668   1.408   .     A
C1660  O1762   1.389   .     S
C1661  H1701   1.081   .     S
C1661  C1666   1.394   .     A
C1662  C1667   1.401   .     A
C1662  H1712   1.081   .     S
C1663  H1723   1.081   .     S
C1663  C1667   1.401   .     A
C1664  O1764   1.309   .     A
C1664  C1670   1.455   .     S
C1664  O1763   1.313   .     A
C1665  C1666   1.394   .     A
C1665  H1734   1.082   .     S
C1666  C1675   1.447   .     S
C1667  C1686   1.467   .     S
C1669  C606    1.464   1_556 S
C1671  C1698   1.393   .     A
C1672  H1705   1.105   .     S
C1672  C1694   1.531   .     S
C1672  H1704   1.083   .     S
C1672  C1673   1.535   .     S
C1673  H1756   1.109   .     S
C1673  H1702   1.109   .     S
C1673  H1703   1.105   .     S
C1674  H1709   1.074   .     S
C1674  C1695   1.531   .     S
C1674  C1676   1.533   .     S
C1674  H1710   1.100   .     S
C1675  O1769   1.307   .     A
C1675  O1766   1.311   .     A
C1676  H1707   1.110   .     S
C1676  H1706   1.110   .     S
C1676  H1708   1.105   .     S
C1677  H1715   1.074   .     S
C1677  C1696   1.538   .     S
C1677  C1678   1.535   .     S
C1677  H1716   1.104   .     S
C1678  H1713   1.111   .     S
C1678  H1711   1.110   .     S
C1678  H1714   1.107   .     S
C1679  H1720   1.093   .     S
C1679  H1721   1.095   .     S
C1679  C1697   1.525   .     S
C1679  C1680   1.535   .     S
C1680  H1718   1.111   .     S
C1680  H1719   1.108   .     S
C1680  H1717   1.110   .     S
C1681  H1724   1.118   .     S
C1681  C1682   1.533   .     S
C1681  H1722   1.111   .     S
C1681  O1770   1.420   .     S
C1682  C1683   1.526   .     S
C1682  H1726   1.109   .     S
C1682  H1725   1.108   .     S
C1683  H1727   1.111   .     S
C1683  H1492   1.111   1_655 S
C1683  H1493   1.109   1_655 S
C1684  C1685   1.528   .     S
C1684  H1731   1.117   .     S
C1684  O1760   1.414   .     S
C1684  H668    1.111   1_556 S
C1685  H1733   1.111   .     S
C1685  H670    1.112   1_556 S
C1686  O1768   1.315   .     A
C1686  O1767   1.313   .     A
C1687  H1736   1.110   .     S
C1687  C2039   1.524   .     S
C1687  H2089   1.111   .     S
C1687  H1029   1.109   1_556 S
C1688  C1689   1.527   .     S
C1688  H1739   1.119   .     S
C1688  O1761   1.416   .     S
C1688  H676    1.112   1_556 S
C1689  H1740   1.112   .     S
C1689  C1690   1.526   .     S
C1689  H1741   1.112   .     S
C1690  H1743   1.108   .     S
C1690  H1742   1.111   .     S
C1690  H682    1.110   1_556 S
C1691  O1762   1.418   .     S
C1691  H1747   1.116   .     S
C1691  C1692   1.530   .     S
C1692  H1748   1.110   .     S
C1692  H1749   1.110   .     S
C1692  C1693   1.525   .     S
C1693  H1750   1.110   .     S
C1694  N1758   1.388   .     A
C1695  N1757   1.388   .     A
C1695  C2050   1.450   .     S
C1696  N1758   1.394   .     A
C1697  N1757   1.385   .     A
C1697  C2048   1.442   .     S
C1698  H1745   1.076   .     S
Cu1699 O1766   1.951   .     S
Cu1699 O1764   1.968   .     S
Cu1699 Cu1700  2.739   .     S
Cu1699 O1768   1.947   .     S
Cu1699 O1759   1.965   .     S
Cu1699 N1757   2.058   .     S
Cu1700 N1758   2.058   .     S
Cu1700 O1767   1.951   .     S
Cu1700 O1769   1.947   .     S
Cu1700 O1763   1.965   .     S
Cu1700 O1765   1.968   .     S
H1746  C629    1.111   1_556 S
H1751  C1457   1.110   1_655 S
H1752  C1457   1.110   1_655 S
C1771  O1883   1.317   .     A
C1771  C1789   1.455   .     S
C1771  O1877   1.304   .     A
C1772  C1788   1.403   .     A
C1772  H1871   1.083   .     S
C1772  C1892   1.390   .     S
C1773  C1788   1.395   .     A
C1773  H1872   1.074   .     S
C1773  C1934   1.379   .     S
C1774  H1873   1.083   .     S
C1774  C1789   1.406   .     A
C1774  C2008   1.390   1_455 S
C1775  C1786   1.409   .     A
C1775  C1779   1.400   .     A
C1775  O1888   1.389   .     S
C1776  C1787   1.405   .     A
C1776  C1780   1.398   .     A
C1776  O1878   1.384   .     S
C1777  C1781   1.393   .     A
C1777  C1787   1.410   .     A
C1777  O1879   1.384   .     S
C1778  C1783   1.399   .     A
C1778  C1786   1.408   .     A
C1778  O1880   1.389   .     S
C1779  H1819   1.081   .     S
C1779  C1784   1.394   .     A
C1780  C1785   1.401   .     A
C1780  H1830   1.081   .     S
C1781  H1841   1.081   .     S
C1781  C1785   1.401   .     A
C1782  O1882   1.309   .     A
C1782  C1788   1.455   .     S
C1782  O1881   1.313   .     A
C1783  C1784   1.394   .     A
C1783  H1852   1.082   .     S
C1784  C1793   1.447   .     S
C1785  C1804   1.467   .     S
C1787  C724    1.464   1_556 S
C1789  C1816   1.393   .     A
C1790  H1823   1.105   .     S
C1790  C1812   1.531   .     S
C1790  H1822   1.083   .     S
C1790  C1791   1.535   .     S
C1791  H1874   1.109   .     S
C1791  H1820   1.109   .     S
C1791  H1821   1.105   .     S
C1792  H1827   1.074   .     S
C1792  C1813   1.531   .     S
C1792  C1794   1.533   .     S
C1792  H1828   1.100   .     S
C1793  O1887   1.307   .     A
C1793  O1884   1.311   .     A
C1794  H1825   1.110   .     S
C1794  H1824   1.110   .     S
C1794  H1826   1.105   .     S
C1795  H1833   1.074   .     S
C1795  C1814   1.538   .     S
C1795  C1796   1.535   .     S
C1795  H1834   1.104   .     S
C1796  H1831   1.111   .     S
C1796  H1829   1.110   .     S
C1796  H1832   1.107   .     S
C1797  H1838   1.093   .     S
C1797  H1839   1.095   .     S
C1797  C1815   1.525   .     S
C1797  C1798   1.535   .     S
C1798  H1836   1.111   .     S
C1798  H1837   1.108   .     S
C1798  H1835   1.110   .     S
C1799  H1842   1.118   .     S
C1799  C1800   1.533   .     S
C1799  H1840   1.111   .     S
C1799  O1888   1.420   .     S
C1800  C1801   1.526   .     S
C1800  H1844   1.109   .     S
C1800  H1843   1.108   .     S
C1801  H1845   1.111   .     S
C1801  H1964   1.111   .     S
C1801  H1965   1.109   .     S
C1802  C1803   1.528   .     S
C1802  H1849   1.117   .     S
C1802  O1878   1.414   .     S
C1802  H786    1.111   1_556 S
C1803  H1851   1.111   .     S
C1803  H788    1.112   1_556 S
C1804  O1886   1.315   .     A
C1804  O1885   1.313   .     A
C1805  H1854   1.110   .     S
C1805  C1095   1.524   1_565 S
C1805  H1145   1.111   1_565 S
C1805  H85     1.109   1_566 S
C1806  C1807   1.527   .     S
C1806  H1857   1.119   .     S
C1806  O1879   1.416   .     S
C1806  H794    1.112   1_556 S
C1807  H1858   1.112   .     S
C1807  C1808   1.526   .     S
C1807  H1859   1.112   .     S
C1808  H1861   1.108   .     S
C1808  H1860   1.111   .     S
C1808  H800    1.110   1_556 S
C1809  O1880   1.418   .     S
C1809  H1865   1.116   .     S
C1809  C1810   1.530   .     S
C1810  H1866   1.110   .     S
C1810  H1867   1.110   .     S
C1810  C1811   1.525   .     S
C1811  H1868   1.110   .     S
C1811  H2105   1.110   1_455 S
C1811  H2106   1.110   1_455 S
C1812  N1876   1.388   .     A
C1813  N1875   1.388   .     A
C1813  C1106   1.450   1_565 S
C1814  N1876   1.394   .     A
C1815  N1875   1.385   .     A
C1815  C1104   1.442   1_565 S
C1816  H1863   1.076   .     S
C1816  C2009   1.379   1_455 S
Cu1817 O1884   1.951   .     S
Cu1817 O1882   1.968   .     S
Cu1817 Cu1818  2.739   .     S
Cu1817 O1886   1.947   .     S
Cu1817 O1877   1.965   .     S
Cu1817 N1875   2.058   .     S
Cu1818 N1876   2.058   .     S
Cu1818 O1885   1.951   .     S
Cu1818 O1887   1.947   .     S
Cu1818 O1881   1.965   .     S
Cu1818 O1883   1.968   .     S
H1846  C2037   1.111   1_455 S
H1847  C2037   1.109   1_455 S
H1864  C747    1.111   1_556 S
H1869  C1929   1.110   .     S
H1870  C1929   1.110   .     S
C1889  O2001   1.317   .     A
C1889  C1907   1.455   .     S
C1889  O1995   1.304   .     A
C1890  C1906   1.403   .     A
C1890  H1989   1.083   .     S
C1890  C2010   1.390   .     S
C1891  C1906   1.395   .     A
C1891  H1990   1.074   .     S
C1891  C2052   1.379   .     S
C1892  H1991   1.083   .     S
C1892  C1907   1.406   .     A
C1893  C1904   1.409   .     A
C1893  C1897   1.400   .     A
C1893  O2006   1.389   .     S
C1894  C1905   1.405   .     A
C1894  C1898   1.398   .     A
C1894  O1996   1.384   .     S
C1895  C1899   1.393   .     A
C1895  C1905   1.410   .     A
C1895  O1997   1.384   .     S
C1896  C1901   1.399   .     A
C1896  C1904   1.408   .     A
C1896  O1998   1.389   .     S
C1897  H1937   1.081   .     S
C1897  C1902   1.394   .     A
C1898  C1903   1.401   .     A
C1898  H1948   1.081   .     S
C1899  H1959   1.081   .     S
C1899  C1903   1.401   .     A
C1900  O2000   1.309   .     A
C1900  C1906   1.455   .     S
C1900  O1999   1.313   .     A
C1901  C1902   1.394   .     A
C1901  H1970   1.082   .     S
C1902  C1911   1.447   .     S
C1903  C1922   1.467   .     S
C1905  C842    1.464   1_556 S
C1907  C1934   1.393   .     A
C1908  H1941   1.105   .     S
C1908  C1930   1.531   .     S
C1908  H1940   1.083   .     S
C1908  C1909   1.535   .     S
C1909  H1992   1.109   .     S
C1909  H1938   1.109   .     S
C1909  H1939   1.105   .     S
C1910  H1945   1.074   .     S
C1910  C1931   1.531   .     S
C1910  C1912   1.533   .     S
C1910  H1946   1.100   .     S
C1911  O2005   1.307   .     A
C1911  O2002   1.311   .     A
C1912  H1943   1.110   .     S
C1912  H1942   1.110   .     S
C1912  H1944   1.105   .     S
C1913  H1951   1.074   .     S
C1913  C1932   1.538   .     S
C1913  C1914   1.535   .     S
C1913  H1952   1.104   .     S
C1914  H1949   1.111   .     S
C1914  H1947   1.110   .     S
C1914  H1950   1.107   .     S
C1915  H1956   1.093   .     S
C1915  H1957   1.095   .     S
C1915  C1933   1.525   .     S
C1915  C1916   1.535   .     S
C1916  H1954   1.111   .     S
C1916  H1955   1.108   .     S
C1916  H1953   1.110   .     S
C1917  H1960   1.118   .     S
C1917  C1918   1.533   .     S
C1917  H1958   1.111   .     S
C1917  O2006   1.420   .     S
C1918  C1919   1.526   .     S
C1918  H1962   1.109   .     S
C1918  H1961   1.108   .     S
C1919  H1963   1.111   .     S
C1919  H2082   1.111   .     S
C1919  H2083   1.109   .     S
C1920  C1921   1.528   .     S
C1920  H1967   1.117   .     S
C1920  O1996   1.414   .     S
C1920  H904    1.111   1_556 S
C1921  H1969   1.111   .     S
C1921  H906    1.112   1_556 S
C1922  O2004   1.315   .     A
C1922  O2003   1.313   .     A
C1923  H1972   1.110   .     S
C1923  C1213   1.524   1_565 S
C1923  H1263   1.111   1_565 S
C1923  H203    1.109   1_566 S
C1924  C1925   1.527   .     S
C1924  H1975   1.119   .     S
C1924  O1997   1.416   .     S
C1924  H912    1.112   1_556 S
C1925  H1976   1.112   .     S
C1925  C1926   1.526   .     S
C1925  H1977   1.112   .     S
C1926  H1979   1.108   .     S
C1926  H1978   1.111   .     S
C1926  H918    1.110   1_556 S
C1927  O1998   1.418   .     S
C1927  H1983   1.116   .     S
C1927  C1928   1.530   .     S
C1928  H1984   1.110   .     S
C1928  H1985   1.110   .     S
C1928  C1929   1.525   .     S
C1929  H1986   1.110   .     S
C1930  N1994   1.388   .     A
C1931  N1993   1.388   .     A
C1931  C1224   1.450   1_565 S
C1932  N1994   1.394   .     A
C1933  N1993   1.385   .     A
C1933  C1222   1.442   1_565 S
C1934  H1981   1.076   .     S
Cu1935 O2002   1.951   .     S
Cu1935 O2000   1.968   .     S
Cu1935 Cu1936  2.739   .     S
Cu1935 O2004   1.947   .     S
Cu1935 O1995   1.965   .     S
Cu1935 N1993   2.058   .     S
Cu1936 N1994   2.058   .     S
Cu1936 O2003   1.951   .     S
Cu1936 O2005   1.947   .     S
Cu1936 O1999   1.965   .     S
Cu1936 O2001   1.968   .     S
H1982  C865    1.111   1_556 S
H1987  C2047   1.110   .     S
H1988  C2047   1.110   .     S
C2007  O2119   1.317   .     A
C2007  C2025   1.455   .     S
C2007  O2113   1.304   .     A
C2008  C2024   1.403   .     A
C2008  H2107   1.083   .     S
C2008  C1774   1.390   1_655 S
C2009  C2024   1.395   .     A
C2009  H2108   1.074   .     S
C2009  C1816   1.379   1_655 S
C2010  H2109   1.083   .     S
C2010  C2025   1.406   .     A
C2011  C2022   1.409   .     A
C2011  C2015   1.400   .     A
C2011  O2124   1.389   .     S
C2012  C2023   1.405   .     A
C2012  C2016   1.398   .     A
C2012  O2114   1.384   .     S
C2013  C2017   1.393   .     A
C2013  C2023   1.410   .     A
C2013  O2115   1.384   .     S
C2014  C2019   1.399   .     A
C2014  C2022   1.408   .     A
C2014  O2116   1.389   .     S
C2015  H2055   1.081   .     S
C2015  C2020   1.394   .     A
C2016  C2021   1.401   .     A
C2016  H2066   1.081   .     S
C2017  H2077   1.081   .     S
C2017  C2021   1.401   .     A
C2018  O2118   1.309   .     A
C2018  C2024   1.455   .     S
C2018  O2117   1.313   .     A
C2019  C2020   1.394   .     A
C2019  H2088   1.082   .     S
C2020  C2029   1.447   .     S
C2021  C2040   1.467   .     S
C2023  C960    1.464   1_556 S
C2025  C2052   1.393   .     A
C2026  H2059   1.105   .     S
C2026  C2048   1.531   .     S
C2026  H2058   1.083   .     S
C2026  C2027   1.535   .     S
C2027  H2110   1.109   .     S
C2027  H2056   1.109   .     S
C2027  H2057   1.105   .     S
C2028  H2063   1.074   .     S
C2028  C2049   1.531   .     S
C2028  C2030   1.533   .     S
C2028  H2064   1.100   .     S
C2029  O2123   1.307   .     A
C2029  O2120   1.311   .     A
C2030  H2061   1.110   .     S
C2030  H2060   1.110   .     S
C2030  H2062   1.105   .     S
C2031  H2069   1.074   .     S
C2031  C2050   1.538   .     S
C2031  C2032   1.535   .     S
C2031  H2070   1.104   .     S
C2032  H2067   1.111   .     S
C2032  H2065   1.110   .     S
C2032  H2068   1.107   .     S
C2033  H2074   1.093   .     S
C2033  H2075   1.095   .     S
C2033  C2051   1.525   .     S
C2033  C2034   1.535   .     S
C2034  H2072   1.111   .     S
C2034  H2073   1.108   .     S
C2034  H2071   1.110   .     S
C2035  H2078   1.118   .     S
C2035  C2036   1.533   .     S
C2035  H2076   1.111   .     S
C2035  O2124   1.420   .     S
C2036  C2037   1.526   .     S
C2036  H2080   1.109   .     S
C2036  H2079   1.108   .     S
C2037  H2081   1.111   .     S
C2037  H1846   1.111   1_655 S
C2037  H1847   1.109   1_655 S
C2038  C2039   1.528   .     S
C2038  H2085   1.117   .     S
C2038  O2114   1.414   .     S
C2038  H1022   1.111   1_556 S
C2039  H2087   1.111   .     S
C2039  H1024   1.112   1_556 S
C2040  O2122   1.315   .     A
C2040  O2121   1.313   .     A
C2041  H2090   1.110   .     S
C2041  C1331   1.524   1_565 S
C2041  H1381   1.111   1_565 S
C2041  H321    1.109   1_566 S
C2042  C2043   1.527   .     S
C2042  H2093   1.119   .     S
C2042  O2115   1.416   .     S
C2042  H1030   1.112   1_556 S
C2043  H2094   1.112   .     S
C2043  C2044   1.526   .     S
C2043  H2095   1.112   .     S
C2044  H2097   1.108   .     S
C2044  H2096   1.111   .     S
C2044  H1036   1.110   1_556 S
C2045  O2116   1.418   .     S
C2045  H2101   1.116   .     S
C2045  C2046   1.530   .     S
C2046  H2102   1.110   .     S
C2046  H2103   1.110   .     S
C2046  C2047   1.525   .     S
C2047  H2104   1.110   .     S
C2048  N2112   1.388   .     A
C2049  N2111   1.388   .     A
C2049  C1342   1.450   1_565 S
C2050  N2112   1.394   .     A
C2051  N2111   1.385   .     A
C2051  C1340   1.442   1_565 S
C2052  H2099   1.076   .     S
Cu2053 O2120   1.951   .     S
Cu2053 O2118   1.968   .     S
Cu2053 Cu2054  2.739   .     S
Cu2053 O2122   1.947   .     S
Cu2053 O2113   1.965   .     S
Cu2053 N2111   2.058   .     S
Cu2054 N2112   2.058   .     S
Cu2054 O2121   1.951   .     S
Cu2054 O2123   1.947   .     S
Cu2054 O2117   1.965   .     S
Cu2054 O2119   1.968   .     S
H2100  C983    1.111   1_556 S
H2105  C1811   1.110   1_655 S
H2106  C1811   1.110   1_655 S
