data_str_m2_o1_o17_pcu_sym.56
_audit_creation_date              2020-01-03
_audit_creation_method            'Materials Studio'
_symmetry_space_group_name_H-M    'P1'
_symmetry_Int_Tables_number       1
_symmetry_cell_setting            triclinic
loop_
_symmetry_equiv_pos_as_xyz
  x,y,z
_cell_length_a                    32.7092
_cell_length_b                    28.6267
_cell_length_c                    30.1267
_cell_angle_alpha                 90.2291
_cell_angle_beta                  90.9519
_cell_angle_gamma                 90.2701
loop_
_atom_site_label
_atom_site_type_symbol
_atom_site_fract_x
_atom_site_fract_y
_atom_site_fract_z
_atom_site_U_iso_or_equiv
_atom_site_adp_type
_atom_site_occupancy
C1     C     0.08730   0.16668   0.24997   0.00000  Uiso   1.00
C2     C     0.04248   0.16710   0.25046   0.00000  Uiso   1.00
C3     C     0.14681   0.02452   0.21723   0.00000  Uiso   1.00
C4     C     0.18712   0.30878   0.28237   0.00000  Uiso   1.00
C5     C     0.18698   0.02498   0.28246   0.00000  Uiso   1.00
C6     C     0.14647   0.30832   0.21744   0.00000  Uiso   1.00
C7     C     0.16679   0.16647   0.16461   0.00000  Uiso   1.00
C8     C     0.16610   0.16680   0.33537   0.00000  Uiso   1.00
C9     C     0.20315   0.17484   0.40698   0.00000  Uiso   1.00
C10    C     0.12893   0.17030   0.09305   0.00000  Uiso   1.00
C11    C     0.16595   0.16764   0.38354   0.00000  Uiso   1.00
C12    C     0.24585   0.16688   0.25022   0.00000  Uiso   1.00
C13    C     0.16641   0.16552   0.11642   0.00000  Uiso   1.00
C14    C     0.12859   0.16349   0.40610   0.00000  Uiso   1.00
C15    C     0.20373   0.16129   0.09390   0.00000  Uiso   1.00
C16    C     0.12841   0.17004   0.45252   0.00000  Uiso   1.00
C17    C     0.20390   0.16426   0.04720   0.00000  Uiso   1.00
C18    C     0.16608   0.17077   0.47650   0.00000  Uiso   1.00
C19    C     0.16632   0.16943   0.02346   0.00000  Uiso   1.00
C20    C     0.20351   0.17334   0.45368   0.00000  Uiso   1.00
C21    C     0.12900   0.17323   0.04639   0.00000  Uiso   1.00
C22    C     0.09155   0.17625   0.47583   0.00000  Uiso   1.00
C23    C     0.09246   0.18151   0.02204   0.00000  Uiso   1.00
C24    C     0.24094   0.16460   0.02341   0.00000  Uiso   1.00
C25    C     0.05086   0.24412   0.03615   0.00000  Uiso   1.00
C26    C     0.07731   0.27474   0.06732   0.00000  Uiso   1.00
C27    C     0.07399   0.32615   0.05452   0.00000  Uiso   1.00
C28    C     0.28994   0.23155   0.46983   0.00000  Uiso   1.00
C29    C     0.26594   0.26919   0.44440   0.00000  Uiso   1.00
C30    C     0.27799   0.31793   0.46067   0.00000  Uiso   1.00
C31    C     0.04333   0.06826   0.20893   0.00000  Uiso   1.00
C32    C     0.00296   0.05962   0.18319   0.00000  Uiso   1.00
C33    C     0.01138   0.04835   0.13473   0.00000  Uiso   1.00
C34    C     0.24056   0.17553   0.47829   0.00000  Uiso   1.00
C35    C     0.28143   0.23720   0.17607   0.00000  Uiso   1.00
C36    C     0.28574   0.28124   0.14843   0.00000  Uiso   1.00
C37    C     0.26988   0.27354   0.10104   0.00000  Uiso   1.00
C38    C     0.28659   0.10287   0.32939   0.00000  Uiso   1.00
C39    C     0.31179   0.07118   0.35965   0.00000  Uiso   1.00
C40    C     0.31367   0.08986   0.40718   0.00000  Uiso   1.00
C41    C     0.05079   0.26632   0.29011   0.00000  Uiso   1.00
C42    C     0.01462   0.28576   0.31592   0.00000  Uiso   1.00
C43    C     0.02797   0.29723   0.36357   0.00000  Uiso   1.00
C44    C     0.02017   0.12508   0.25559   0.00000  Uiso   1.00
C45    C     0.31206   0.20807   0.23864   0.00000  Uiso   1.00
C46    C     0.31195   0.12751   0.26359   0.00000  Uiso   1.00
C47    C     0.02075   0.20976   0.24625   0.00000  Uiso   1.00
C48    C     0.29033   0.16753   0.25054   0.00000  Uiso   1.00
Cu49   Cu    0.16667   0.21355   0.25000   0.00000  Uiso   1.00
Cu50   Cu    0.16667   0.11978   0.25000   0.00000  Uiso   1.00
H51    H     0.13120   0.04289   0.19070   0.00000  Uiso   1.00
H52    H     0.27641   0.12459   0.05668   0.00000  Uiso   1.00
H53    H     0.01839   0.25163   0.04322   0.00000  Uiso   1.00
H54    H     0.05557   0.25453   0.00101   0.00000  Uiso   1.00
H55    H     0.06719   0.27006   0.10208   0.00000  Uiso   1.00
H56    H     0.10995   0.26465   0.06547   0.00000  Uiso   1.00
H57    H     0.08736   0.33188   0.02132   0.00000  Uiso   1.00
H58    H     0.09106   0.01467   0.07916   0.00000  Uiso   1.00
H59    H     0.04149   0.00386   0.05348   0.00000  Uiso   1.00
H60    H     0.32261   0.23518   0.46121   0.00000  Uiso   1.00
H61    H     0.28815   0.23791   0.00617   0.00000  Uiso   1.00
H62    H     0.20365   0.29040   0.30828   0.00000  Uiso   1.00
H63    H     0.27210   0.26611   0.40835   0.00000  Uiso   1.00
H64    H     0.23259   0.26473   0.44928   0.00000  Uiso   1.00
H65    H     0.26915   0.32265   0.49584   0.00000  Uiso   1.00
H66    H     0.26183   0.01110   0.44023   0.00000  Uiso   1.00
H67    H     0.31149   0.32332   0.45807   0.00000  Uiso   1.00
H68    H     0.06067   0.03505   0.20890   0.00000  Uiso   1.00
H69    H     0.06205   0.09438   0.19092   0.00000  Uiso   1.00
H70    H     0.31948   0.03031   0.19873   0.00000  Uiso   1.00
H71    H     0.31664   0.09108   0.18349   0.00000  Uiso   1.00
H72    H     0.02678   0.07836   0.11861   0.00000  Uiso   1.00
H73    H     0.20325   0.04365   0.30854   0.00000  Uiso   1.00
H74    H     0.31550   0.04124   0.11664   0.00000  Uiso   1.00
H75    H     0.03133   0.01724   0.13265   0.00000  Uiso   1.00
H76    H     0.24892   0.22615   0.17466   0.00000  Uiso   1.00
H77    H     0.30029   0.20939   0.16025   0.00000  Uiso   1.00
H78    H     0.26845   0.31023   0.16388   0.00000  Uiso   1.00
H79    H     0.31862   0.29062   0.14757   0.00000  Uiso   1.00
H80    H     0.28628   0.24404   0.08547   0.00000  Uiso   1.00
H81    H     0.27510   0.30551   0.08115   0.00000  Uiso   1.00
H82    H     0.23659   0.26566   0.10093   0.00000  Uiso   1.00
H83    H     0.25372   0.09796   0.33679   0.00000  Uiso   1.00
H84    H     0.13009   0.28959   0.19140   0.00000  Uiso   1.00
H85    H     0.29417   0.14006   0.33780   0.00000  Uiso   1.00
H86    H     0.29749   0.03597   0.35929   0.00000  Uiso   1.00
H87    H     0.01012   0.06860   0.34706   0.00000  Uiso   1.00
H88    H     0.32842   0.12488   0.40811   0.00000  Uiso   1.00
H89    H     0.33215   0.06600   0.42829   0.00000  Uiso   1.00
H90    H     0.28242   0.09247   0.42081   0.00000  Uiso   1.00
H91    H     0.07461   0.29402   0.28818   0.00000  Uiso   1.00
H92    H     0.06473   0.23709   0.30937   0.00000  Uiso   1.00
H93    H     0.00283   0.31771   0.29935   0.00000  Uiso   1.00
H94    H     0.32292   0.25946   0.31699   0.00000  Uiso   1.00
H95    H     0.23508   0.19158   0.35451   0.00000  Uiso   1.00
H96    H     0.04206   0.26628   0.37962   0.00000  Uiso   1.00
H97    H     0.00113   0.30718   0.38326   0.00000  Uiso   1.00
H98    H     0.05037   0.32651   0.36405   0.00000  Uiso   1.00
H99    H     0.09491   0.16259   0.14616   0.00000  Uiso   1.00
H100   H     0.09660   0.14491   0.35260   0.00000  Uiso   1.00
H101   H     0.23614   0.14368   0.14674   0.00000  Uiso   1.00
H102   H     0.05737   0.20419   0.43110   0.00000  Uiso   1.00
N103   N     0.16667   0.28402   0.25000   0.00000  Uiso   1.00
N104   N     0.16667   0.04931   0.25000   0.00000  Uiso   1.00
O105   O     0.10655   0.20625   0.24999   0.00000  Uiso   1.00
O106   O     0.09178   0.17143   0.11463   0.00000  Uiso   1.00
O107   O     0.09213   0.15262   0.38413   0.00000  Uiso   1.00
O108   O     0.24052   0.15670   0.11684   0.00000  Uiso   1.00
O109   O     0.05416   0.18036   0.45456   0.00000  Uiso   1.00
O110   O     0.27839   0.15604   0.04317   0.00000  Uiso   1.00
O111   O     0.05730   0.19568   0.04340   0.00000  Uiso   1.00
O112   O     0.27716   0.18573   0.45782   0.00000  Uiso   1.00
O113   O     0.03785   0.08132   0.25400   0.00000  Uiso   1.00
O114   O     0.29301   0.24696   0.22077   0.00000  Uiso   1.00
O115   O     0.29295   0.09049   0.28432   0.00000  Uiso   1.00
O116   O     0.22679   0.12709   0.25000   0.00000  Uiso   1.00
O117   O     0.03976   0.25314   0.24597   0.00000  Uiso   1.00
O118   O     0.22679   0.20625   0.25000   0.00000  Uiso   1.00
O119   O     0.10655   0.12709   0.24999   0.00000  Uiso   1.00
O120   O     0.16666   0.20627   0.18513   0.00000  Uiso   1.00
O121   O     0.16668   0.12707   0.31487   0.00000  Uiso   1.00
O122   O     0.16668   0.20627   0.31487   0.00000  Uiso   1.00
O123   O     0.16666   0.12707   0.18513   0.00000  Uiso   1.00
O124   O     0.23977   0.18062   0.38522   0.00000  Uiso   1.00
C125   C     0.42063   0.16668   0.24997   0.00000  Uiso   1.00
C126   C     0.37581   0.16710   0.25046   0.00000  Uiso   1.00
C127   C     0.48014   0.02452   0.21723   0.00000  Uiso   1.00
C128   C     0.52046   0.30878   0.28237   0.00000  Uiso   1.00
C129   C     0.52031   0.02498   0.28246   0.00000  Uiso   1.00
C130   C     0.47980   0.30832   0.21744   0.00000  Uiso   1.00
C131   C     0.50013   0.16647   0.16461   0.00000  Uiso   1.00
C132   C     0.49943   0.16680   0.33537   0.00000  Uiso   1.00
C133   C     0.53648   0.17484   0.40698   0.00000  Uiso   1.00
C134   C     0.46227   0.17030   0.09305   0.00000  Uiso   1.00
C135   C     0.49928   0.16764   0.38354   0.00000  Uiso   1.00
C136   C     0.57918   0.16688   0.25022   0.00000  Uiso   1.00
C137   C     0.49975   0.16552   0.11642   0.00000  Uiso   1.00
C138   C     0.46192   0.16349   0.40610   0.00000  Uiso   1.00
C139   C     0.53707   0.16129   0.09390   0.00000  Uiso   1.00
C140   C     0.46174   0.17004   0.45252   0.00000  Uiso   1.00
C141   C     0.53723   0.16426   0.04720   0.00000  Uiso   1.00
C142   C     0.49942   0.17077   0.47650   0.00000  Uiso   1.00
C143   C     0.49965   0.16943   0.02346   0.00000  Uiso   1.00
C144   C     0.53684   0.17334   0.45368   0.00000  Uiso   1.00
C145   C     0.46233   0.17323   0.04639   0.00000  Uiso   1.00
C146   C     0.42488   0.17625   0.47583   0.00000  Uiso   1.00
C147   C     0.42579   0.18151   0.02204   0.00000  Uiso   1.00
C148   C     0.57428   0.16460   0.02341   0.00000  Uiso   1.00
C149   C     0.38419   0.24412   0.03615   0.00000  Uiso   1.00
C150   C     0.41064   0.27474   0.06732   0.00000  Uiso   1.00
C151   C     0.40733   0.32615   0.05452   0.00000  Uiso   1.00
C152   C     0.62328   0.23155   0.46983   0.00000  Uiso   1.00
C153   C     0.59927   0.26919   0.44440   0.00000  Uiso   1.00
C154   C     0.61132   0.31793   0.46067   0.00000  Uiso   1.00
C155   C     0.37666   0.06826   0.20893   0.00000  Uiso   1.00
C156   C     0.33629   0.05962   0.18319   0.00000  Uiso   1.00
C157   C     0.34471   0.04835   0.13473   0.00000  Uiso   1.00
C158   C     0.57390   0.17553   0.47829   0.00000  Uiso   1.00
C159   C     0.61476   0.23720   0.17607   0.00000  Uiso   1.00
C160   C     0.61908   0.28124   0.14843   0.00000  Uiso   1.00
C161   C     0.60322   0.27354   0.10104   0.00000  Uiso   1.00
C162   C     0.61993   0.10287   0.32939   0.00000  Uiso   1.00
C163   C     0.64513   0.07118   0.35965   0.00000  Uiso   1.00
C164   C     0.64701   0.08986   0.40718   0.00000  Uiso   1.00
C165   C     0.38412   0.26632   0.29011   0.00000  Uiso   1.00
C166   C     0.34795   0.28576   0.31592   0.00000  Uiso   1.00
C167   C     0.36130   0.29723   0.36357   0.00000  Uiso   1.00
C168   C     0.35350   0.12508   0.25559   0.00000  Uiso   1.00
C169   C     0.64539   0.20807   0.23864   0.00000  Uiso   1.00
C170   C     0.64528   0.12751   0.26359   0.00000  Uiso   1.00
C171   C     0.35408   0.20976   0.24625   0.00000  Uiso   1.00
C172   C     0.62367   0.16753   0.25054   0.00000  Uiso   1.00
Cu173  Cu    0.50000   0.21355   0.25000   0.00000  Uiso   1.00
Cu174  Cu    0.50000   0.11978   0.25000   0.00000  Uiso   1.00
H175   H     0.46454   0.04289   0.19070   0.00000  Uiso   1.00
H176   H     0.60974   0.12459   0.05668   0.00000  Uiso   1.00
H177   H     0.35172   0.25163   0.04322   0.00000  Uiso   1.00
H178   H     0.38890   0.25453   0.00101   0.00000  Uiso   1.00
H179   H     0.40053   0.27006   0.10208   0.00000  Uiso   1.00
H180   H     0.44328   0.26465   0.06547   0.00000  Uiso   1.00
H181   H     0.42070   0.33188   0.02132   0.00000  Uiso   1.00
H182   H     0.42440   0.01467   0.07916   0.00000  Uiso   1.00
H183   H     0.37482   0.00386   0.05348   0.00000  Uiso   1.00
H184   H     0.65594   0.23518   0.46121   0.00000  Uiso   1.00
H185   H     0.62149   0.23791   0.00617   0.00000  Uiso   1.00
H186   H     0.53698   0.29040   0.30828   0.00000  Uiso   1.00
H187   H     0.60543   0.26611   0.40835   0.00000  Uiso   1.00
H188   H     0.56592   0.26473   0.44928   0.00000  Uiso   1.00
H189   H     0.60248   0.32265   0.49584   0.00000  Uiso   1.00
H190   H     0.59516   0.01110   0.44023   0.00000  Uiso   1.00
H191   H     0.64482   0.32332   0.45807   0.00000  Uiso   1.00
H192   H     0.39400   0.03505   0.20890   0.00000  Uiso   1.00
H193   H     0.39539   0.09438   0.19092   0.00000  Uiso   1.00
H194   H     0.65281   0.03031   0.19873   0.00000  Uiso   1.00
H195   H     0.64997   0.09108   0.18349   0.00000  Uiso   1.00
H196   H     0.36012   0.07836   0.11861   0.00000  Uiso   1.00
H197   H     0.53658   0.04365   0.30854   0.00000  Uiso   1.00
H198   H     0.64883   0.04124   0.11664   0.00000  Uiso   1.00
H199   H     0.36466   0.01724   0.13265   0.00000  Uiso   1.00
H200   H     0.58225   0.22615   0.17466   0.00000  Uiso   1.00
H201   H     0.63363   0.20939   0.16025   0.00000  Uiso   1.00
H202   H     0.60179   0.31023   0.16388   0.00000  Uiso   1.00
H203   H     0.65195   0.29062   0.14757   0.00000  Uiso   1.00
H204   H     0.61961   0.24404   0.08547   0.00000  Uiso   1.00
H205   H     0.60843   0.30551   0.08115   0.00000  Uiso   1.00
H206   H     0.56992   0.26566   0.10093   0.00000  Uiso   1.00
H207   H     0.58706   0.09796   0.33679   0.00000  Uiso   1.00
H208   H     0.46342   0.28959   0.19140   0.00000  Uiso   1.00
H209   H     0.62750   0.14006   0.33780   0.00000  Uiso   1.00
H210   H     0.63083   0.03597   0.35929   0.00000  Uiso   1.00
H211   H     0.34345   0.06860   0.34706   0.00000  Uiso   1.00
H212   H     0.66175   0.12488   0.40811   0.00000  Uiso   1.00
H213   H     0.66548   0.06600   0.42829   0.00000  Uiso   1.00
H214   H     0.61576   0.09247   0.42081   0.00000  Uiso   1.00
H215   H     0.40794   0.29402   0.28818   0.00000  Uiso   1.00
H216   H     0.39806   0.23709   0.30937   0.00000  Uiso   1.00
H217   H     0.33616   0.31771   0.29935   0.00000  Uiso   1.00
H218   H     0.65625   0.25946   0.31699   0.00000  Uiso   1.00
H219   H     0.56841   0.19158   0.35451   0.00000  Uiso   1.00
H220   H     0.37539   0.26628   0.37962   0.00000  Uiso   1.00
H221   H     0.33447   0.30718   0.38326   0.00000  Uiso   1.00
H222   H     0.38371   0.32651   0.36405   0.00000  Uiso   1.00
H223   H     0.42824   0.16259   0.14616   0.00000  Uiso   1.00
H224   H     0.42993   0.14491   0.35260   0.00000  Uiso   1.00
H225   H     0.56947   0.14368   0.14674   0.00000  Uiso   1.00
H226   H     0.39070   0.20419   0.43110   0.00000  Uiso   1.00
N227   N     0.50000   0.28402   0.25000   0.00000  Uiso   1.00
N228   N     0.50000   0.04931   0.25000   0.00000  Uiso   1.00
O229   O     0.43988   0.20625   0.24999   0.00000  Uiso   1.00
O230   O     0.42512   0.17143   0.11463   0.00000  Uiso   1.00
O231   O     0.42546   0.15262   0.38413   0.00000  Uiso   1.00
O232   O     0.57385   0.15670   0.11684   0.00000  Uiso   1.00
O233   O     0.38749   0.18036   0.45456   0.00000  Uiso   1.00
O234   O     0.61173   0.15604   0.04317   0.00000  Uiso   1.00
O235   O     0.39064   0.19568   0.04340   0.00000  Uiso   1.00
O236   O     0.61050   0.18573   0.45782   0.00000  Uiso   1.00
O237   O     0.37118   0.08132   0.25400   0.00000  Uiso   1.00
O238   O     0.62634   0.24696   0.22077   0.00000  Uiso   1.00
O239   O     0.62628   0.09049   0.28432   0.00000  Uiso   1.00
O240   O     0.56012   0.12709   0.25000   0.00000  Uiso   1.00
O241   O     0.37310   0.25314   0.24597   0.00000  Uiso   1.00
O242   O     0.56012   0.20625   0.25000   0.00000  Uiso   1.00
O243   O     0.43988   0.12709   0.24999   0.00000  Uiso   1.00
O244   O     0.49999   0.20627   0.18513   0.00000  Uiso   1.00
O245   O     0.50001   0.12707   0.31487   0.00000  Uiso   1.00
O246   O     0.50001   0.20627   0.31487   0.00000  Uiso   1.00
O247   O     0.49999   0.12707   0.18513   0.00000  Uiso   1.00
O248   O     0.57310   0.18062   0.38522   0.00000  Uiso   1.00
C249   C     0.75396   0.16668   0.24997   0.00000  Uiso   1.00
C250   C     0.70915   0.16710   0.25046   0.00000  Uiso   1.00
C251   C     0.81348   0.02452   0.21723   0.00000  Uiso   1.00
C252   C     0.85379   0.30878   0.28237   0.00000  Uiso   1.00
C253   C     0.85364   0.02498   0.28246   0.00000  Uiso   1.00
C254   C     0.81313   0.30832   0.21744   0.00000  Uiso   1.00
C255   C     0.83346   0.16647   0.16461   0.00000  Uiso   1.00
C256   C     0.83277   0.16680   0.33537   0.00000  Uiso   1.00
C257   C     0.86981   0.17484   0.40698   0.00000  Uiso   1.00
C258   C     0.79560   0.17030   0.09305   0.00000  Uiso   1.00
C259   C     0.83262   0.16764   0.38354   0.00000  Uiso   1.00
C260   C     0.91252   0.16688   0.25022   0.00000  Uiso   1.00
C261   C     0.83308   0.16552   0.11642   0.00000  Uiso   1.00
C262   C     0.79525   0.16349   0.40610   0.00000  Uiso   1.00
C263   C     0.87040   0.16129   0.09390   0.00000  Uiso   1.00
C264   C     0.79508   0.17004   0.45252   0.00000  Uiso   1.00
C265   C     0.87056   0.16426   0.04720   0.00000  Uiso   1.00
C266   C     0.83275   0.17077   0.47650   0.00000  Uiso   1.00
C267   C     0.83298   0.16943   0.02346   0.00000  Uiso   1.00
C268   C     0.87017   0.17334   0.45368   0.00000  Uiso   1.00
C269   C     0.79566   0.17323   0.04639   0.00000  Uiso   1.00
C270   C     0.75822   0.17625   0.47583   0.00000  Uiso   1.00
C271   C     0.75912   0.18151   0.02204   0.00000  Uiso   1.00
C272   C     0.90761   0.16460   0.02341   0.00000  Uiso   1.00
C273   C     0.71752   0.24412   0.03615   0.00000  Uiso   1.00
C274   C     0.74398   0.27474   0.06732   0.00000  Uiso   1.00
C275   C     0.74066   0.32615   0.05452   0.00000  Uiso   1.00
C276   C     0.95661   0.23155   0.46983   0.00000  Uiso   1.00
C277   C     0.93261   0.26919   0.44440   0.00000  Uiso   1.00
C278   C     0.94465   0.31793   0.46067   0.00000  Uiso   1.00
C279   C     0.70999   0.06826   0.20893   0.00000  Uiso   1.00
C280   C     0.66962   0.05962   0.18319   0.00000  Uiso   1.00
C281   C     0.67805   0.04835   0.13473   0.00000  Uiso   1.00
C282   C     0.90723   0.17553   0.47829   0.00000  Uiso   1.00
C283   C     0.94809   0.23720   0.17607   0.00000  Uiso   1.00
C284   C     0.95241   0.28124   0.14843   0.00000  Uiso   1.00
C285   C     0.93655   0.27354   0.10104   0.00000  Uiso   1.00
C286   C     0.95326   0.10287   0.32939   0.00000  Uiso   1.00
C287   C     0.97846   0.07118   0.35965   0.00000  Uiso   1.00
C288   C     0.98034   0.08986   0.40718   0.00000  Uiso   1.00
C289   C     0.71745   0.26632   0.29011   0.00000  Uiso   1.00
C290   C     0.68128   0.28576   0.31592   0.00000  Uiso   1.00
C291   C     0.69463   0.29723   0.36357   0.00000  Uiso   1.00
C292   C     0.68683   0.12508   0.25559   0.00000  Uiso   1.00
C293   C     0.97872   0.20807   0.23864   0.00000  Uiso   1.00
C294   C     0.97861   0.12751   0.26359   0.00000  Uiso   1.00
C295   C     0.68741   0.20976   0.24625   0.00000  Uiso   1.00
C296   C     0.95700   0.16753   0.25054   0.00000  Uiso   1.00
Cu297  Cu    0.83333   0.21355   0.25000   0.00000  Uiso   1.00
Cu298  Cu    0.83333   0.11978   0.25000   0.00000  Uiso   1.00
H299   H     0.79787   0.04289   0.19070   0.00000  Uiso   1.00
H300   H     0.94307   0.12459   0.05668   0.00000  Uiso   1.00
H301   H     0.68506   0.25163   0.04322   0.00000  Uiso   1.00
H302   H     0.72223   0.25453   0.00101   0.00000  Uiso   1.00
H303   H     0.73386   0.27006   0.10208   0.00000  Uiso   1.00
H304   H     0.77661   0.26465   0.06547   0.00000  Uiso   1.00
H305   H     0.75403   0.33188   0.02132   0.00000  Uiso   1.00
H306   H     0.75773   0.01467   0.07916   0.00000  Uiso   1.00
H307   H     0.70815   0.00386   0.05348   0.00000  Uiso   1.00
H308   H     0.98927   0.23518   0.46121   0.00000  Uiso   1.00
H309   H     0.95482   0.23791   0.00617   0.00000  Uiso   1.00
H310   H     0.87031   0.29040   0.30828   0.00000  Uiso   1.00
H311   H     0.93877   0.26611   0.40835   0.00000  Uiso   1.00
H312   H     0.89926   0.26473   0.44928   0.00000  Uiso   1.00
H313   H     0.93582   0.32265   0.49584   0.00000  Uiso   1.00
H314   H     0.92850   0.01110   0.44023   0.00000  Uiso   1.00
H315   H     0.97815   0.32332   0.45807   0.00000  Uiso   1.00
H316   H     0.72734   0.03505   0.20890   0.00000  Uiso   1.00
H317   H     0.72872   0.09438   0.19092   0.00000  Uiso   1.00
H318   H     0.98614   0.03031   0.19873   0.00000  Uiso   1.00
H319   H     0.98331   0.09108   0.18349   0.00000  Uiso   1.00
H320   H     0.69345   0.07836   0.11861   0.00000  Uiso   1.00
H321   H     0.86991   0.04365   0.30854   0.00000  Uiso   1.00
H322   H     0.98217   0.04124   0.11664   0.00000  Uiso   1.00
H323   H     0.69800   0.01724   0.13265   0.00000  Uiso   1.00
H324   H     0.91558   0.22615   0.17466   0.00000  Uiso   1.00
H325   H     0.96696   0.20939   0.16025   0.00000  Uiso   1.00
H326   H     0.93512   0.31023   0.16388   0.00000  Uiso   1.00
H327   H     0.98528   0.29062   0.14757   0.00000  Uiso   1.00
H328   H     0.95295   0.24404   0.08547   0.00000  Uiso   1.00
H329   H     0.94176   0.30551   0.08115   0.00000  Uiso   1.00
H330   H     0.90326   0.26566   0.10093   0.00000  Uiso   1.00
H331   H     0.92039   0.09796   0.33679   0.00000  Uiso   1.00
H332   H     0.79676   0.28959   0.19140   0.00000  Uiso   1.00
H333   H     0.96083   0.14006   0.33780   0.00000  Uiso   1.00
H334   H     0.96416   0.03597   0.35929   0.00000  Uiso   1.00
H335   H     0.67679   0.06860   0.34706   0.00000  Uiso   1.00
H336   H     0.99508   0.12488   0.40811   0.00000  Uiso   1.00
H337   H     0.99882   0.06600   0.42829   0.00000  Uiso   1.00
H338   H     0.94909   0.09247   0.42081   0.00000  Uiso   1.00
H339   H     0.74127   0.29402   0.28818   0.00000  Uiso   1.00
H340   H     0.73139   0.23709   0.30937   0.00000  Uiso   1.00
H341   H     0.66949   0.31771   0.29935   0.00000  Uiso   1.00
H342   H     0.98959   0.25946   0.31699   0.00000  Uiso   1.00
H343   H     0.90175   0.19158   0.35451   0.00000  Uiso   1.00
H344   H     0.70872   0.26628   0.37962   0.00000  Uiso   1.00
H345   H     0.66780   0.30718   0.38326   0.00000  Uiso   1.00
H346   H     0.71704   0.32651   0.36405   0.00000  Uiso   1.00
H347   H     0.76158   0.16259   0.14616   0.00000  Uiso   1.00
H348   H     0.76327   0.14491   0.35260   0.00000  Uiso   1.00
H349   H     0.90280   0.14368   0.14674   0.00000  Uiso   1.00
H350   H     0.72404   0.20419   0.43110   0.00000  Uiso   1.00
N351   N     0.83333   0.28402   0.25000   0.00000  Uiso   1.00
N352   N     0.83333   0.04931   0.25000   0.00000  Uiso   1.00
O353   O     0.77321   0.20625   0.24999   0.00000  Uiso   1.00
O354   O     0.75845   0.17143   0.11463   0.00000  Uiso   1.00
O355   O     0.75880   0.15262   0.38413   0.00000  Uiso   1.00
O356   O     0.90719   0.15670   0.11684   0.00000  Uiso   1.00
O357   O     0.72083   0.18036   0.45456   0.00000  Uiso   1.00
O358   O     0.94506   0.15604   0.04317   0.00000  Uiso   1.00
O359   O     0.72397   0.19568   0.04340   0.00000  Uiso   1.00
O360   O     0.94383   0.18573   0.45782   0.00000  Uiso   1.00
O361   O     0.70451   0.08132   0.25400   0.00000  Uiso   1.00
O362   O     0.95967   0.24696   0.22077   0.00000  Uiso   1.00
O363   O     0.95961   0.09049   0.28432   0.00000  Uiso   1.00
O364   O     0.89345   0.12709   0.25000   0.00000  Uiso   1.00
O365   O     0.70643   0.25314   0.24597   0.00000  Uiso   1.00
O366   O     0.89345   0.20625   0.25000   0.00000  Uiso   1.00
O367   O     0.77321   0.12709   0.24999   0.00000  Uiso   1.00
O368   O     0.83332   0.20627   0.18513   0.00000  Uiso   1.00
O369   O     0.83334   0.12707   0.31487   0.00000  Uiso   1.00
O370   O     0.83334   0.20627   0.31487   0.00000  Uiso   1.00
O371   O     0.83332   0.12707   0.18513   0.00000  Uiso   1.00
O372   O     0.90644   0.18062   0.38522   0.00000  Uiso   1.00
C373   C     0.08730   0.50001   0.24997   0.00000  Uiso   1.00
C374   C     0.04248   0.50043   0.25046   0.00000  Uiso   1.00
C375   C     0.14681   0.35785   0.21723   0.00000  Uiso   1.00
C376   C     0.18712   0.64212   0.28237   0.00000  Uiso   1.00
C377   C     0.18698   0.35831   0.28246   0.00000  Uiso   1.00
C378   C     0.14647   0.64166   0.21744   0.00000  Uiso   1.00
C379   C     0.16679   0.49981   0.16461   0.00000  Uiso   1.00
C380   C     0.16610   0.50014   0.33537   0.00000  Uiso   1.00
C381   C     0.20315   0.50817   0.40698   0.00000  Uiso   1.00
C382   C     0.12893   0.50364   0.09305   0.00000  Uiso   1.00
C383   C     0.16595   0.50098   0.38354   0.00000  Uiso   1.00
C384   C     0.24585   0.50022   0.25022   0.00000  Uiso   1.00
C385   C     0.16641   0.49885   0.11642   0.00000  Uiso   1.00
C386   C     0.12859   0.49682   0.40610   0.00000  Uiso   1.00
C387   C     0.20373   0.49462   0.09390   0.00000  Uiso   1.00
C388   C     0.12841   0.50337   0.45252   0.00000  Uiso   1.00
C389   C     0.20390   0.49759   0.04720   0.00000  Uiso   1.00
C390   C     0.16608   0.50410   0.47650   0.00000  Uiso   1.00
C391   C     0.16632   0.50276   0.02346   0.00000  Uiso   1.00
C392   C     0.20351   0.50667   0.45368   0.00000  Uiso   1.00
C393   C     0.12900   0.50657   0.04639   0.00000  Uiso   1.00
C394   C     0.09155   0.50958   0.47583   0.00000  Uiso   1.00
C395   C     0.09246   0.51484   0.02204   0.00000  Uiso   1.00
C396   C     0.24094   0.49793   0.02341   0.00000  Uiso   1.00
C397   C     0.05086   0.57745   0.03615   0.00000  Uiso   1.00
C398   C     0.07731   0.60807   0.06732   0.00000  Uiso   1.00
C399   C     0.07399   0.65948   0.05452   0.00000  Uiso   1.00
C400   C     0.28994   0.56488   0.46983   0.00000  Uiso   1.00
C401   C     0.26594   0.60252   0.44440   0.00000  Uiso   1.00
C402   C     0.27799   0.65126   0.46067   0.00000  Uiso   1.00
C403   C     0.04333   0.40160   0.20893   0.00000  Uiso   1.00
C404   C     0.00296   0.39295   0.18319   0.00000  Uiso   1.00
C405   C     0.01138   0.38168   0.13473   0.00000  Uiso   1.00
C406   C     0.24056   0.50886   0.47829   0.00000  Uiso   1.00
C407   C     0.28143   0.57053   0.17607   0.00000  Uiso   1.00
C408   C     0.28574   0.61457   0.14843   0.00000  Uiso   1.00
C409   C     0.26988   0.60687   0.10104   0.00000  Uiso   1.00
C410   C     0.28659   0.43620   0.32939   0.00000  Uiso   1.00
C411   C     0.31179   0.40452   0.35965   0.00000  Uiso   1.00
C412   C     0.31367   0.42319   0.40718   0.00000  Uiso   1.00
C413   C     0.05079   0.59965   0.29011   0.00000  Uiso   1.00
C414   C     0.01462   0.61909   0.31592   0.00000  Uiso   1.00
C415   C     0.02797   0.63057   0.36357   0.00000  Uiso   1.00
C416   C     0.02017   0.45841   0.25559   0.00000  Uiso   1.00
C417   C     0.31206   0.54141   0.23864   0.00000  Uiso   1.00
C418   C     0.31195   0.46085   0.26359   0.00000  Uiso   1.00
C419   C     0.02075   0.54309   0.24625   0.00000  Uiso   1.00
C420   C     0.29033   0.50087   0.25054   0.00000  Uiso   1.00
Cu421  Cu    0.16667   0.54689   0.25000   0.00000  Uiso   1.00
Cu422  Cu    0.16667   0.45311   0.25000   0.00000  Uiso   1.00
H423   H     0.13120   0.37623   0.19070   0.00000  Uiso   1.00
H424   H     0.27641   0.45792   0.05668   0.00000  Uiso   1.00
H425   H     0.01839   0.58497   0.04322   0.00000  Uiso   1.00
H426   H     0.05557   0.58786   0.00101   0.00000  Uiso   1.00
H427   H     0.06719   0.60339   0.10208   0.00000  Uiso   1.00
H428   H     0.10995   0.59798   0.06547   0.00000  Uiso   1.00
H429   H     0.08736   0.66521   0.02132   0.00000  Uiso   1.00
H430   H     0.09106   0.34800   0.07916   0.00000  Uiso   1.00
H431   H     0.04149   0.33719   0.05348   0.00000  Uiso   1.00
H432   H     0.32261   0.56851   0.46121   0.00000  Uiso   1.00
H433   H     0.28815   0.57125   0.00617   0.00000  Uiso   1.00
H434   H     0.20365   0.62374   0.30828   0.00000  Uiso   1.00
H435   H     0.27210   0.59945   0.40835   0.00000  Uiso   1.00
H436   H     0.23259   0.59806   0.44928   0.00000  Uiso   1.00
H437   H     0.26915   0.65599   0.49584   0.00000  Uiso   1.00
H438   H     0.26183   0.34443   0.44023   0.00000  Uiso   1.00
H439   H     0.31149   0.65666   0.45807   0.00000  Uiso   1.00
H440   H     0.06067   0.36839   0.20890   0.00000  Uiso   1.00
H441   H     0.06205   0.42771   0.19092   0.00000  Uiso   1.00
H442   H     0.31948   0.36364   0.19873   0.00000  Uiso   1.00
H443   H     0.31664   0.42441   0.18349   0.00000  Uiso   1.00
H444   H     0.02678   0.41169   0.11861   0.00000  Uiso   1.00
H445   H     0.20325   0.37698   0.30854   0.00000  Uiso   1.00
H446   H     0.31550   0.37457   0.11664   0.00000  Uiso   1.00
H447   H     0.03133   0.35058   0.13265   0.00000  Uiso   1.00
H448   H     0.24892   0.55948   0.17466   0.00000  Uiso   1.00
H449   H     0.30029   0.54272   0.16025   0.00000  Uiso   1.00
H450   H     0.26845   0.64356   0.16388   0.00000  Uiso   1.00
H451   H     0.31862   0.62395   0.14757   0.00000  Uiso   1.00
H452   H     0.28628   0.57737   0.08547   0.00000  Uiso   1.00
H453   H     0.27510   0.63884   0.08115   0.00000  Uiso   1.00
H454   H     0.23659   0.59900   0.10093   0.00000  Uiso   1.00
H455   H     0.25372   0.43130   0.33679   0.00000  Uiso   1.00
H456   H     0.13009   0.62292   0.19140   0.00000  Uiso   1.00
H457   H     0.29417   0.47339   0.33780   0.00000  Uiso   1.00
H458   H     0.29749   0.36931   0.35929   0.00000  Uiso   1.00
H459   H     0.01012   0.40193   0.34706   0.00000  Uiso   1.00
H460   H     0.32842   0.45822   0.40811   0.00000  Uiso   1.00
H461   H     0.33215   0.39933   0.42829   0.00000  Uiso   1.00
H462   H     0.28242   0.42580   0.42081   0.00000  Uiso   1.00
H463   H     0.07461   0.62735   0.28818   0.00000  Uiso   1.00
H464   H     0.06473   0.57042   0.30937   0.00000  Uiso   1.00
H465   H     0.00283   0.65105   0.29935   0.00000  Uiso   1.00
H466   H     0.32292   0.59279   0.31699   0.00000  Uiso   1.00
H467   H     0.23508   0.52491   0.35451   0.00000  Uiso   1.00
H468   H     0.04206   0.59961   0.37962   0.00000  Uiso   1.00
H469   H     0.00113   0.64051   0.38326   0.00000  Uiso   1.00
H470   H     0.05037   0.65985   0.36405   0.00000  Uiso   1.00
H471   H     0.09491   0.49592   0.14616   0.00000  Uiso   1.00
H472   H     0.09660   0.47825   0.35260   0.00000  Uiso   1.00
H473   H     0.23614   0.47702   0.14674   0.00000  Uiso   1.00
H474   H     0.05737   0.53753   0.43110   0.00000  Uiso   1.00
N475   N     0.16667   0.61736   0.25000   0.00000  Uiso   1.00
N476   N     0.16667   0.38264   0.25000   0.00000  Uiso   1.00
O477   O     0.10655   0.53958   0.24999   0.00000  Uiso   1.00
O478   O     0.09178   0.50477   0.11463   0.00000  Uiso   1.00
O479   O     0.09213   0.48595   0.38413   0.00000  Uiso   1.00
O480   O     0.24052   0.49003   0.11684   0.00000  Uiso   1.00
O481   O     0.05416   0.51370   0.45456   0.00000  Uiso   1.00
O482   O     0.27839   0.48938   0.04317   0.00000  Uiso   1.00
O483   O     0.05730   0.52901   0.04340   0.00000  Uiso   1.00
O484   O     0.27716   0.51907   0.45782   0.00000  Uiso   1.00
O485   O     0.03785   0.41465   0.25400   0.00000  Uiso   1.00
O486   O     0.29301   0.58029   0.22077   0.00000  Uiso   1.00
O487   O     0.29295   0.42382   0.28432   0.00000  Uiso   1.00
O488   O     0.22679   0.46042   0.25000   0.00000  Uiso   1.00
O489   O     0.03976   0.58647   0.24597   0.00000  Uiso   1.00
O490   O     0.22679   0.53958   0.25000   0.00000  Uiso   1.00
O491   O     0.10655   0.46042   0.24999   0.00000  Uiso   1.00
O492   O     0.16666   0.53960   0.18513   0.00000  Uiso   1.00
O493   O     0.16668   0.46040   0.31487   0.00000  Uiso   1.00
O494   O     0.16668   0.53960   0.31487   0.00000  Uiso   1.00
O495   O     0.16666   0.46040   0.18513   0.00000  Uiso   1.00
O496   O     0.23977   0.51395   0.38522   0.00000  Uiso   1.00
C497   C     0.42063   0.50001   0.24997   0.00000  Uiso   1.00
C498   C     0.37581   0.50043   0.25046   0.00000  Uiso   1.00
C499   C     0.48014   0.35785   0.21723   0.00000  Uiso   1.00
C500   C     0.52046   0.64212   0.28237   0.00000  Uiso   1.00
C501   C     0.52031   0.35831   0.28246   0.00000  Uiso   1.00
C502   C     0.47980   0.64166   0.21744   0.00000  Uiso   1.00
C503   C     0.50013   0.49981   0.16461   0.00000  Uiso   1.00
C504   C     0.49943   0.50014   0.33537   0.00000  Uiso   1.00
C505   C     0.53648   0.50817   0.40698   0.00000  Uiso   1.00
C506   C     0.46227   0.50364   0.09305   0.00000  Uiso   1.00
C507   C     0.49928   0.50098   0.38354   0.00000  Uiso   1.00
C508   C     0.57918   0.50022   0.25022   0.00000  Uiso   1.00
C509   C     0.49975   0.49885   0.11642   0.00000  Uiso   1.00
C510   C     0.46192   0.49682   0.40610   0.00000  Uiso   1.00
C511   C     0.53707   0.49462   0.09390   0.00000  Uiso   1.00
C512   C     0.46174   0.50337   0.45252   0.00000  Uiso   1.00
C513   C     0.53723   0.49759   0.04720   0.00000  Uiso   1.00
C514   C     0.49942   0.50410   0.47650   0.00000  Uiso   1.00
C515   C     0.49965   0.50276   0.02346   0.00000  Uiso   1.00
C516   C     0.53684   0.50667   0.45368   0.00000  Uiso   1.00
C517   C     0.46233   0.50657   0.04639   0.00000  Uiso   1.00
C518   C     0.42488   0.50958   0.47583   0.00000  Uiso   1.00
C519   C     0.42579   0.51484   0.02204   0.00000  Uiso   1.00
C520   C     0.57428   0.49793   0.02341   0.00000  Uiso   1.00
C521   C     0.38419   0.57745   0.03615   0.00000  Uiso   1.00
C522   C     0.41064   0.60807   0.06732   0.00000  Uiso   1.00
C523   C     0.40733   0.65948   0.05452   0.00000  Uiso   1.00
C524   C     0.62328   0.56488   0.46983   0.00000  Uiso   1.00
C525   C     0.59927   0.60252   0.44440   0.00000  Uiso   1.00
C526   C     0.61132   0.65126   0.46067   0.00000  Uiso   1.00
C527   C     0.37666   0.40160   0.20893   0.00000  Uiso   1.00
C528   C     0.33629   0.39295   0.18319   0.00000  Uiso   1.00
C529   C     0.34471   0.38168   0.13473   0.00000  Uiso   1.00
C530   C     0.57390   0.50886   0.47829   0.00000  Uiso   1.00
C531   C     0.61476   0.57053   0.17607   0.00000  Uiso   1.00
C532   C     0.61908   0.61457   0.14843   0.00000  Uiso   1.00
C533   C     0.60322   0.60687   0.10104   0.00000  Uiso   1.00
C534   C     0.61993   0.43620   0.32939   0.00000  Uiso   1.00
C535   C     0.64513   0.40452   0.35965   0.00000  Uiso   1.00
C536   C     0.64701   0.42319   0.40718   0.00000  Uiso   1.00
C537   C     0.38412   0.59965   0.29011   0.00000  Uiso   1.00
C538   C     0.34795   0.61909   0.31592   0.00000  Uiso   1.00
C539   C     0.36130   0.63057   0.36357   0.00000  Uiso   1.00
C540   C     0.35350   0.45841   0.25559   0.00000  Uiso   1.00
C541   C     0.64539   0.54141   0.23864   0.00000  Uiso   1.00
C542   C     0.64528   0.46085   0.26359   0.00000  Uiso   1.00
C543   C     0.35408   0.54309   0.24625   0.00000  Uiso   1.00
C544   C     0.62367   0.50087   0.25054   0.00000  Uiso   1.00
Cu545  Cu    0.50000   0.54689   0.25000   0.00000  Uiso   1.00
Cu546  Cu    0.50000   0.45311   0.25000   0.00000  Uiso   1.00
H547   H     0.46454   0.37623   0.19070   0.00000  Uiso   1.00
H548   H     0.60974   0.45792   0.05668   0.00000  Uiso   1.00
H549   H     0.35172   0.58497   0.04322   0.00000  Uiso   1.00
H550   H     0.38890   0.58786   0.00101   0.00000  Uiso   1.00
H551   H     0.40053   0.60339   0.10208   0.00000  Uiso   1.00
H552   H     0.44328   0.59798   0.06547   0.00000  Uiso   1.00
H553   H     0.42070   0.66521   0.02132   0.00000  Uiso   1.00
H554   H     0.42440   0.34800   0.07916   0.00000  Uiso   1.00
H555   H     0.37482   0.33719   0.05348   0.00000  Uiso   1.00
H556   H     0.65594   0.56851   0.46121   0.00000  Uiso   1.00
H557   H     0.62149   0.57125   0.00617   0.00000  Uiso   1.00
H558   H     0.53698   0.62374   0.30828   0.00000  Uiso   1.00
H559   H     0.60543   0.59945   0.40835   0.00000  Uiso   1.00
H560   H     0.56592   0.59806   0.44928   0.00000  Uiso   1.00
H561   H     0.60248   0.65599   0.49584   0.00000  Uiso   1.00
H562   H     0.59516   0.34443   0.44023   0.00000  Uiso   1.00
H563   H     0.64482   0.65666   0.45807   0.00000  Uiso   1.00
H564   H     0.39400   0.36839   0.20890   0.00000  Uiso   1.00
H565   H     0.39539   0.42771   0.19092   0.00000  Uiso   1.00
H566   H     0.65281   0.36364   0.19873   0.00000  Uiso   1.00
H567   H     0.64997   0.42441   0.18349   0.00000  Uiso   1.00
H568   H     0.36012   0.41169   0.11861   0.00000  Uiso   1.00
H569   H     0.53658   0.37698   0.30854   0.00000  Uiso   1.00
H570   H     0.64883   0.37457   0.11664   0.00000  Uiso   1.00
H571   H     0.36466   0.35058   0.13265   0.00000  Uiso   1.00
H572   H     0.58225   0.55948   0.17466   0.00000  Uiso   1.00
H573   H     0.63363   0.54272   0.16025   0.00000  Uiso   1.00
H574   H     0.60179   0.64356   0.16388   0.00000  Uiso   1.00
H575   H     0.65195   0.62395   0.14757   0.00000  Uiso   1.00
H576   H     0.61961   0.57737   0.08547   0.00000  Uiso   1.00
H577   H     0.60843   0.63884   0.08115   0.00000  Uiso   1.00
H578   H     0.56992   0.59900   0.10093   0.00000  Uiso   1.00
H579   H     0.58706   0.43130   0.33679   0.00000  Uiso   1.00
H580   H     0.46342   0.62292   0.19140   0.00000  Uiso   1.00
H581   H     0.62750   0.47339   0.33780   0.00000  Uiso   1.00
H582   H     0.63083   0.36931   0.35929   0.00000  Uiso   1.00
H583   H     0.34345   0.40193   0.34706   0.00000  Uiso   1.00
H584   H     0.66175   0.45822   0.40811   0.00000  Uiso   1.00
H585   H     0.66548   0.39933   0.42829   0.00000  Uiso   1.00
H586   H     0.61576   0.42580   0.42081   0.00000  Uiso   1.00
H587   H     0.40794   0.62735   0.28818   0.00000  Uiso   1.00
H588   H     0.39806   0.57042   0.30937   0.00000  Uiso   1.00
H589   H     0.33616   0.65105   0.29935   0.00000  Uiso   1.00
H590   H     0.65625   0.59279   0.31699   0.00000  Uiso   1.00
H591   H     0.56841   0.52491   0.35451   0.00000  Uiso   1.00
H592   H     0.37539   0.59961   0.37962   0.00000  Uiso   1.00
H593   H     0.33447   0.64051   0.38326   0.00000  Uiso   1.00
H594   H     0.38371   0.65985   0.36405   0.00000  Uiso   1.00
H595   H     0.42824   0.49592   0.14616   0.00000  Uiso   1.00
H596   H     0.42993   0.47825   0.35260   0.00000  Uiso   1.00
H597   H     0.56947   0.47702   0.14674   0.00000  Uiso   1.00
H598   H     0.39070   0.53753   0.43110   0.00000  Uiso   1.00
N599   N     0.50000   0.61736   0.25000   0.00000  Uiso   1.00
N600   N     0.50000   0.38264   0.25000   0.00000  Uiso   1.00
O601   O     0.43988   0.53958   0.24999   0.00000  Uiso   1.00
O602   O     0.42512   0.50477   0.11463   0.00000  Uiso   1.00
O603   O     0.42546   0.48595   0.38413   0.00000  Uiso   1.00
O604   O     0.57385   0.49003   0.11684   0.00000  Uiso   1.00
O605   O     0.38749   0.51370   0.45456   0.00000  Uiso   1.00
O606   O     0.61173   0.48938   0.04317   0.00000  Uiso   1.00
O607   O     0.39064   0.52901   0.04340   0.00000  Uiso   1.00
O608   O     0.61050   0.51907   0.45782   0.00000  Uiso   1.00
O609   O     0.37118   0.41465   0.25400   0.00000  Uiso   1.00
O610   O     0.62634   0.58029   0.22077   0.00000  Uiso   1.00
O611   O     0.62628   0.42382   0.28432   0.00000  Uiso   1.00
O612   O     0.56012   0.46042   0.25000   0.00000  Uiso   1.00
O613   O     0.37310   0.58647   0.24597   0.00000  Uiso   1.00
O614   O     0.56012   0.53958   0.25000   0.00000  Uiso   1.00
O615   O     0.43988   0.46042   0.24999   0.00000  Uiso   1.00
O616   O     0.49999   0.53960   0.18513   0.00000  Uiso   1.00
O617   O     0.50001   0.46040   0.31487   0.00000  Uiso   1.00
O618   O     0.50001   0.53960   0.31487   0.00000  Uiso   1.00
O619   O     0.49999   0.46040   0.18513   0.00000  Uiso   1.00
O620   O     0.57310   0.51395   0.38522   0.00000  Uiso   1.00
C621   C     0.75396   0.50001   0.24997   0.00000  Uiso   1.00
C622   C     0.70915   0.50043   0.25046   0.00000  Uiso   1.00
C623   C     0.81348   0.35785   0.21723   0.00000  Uiso   1.00
C624   C     0.85379   0.64212   0.28237   0.00000  Uiso   1.00
C625   C     0.85364   0.35831   0.28246   0.00000  Uiso   1.00
C626   C     0.81313   0.64166   0.21744   0.00000  Uiso   1.00
C627   C     0.83346   0.49981   0.16461   0.00000  Uiso   1.00
C628   C     0.83277   0.50014   0.33537   0.00000  Uiso   1.00
C629   C     0.86981   0.50817   0.40698   0.00000  Uiso   1.00
C630   C     0.79560   0.50364   0.09305   0.00000  Uiso   1.00
C631   C     0.83262   0.50098   0.38354   0.00000  Uiso   1.00
C632   C     0.91252   0.50022   0.25022   0.00000  Uiso   1.00
C633   C     0.83308   0.49885   0.11642   0.00000  Uiso   1.00
C634   C     0.79525   0.49682   0.40610   0.00000  Uiso   1.00
C635   C     0.87040   0.49462   0.09390   0.00000  Uiso   1.00
C636   C     0.79508   0.50337   0.45252   0.00000  Uiso   1.00
C637   C     0.87056   0.49759   0.04720   0.00000  Uiso   1.00
C638   C     0.83275   0.50410   0.47650   0.00000  Uiso   1.00
C639   C     0.83298   0.50276   0.02346   0.00000  Uiso   1.00
C640   C     0.87017   0.50667   0.45368   0.00000  Uiso   1.00
C641   C     0.79566   0.50657   0.04639   0.00000  Uiso   1.00
C642   C     0.75822   0.50958   0.47583   0.00000  Uiso   1.00
C643   C     0.75912   0.51484   0.02204   0.00000  Uiso   1.00
C644   C     0.90761   0.49793   0.02341   0.00000  Uiso   1.00
C645   C     0.71752   0.57745   0.03615   0.00000  Uiso   1.00
C646   C     0.74398   0.60807   0.06732   0.00000  Uiso   1.00
C647   C     0.74066   0.65948   0.05452   0.00000  Uiso   1.00
C648   C     0.95661   0.56488   0.46983   0.00000  Uiso   1.00
C649   C     0.93261   0.60252   0.44440   0.00000  Uiso   1.00
C650   C     0.94465   0.65126   0.46067   0.00000  Uiso   1.00
C651   C     0.70999   0.40160   0.20893   0.00000  Uiso   1.00
C652   C     0.66962   0.39295   0.18319   0.00000  Uiso   1.00
C653   C     0.67805   0.38168   0.13473   0.00000  Uiso   1.00
C654   C     0.90723   0.50886   0.47829   0.00000  Uiso   1.00
C655   C     0.94809   0.57053   0.17607   0.00000  Uiso   1.00
C656   C     0.95241   0.61457   0.14843   0.00000  Uiso   1.00
C657   C     0.93655   0.60687   0.10104   0.00000  Uiso   1.00
C658   C     0.95326   0.43620   0.32939   0.00000  Uiso   1.00
C659   C     0.97846   0.40452   0.35965   0.00000  Uiso   1.00
C660   C     0.98034   0.42319   0.40718   0.00000  Uiso   1.00
C661   C     0.71745   0.59965   0.29011   0.00000  Uiso   1.00
C662   C     0.68128   0.61909   0.31592   0.00000  Uiso   1.00
C663   C     0.69463   0.63057   0.36357   0.00000  Uiso   1.00
C664   C     0.68683   0.45841   0.25559   0.00000  Uiso   1.00
C665   C     0.97872   0.54141   0.23864   0.00000  Uiso   1.00
C666   C     0.97861   0.46085   0.26359   0.00000  Uiso   1.00
C667   C     0.68741   0.54309   0.24625   0.00000  Uiso   1.00
C668   C     0.95700   0.50087   0.25054   0.00000  Uiso   1.00
Cu669  Cu    0.83333   0.54689   0.25000   0.00000  Uiso   1.00
Cu670  Cu    0.83333   0.45311   0.25000   0.00000  Uiso   1.00
H671   H     0.79787   0.37623   0.19070   0.00000  Uiso   1.00
H672   H     0.94307   0.45792   0.05668   0.00000  Uiso   1.00
H673   H     0.68506   0.58497   0.04322   0.00000  Uiso   1.00
H674   H     0.72223   0.58786   0.00101   0.00000  Uiso   1.00
H675   H     0.73386   0.60339   0.10208   0.00000  Uiso   1.00
H676   H     0.77661   0.59798   0.06547   0.00000  Uiso   1.00
H677   H     0.75403   0.66521   0.02132   0.00000  Uiso   1.00
H678   H     0.75773   0.34800   0.07916   0.00000  Uiso   1.00
H679   H     0.70815   0.33719   0.05348   0.00000  Uiso   1.00
H680   H     0.98927   0.56851   0.46121   0.00000  Uiso   1.00
H681   H     0.95482   0.57125   0.00617   0.00000  Uiso   1.00
H682   H     0.87031   0.62374   0.30828   0.00000  Uiso   1.00
H683   H     0.93877   0.59945   0.40835   0.00000  Uiso   1.00
H684   H     0.89926   0.59806   0.44928   0.00000  Uiso   1.00
H685   H     0.93582   0.65599   0.49584   0.00000  Uiso   1.00
H686   H     0.92850   0.34443   0.44023   0.00000  Uiso   1.00
H687   H     0.97815   0.65666   0.45807   0.00000  Uiso   1.00
H688   H     0.72734   0.36839   0.20890   0.00000  Uiso   1.00
H689   H     0.72872   0.42771   0.19092   0.00000  Uiso   1.00
H690   H     0.98614   0.36364   0.19873   0.00000  Uiso   1.00
H691   H     0.98331   0.42441   0.18349   0.00000  Uiso   1.00
H692   H     0.69345   0.41169   0.11861   0.00000  Uiso   1.00
H693   H     0.86991   0.37698   0.30854   0.00000  Uiso   1.00
H694   H     0.98217   0.37457   0.11664   0.00000  Uiso   1.00
H695   H     0.69800   0.35058   0.13265   0.00000  Uiso   1.00
H696   H     0.91558   0.55948   0.17466   0.00000  Uiso   1.00
H697   H     0.96696   0.54272   0.16025   0.00000  Uiso   1.00
H698   H     0.93512   0.64356   0.16388   0.00000  Uiso   1.00
H699   H     0.98528   0.62395   0.14757   0.00000  Uiso   1.00
H700   H     0.95295   0.57737   0.08547   0.00000  Uiso   1.00
H701   H     0.94176   0.63884   0.08115   0.00000  Uiso   1.00
H702   H     0.90326   0.59900   0.10093   0.00000  Uiso   1.00
H703   H     0.92039   0.43130   0.33679   0.00000  Uiso   1.00
H704   H     0.79676   0.62292   0.19140   0.00000  Uiso   1.00
H705   H     0.96083   0.47339   0.33780   0.00000  Uiso   1.00
H706   H     0.96416   0.36931   0.35929   0.00000  Uiso   1.00
H707   H     0.67679   0.40193   0.34706   0.00000  Uiso   1.00
H708   H     0.99508   0.45822   0.40811   0.00000  Uiso   1.00
H709   H     0.99882   0.39933   0.42829   0.00000  Uiso   1.00
H710   H     0.94909   0.42580   0.42081   0.00000  Uiso   1.00
H711   H     0.74127   0.62735   0.28818   0.00000  Uiso   1.00
H712   H     0.73139   0.57042   0.30937   0.00000  Uiso   1.00
H713   H     0.66949   0.65105   0.29935   0.00000  Uiso   1.00
H714   H     0.98959   0.59279   0.31699   0.00000  Uiso   1.00
H715   H     0.90175   0.52491   0.35451   0.00000  Uiso   1.00
H716   H     0.70872   0.59961   0.37962   0.00000  Uiso   1.00
H717   H     0.66780   0.64051   0.38326   0.00000  Uiso   1.00
H718   H     0.71704   0.65985   0.36405   0.00000  Uiso   1.00
H719   H     0.76158   0.49592   0.14616   0.00000  Uiso   1.00
H720   H     0.76327   0.47825   0.35260   0.00000  Uiso   1.00
H721   H     0.90280   0.47702   0.14674   0.00000  Uiso   1.00
H722   H     0.72404   0.53753   0.43110   0.00000  Uiso   1.00
N723   N     0.83333   0.61736   0.25000   0.00000  Uiso   1.00
N724   N     0.83333   0.38264   0.25000   0.00000  Uiso   1.00
O725   O     0.77321   0.53958   0.24999   0.00000  Uiso   1.00
O726   O     0.75845   0.50477   0.11463   0.00000  Uiso   1.00
O727   O     0.75880   0.48595   0.38413   0.00000  Uiso   1.00
O728   O     0.90719   0.49003   0.11684   0.00000  Uiso   1.00
O729   O     0.72083   0.51370   0.45456   0.00000  Uiso   1.00
O730   O     0.94506   0.48938   0.04317   0.00000  Uiso   1.00
O731   O     0.72397   0.52901   0.04340   0.00000  Uiso   1.00
O732   O     0.94383   0.51907   0.45782   0.00000  Uiso   1.00
O733   O     0.70451   0.41465   0.25400   0.00000  Uiso   1.00
O734   O     0.95967   0.58029   0.22077   0.00000  Uiso   1.00
O735   O     0.95961   0.42382   0.28432   0.00000  Uiso   1.00
O736   O     0.89345   0.46042   0.25000   0.00000  Uiso   1.00
O737   O     0.70643   0.58647   0.24597   0.00000  Uiso   1.00
O738   O     0.89345   0.53958   0.25000   0.00000  Uiso   1.00
O739   O     0.77321   0.46042   0.24999   0.00000  Uiso   1.00
O740   O     0.83332   0.53960   0.18513   0.00000  Uiso   1.00
O741   O     0.83334   0.46040   0.31487   0.00000  Uiso   1.00
O742   O     0.83334   0.53960   0.31487   0.00000  Uiso   1.00
O743   O     0.83332   0.46040   0.18513   0.00000  Uiso   1.00
O744   O     0.90644   0.51395   0.38522   0.00000  Uiso   1.00
C745   C     0.08730   0.83334   0.24997   0.00000  Uiso   1.00
C746   C     0.04248   0.83377   0.25046   0.00000  Uiso   1.00
C747   C     0.14681   0.69118   0.21723   0.00000  Uiso   1.00
C748   C     0.18712   0.97545   0.28237   0.00000  Uiso   1.00
C749   C     0.18698   0.69164   0.28246   0.00000  Uiso   1.00
C750   C     0.14647   0.97499   0.21744   0.00000  Uiso   1.00
C751   C     0.16679   0.83314   0.16461   0.00000  Uiso   1.00
C752   C     0.16610   0.83347   0.33537   0.00000  Uiso   1.00
C753   C     0.20315   0.84150   0.40698   0.00000  Uiso   1.00
C754   C     0.12893   0.83697   0.09305   0.00000  Uiso   1.00
C755   C     0.16595   0.83431   0.38354   0.00000  Uiso   1.00
C756   C     0.24585   0.83355   0.25022   0.00000  Uiso   1.00
C757   C     0.16641   0.83219   0.11642   0.00000  Uiso   1.00
C758   C     0.12859   0.83016   0.40610   0.00000  Uiso   1.00
C759   C     0.20373   0.82796   0.09390   0.00000  Uiso   1.00
C760   C     0.12841   0.83671   0.45252   0.00000  Uiso   1.00
C761   C     0.20390   0.83093   0.04720   0.00000  Uiso   1.00
C762   C     0.16608   0.83743   0.47650   0.00000  Uiso   1.00
C763   C     0.16632   0.83610   0.02346   0.00000  Uiso   1.00
C764   C     0.20351   0.84001   0.45368   0.00000  Uiso   1.00
C765   C     0.12900   0.83990   0.04639   0.00000  Uiso   1.00
C766   C     0.09155   0.84291   0.47583   0.00000  Uiso   1.00
C767   C     0.09246   0.84817   0.02204   0.00000  Uiso   1.00
C768   C     0.24094   0.83126   0.02341   0.00000  Uiso   1.00
C769   C     0.05086   0.91079   0.03615   0.00000  Uiso   1.00
C770   C     0.07731   0.94140   0.06732   0.00000  Uiso   1.00
C771   C     0.07399   0.99281   0.05452   0.00000  Uiso   1.00
C772   C     0.28994   0.89822   0.46983   0.00000  Uiso   1.00
C773   C     0.26594   0.93586   0.44440   0.00000  Uiso   1.00
C774   C     0.27799   0.98459   0.46067   0.00000  Uiso   1.00
C775   C     0.04333   0.73493   0.20893   0.00000  Uiso   1.00
C776   C     0.00296   0.72628   0.18319   0.00000  Uiso   1.00
C777   C     0.01138   0.71502   0.13473   0.00000  Uiso   1.00
C778   C     0.24056   0.84219   0.47829   0.00000  Uiso   1.00
C779   C     0.28143   0.90386   0.17607   0.00000  Uiso   1.00
C780   C     0.28574   0.94790   0.14843   0.00000  Uiso   1.00
C781   C     0.26988   0.94021   0.10104   0.00000  Uiso   1.00
C782   C     0.28659   0.76953   0.32939   0.00000  Uiso   1.00
C783   C     0.31179   0.73785   0.35965   0.00000  Uiso   1.00
C784   C     0.31367   0.75652   0.40718   0.00000  Uiso   1.00
C785   C     0.05079   0.93299   0.29011   0.00000  Uiso   1.00
C786   C     0.01462   0.95242   0.31592   0.00000  Uiso   1.00
C787   C     0.02797   0.96390   0.36357   0.00000  Uiso   1.00
C788   C     0.02017   0.79174   0.25559   0.00000  Uiso   1.00
C789   C     0.31206   0.87474   0.23864   0.00000  Uiso   1.00
C790   C     0.31195   0.79418   0.26359   0.00000  Uiso   1.00
C791   C     0.02075   0.87642   0.24625   0.00000  Uiso   1.00
C792   C     0.29033   0.83420   0.25054   0.00000  Uiso   1.00
Cu793  Cu    0.16667   0.88022   0.25000   0.00000  Uiso   1.00
Cu794  Cu    0.16667   0.78645   0.25000   0.00000  Uiso   1.00
H795   H     0.13120   0.70956   0.19070   0.00000  Uiso   1.00
H796   H     0.27641   0.79126   0.05668   0.00000  Uiso   1.00
H797   H     0.01839   0.91830   0.04322   0.00000  Uiso   1.00
H798   H     0.05557   0.92119   0.00101   0.00000  Uiso   1.00
H799   H     0.06719   0.93673   0.10208   0.00000  Uiso   1.00
H800   H     0.10995   0.93132   0.06547   0.00000  Uiso   1.00
H801   H     0.08736   0.99854   0.02132   0.00000  Uiso   1.00
H802   H     0.09106   0.68133   0.07916   0.00000  Uiso   1.00
H803   H     0.04149   0.67052   0.05348   0.00000  Uiso   1.00
H804   H     0.32261   0.90184   0.46121   0.00000  Uiso   1.00
H805   H     0.28815   0.90458   0.00617   0.00000  Uiso   1.00
H806   H     0.20365   0.95707   0.30828   0.00000  Uiso   1.00
H807   H     0.27210   0.93278   0.40835   0.00000  Uiso   1.00
H808   H     0.23259   0.93139   0.44928   0.00000  Uiso   1.00
H809   H     0.26915   0.98932   0.49584   0.00000  Uiso   1.00
H810   H     0.26183   0.67777   0.44023   0.00000  Uiso   1.00
H811   H     0.31149   0.98999   0.45807   0.00000  Uiso   1.00
H812   H     0.06067   0.70172   0.20890   0.00000  Uiso   1.00
H813   H     0.06205   0.76105   0.19092   0.00000  Uiso   1.00
H814   H     0.31948   0.69698   0.19873   0.00000  Uiso   1.00
H815   H     0.31664   0.75774   0.18349   0.00000  Uiso   1.00
H816   H     0.02678   0.74502   0.11861   0.00000  Uiso   1.00
H817   H     0.20325   0.71032   0.30854   0.00000  Uiso   1.00
H818   H     0.31550   0.70791   0.11664   0.00000  Uiso   1.00
H819   H     0.03133   0.68391   0.13265   0.00000  Uiso   1.00
H820   H     0.24892   0.89281   0.17466   0.00000  Uiso   1.00
H821   H     0.30029   0.87605   0.16025   0.00000  Uiso   1.00
H822   H     0.26845   0.97689   0.16388   0.00000  Uiso   1.00
H823   H     0.31862   0.95728   0.14757   0.00000  Uiso   1.00
H824   H     0.28628   0.91070   0.08547   0.00000  Uiso   1.00
H825   H     0.27510   0.97217   0.08115   0.00000  Uiso   1.00
H826   H     0.23659   0.93233   0.10093   0.00000  Uiso   1.00
H827   H     0.25372   0.76463   0.33679   0.00000  Uiso   1.00
H828   H     0.13009   0.95625   0.19140   0.00000  Uiso   1.00
H829   H     0.29417   0.80672   0.33780   0.00000  Uiso   1.00
H830   H     0.29749   0.70264   0.35929   0.00000  Uiso   1.00
H831   H     0.01012   0.73527   0.34706   0.00000  Uiso   1.00
H832   H     0.32842   0.79155   0.40811   0.00000  Uiso   1.00
H833   H     0.33215   0.73267   0.42829   0.00000  Uiso   1.00
H834   H     0.28242   0.75914   0.42081   0.00000  Uiso   1.00
H835   H     0.07461   0.96068   0.28818   0.00000  Uiso   1.00
H836   H     0.06473   0.90376   0.30937   0.00000  Uiso   1.00
H837   H     0.00283   0.98438   0.29935   0.00000  Uiso   1.00
H838   H     0.32292   0.92612   0.31699   0.00000  Uiso   1.00
H839   H     0.23508   0.85825   0.35451   0.00000  Uiso   1.00
H840   H     0.04206   0.93295   0.37962   0.00000  Uiso   1.00
H841   H     0.00113   0.97385   0.38326   0.00000  Uiso   1.00
H842   H     0.05037   0.99318   0.36405   0.00000  Uiso   1.00
H843   H     0.09491   0.82926   0.14616   0.00000  Uiso   1.00
H844   H     0.09660   0.81158   0.35260   0.00000  Uiso   1.00
H845   H     0.23614   0.81035   0.14674   0.00000  Uiso   1.00
H846   H     0.05737   0.87086   0.43110   0.00000  Uiso   1.00
N847   N     0.16667   0.95069   0.25000   0.00000  Uiso   1.00
N848   N     0.16667   0.71598   0.25000   0.00000  Uiso   1.00
O849   O     0.10655   0.87291   0.24999   0.00000  Uiso   1.00
O850   O     0.09178   0.83810   0.11463   0.00000  Uiso   1.00
O851   O     0.09213   0.81929   0.38413   0.00000  Uiso   1.00
O852   O     0.24052   0.82337   0.11684   0.00000  Uiso   1.00
O853   O     0.05416   0.84703   0.45456   0.00000  Uiso   1.00
O854   O     0.27839   0.82271   0.04317   0.00000  Uiso   1.00
O855   O     0.05730   0.86235   0.04340   0.00000  Uiso   1.00
O856   O     0.27716   0.85240   0.45782   0.00000  Uiso   1.00
O857   O     0.03785   0.74798   0.25400   0.00000  Uiso   1.00
O858   O     0.29301   0.91362   0.22077   0.00000  Uiso   1.00
O859   O     0.29295   0.75716   0.28432   0.00000  Uiso   1.00
O860   O     0.22679   0.79375   0.25000   0.00000  Uiso   1.00
O861   O     0.03976   0.91981   0.24597   0.00000  Uiso   1.00
O862   O     0.22679   0.87291   0.25000   0.00000  Uiso   1.00
O863   O     0.10655   0.79375   0.24999   0.00000  Uiso   1.00
O864   O     0.16666   0.87293   0.18513   0.00000  Uiso   1.00
O865   O     0.16668   0.79373   0.31487   0.00000  Uiso   1.00
O866   O     0.16668   0.87293   0.31487   0.00000  Uiso   1.00
O867   O     0.16666   0.79373   0.18513   0.00000  Uiso   1.00
O868   O     0.23977   0.84729   0.38522   0.00000  Uiso   1.00
C869   C     0.42063   0.83334   0.24997   0.00000  Uiso   1.00
C870   C     0.37581   0.83377   0.25046   0.00000  Uiso   1.00
C871   C     0.48014   0.69118   0.21723   0.00000  Uiso   1.00
C872   C     0.52046   0.97545   0.28237   0.00000  Uiso   1.00
C873   C     0.52031   0.69164   0.28246   0.00000  Uiso   1.00
C874   C     0.47980   0.97499   0.21744   0.00000  Uiso   1.00
C875   C     0.50013   0.83314   0.16461   0.00000  Uiso   1.00
C876   C     0.49943   0.83347   0.33537   0.00000  Uiso   1.00
C877   C     0.53648   0.84150   0.40698   0.00000  Uiso   1.00
C878   C     0.46227   0.83697   0.09305   0.00000  Uiso   1.00
C879   C     0.49928   0.83431   0.38354   0.00000  Uiso   1.00
C880   C     0.57918   0.83355   0.25022   0.00000  Uiso   1.00
C881   C     0.49975   0.83219   0.11642   0.00000  Uiso   1.00
C882   C     0.46192   0.83016   0.40610   0.00000  Uiso   1.00
C883   C     0.53707   0.82796   0.09390   0.00000  Uiso   1.00
C884   C     0.46174   0.83671   0.45252   0.00000  Uiso   1.00
C885   C     0.53723   0.83093   0.04720   0.00000  Uiso   1.00
C886   C     0.49942   0.83743   0.47650   0.00000  Uiso   1.00
C887   C     0.49965   0.83610   0.02346   0.00000  Uiso   1.00
C888   C     0.53684   0.84001   0.45368   0.00000  Uiso   1.00
C889   C     0.46233   0.83990   0.04639   0.00000  Uiso   1.00
C890   C     0.42488   0.84291   0.47583   0.00000  Uiso   1.00
C891   C     0.42579   0.84817   0.02204   0.00000  Uiso   1.00
C892   C     0.57428   0.83126   0.02341   0.00000  Uiso   1.00
C893   C     0.38419   0.91079   0.03615   0.00000  Uiso   1.00
C894   C     0.41064   0.94140   0.06732   0.00000  Uiso   1.00
C895   C     0.40733   0.99281   0.05452   0.00000  Uiso   1.00
C896   C     0.62328   0.89822   0.46983   0.00000  Uiso   1.00
C897   C     0.59927   0.93586   0.44440   0.00000  Uiso   1.00
C898   C     0.61132   0.98459   0.46067   0.00000  Uiso   1.00
C899   C     0.37666   0.73493   0.20893   0.00000  Uiso   1.00
C900   C     0.33629   0.72628   0.18319   0.00000  Uiso   1.00
C901   C     0.34471   0.71502   0.13473   0.00000  Uiso   1.00
C902   C     0.57390   0.84219   0.47829   0.00000  Uiso   1.00
C903   C     0.61476   0.90386   0.17607   0.00000  Uiso   1.00
C904   C     0.61908   0.94790   0.14843   0.00000  Uiso   1.00
C905   C     0.60322   0.94021   0.10104   0.00000  Uiso   1.00
C906   C     0.61993   0.76953   0.32939   0.00000  Uiso   1.00
C907   C     0.64513   0.73785   0.35965   0.00000  Uiso   1.00
C908   C     0.64701   0.75652   0.40718   0.00000  Uiso   1.00
C909   C     0.38412   0.93299   0.29011   0.00000  Uiso   1.00
C910   C     0.34795   0.95242   0.31592   0.00000  Uiso   1.00
C911   C     0.36130   0.96390   0.36357   0.00000  Uiso   1.00
C912   C     0.35350   0.79174   0.25559   0.00000  Uiso   1.00
C913   C     0.64539   0.87474   0.23864   0.00000  Uiso   1.00
C914   C     0.64528   0.79418   0.26359   0.00000  Uiso   1.00
C915   C     0.35408   0.87642   0.24625   0.00000  Uiso   1.00
C916   C     0.62367   0.83420   0.25054   0.00000  Uiso   1.00
Cu917  Cu    0.50000   0.88022   0.25000   0.00000  Uiso   1.00
Cu918  Cu    0.50000   0.78645   0.25000   0.00000  Uiso   1.00
H919   H     0.46454   0.70956   0.19070   0.00000  Uiso   1.00
H920   H     0.60974   0.79126   0.05668   0.00000  Uiso   1.00
H921   H     0.35172   0.91830   0.04322   0.00000  Uiso   1.00
H922   H     0.38890   0.92119   0.00101   0.00000  Uiso   1.00
H923   H     0.40053   0.93673   0.10208   0.00000  Uiso   1.00
H924   H     0.44328   0.93132   0.06547   0.00000  Uiso   1.00
H925   H     0.42070   0.99854   0.02132   0.00000  Uiso   1.00
H926   H     0.42440   0.68133   0.07916   0.00000  Uiso   1.00
H927   H     0.37482   0.67052   0.05348   0.00000  Uiso   1.00
H928   H     0.65594   0.90184   0.46121   0.00000  Uiso   1.00
H929   H     0.62149   0.90458   0.00617   0.00000  Uiso   1.00
H930   H     0.53698   0.95707   0.30828   0.00000  Uiso   1.00
H931   H     0.60543   0.93278   0.40835   0.00000  Uiso   1.00
H932   H     0.56592   0.93139   0.44928   0.00000  Uiso   1.00
H933   H     0.60248   0.98932   0.49584   0.00000  Uiso   1.00
H934   H     0.59516   0.67777   0.44023   0.00000  Uiso   1.00
H935   H     0.64482   0.98999   0.45807   0.00000  Uiso   1.00
H936   H     0.39400   0.70172   0.20890   0.00000  Uiso   1.00
H937   H     0.39539   0.76105   0.19092   0.00000  Uiso   1.00
H938   H     0.65281   0.69698   0.19873   0.00000  Uiso   1.00
H939   H     0.64997   0.75774   0.18349   0.00000  Uiso   1.00
H940   H     0.36012   0.74502   0.11861   0.00000  Uiso   1.00
H941   H     0.53658   0.71032   0.30854   0.00000  Uiso   1.00
H942   H     0.64883   0.70791   0.11664   0.00000  Uiso   1.00
H943   H     0.36466   0.68391   0.13265   0.00000  Uiso   1.00
H944   H     0.58225   0.89281   0.17466   0.00000  Uiso   1.00
H945   H     0.63363   0.87605   0.16025   0.00000  Uiso   1.00
H946   H     0.60179   0.97689   0.16388   0.00000  Uiso   1.00
H947   H     0.65195   0.95728   0.14757   0.00000  Uiso   1.00
H948   H     0.61961   0.91070   0.08547   0.00000  Uiso   1.00
H949   H     0.60843   0.97217   0.08115   0.00000  Uiso   1.00
H950   H     0.56992   0.93233   0.10093   0.00000  Uiso   1.00
H951   H     0.58706   0.76463   0.33679   0.00000  Uiso   1.00
H952   H     0.46342   0.95625   0.19140   0.00000  Uiso   1.00
H953   H     0.62750   0.80672   0.33780   0.00000  Uiso   1.00
H954   H     0.63083   0.70264   0.35929   0.00000  Uiso   1.00
H955   H     0.34345   0.73527   0.34706   0.00000  Uiso   1.00
H956   H     0.66175   0.79155   0.40811   0.00000  Uiso   1.00
H957   H     0.66548   0.73267   0.42829   0.00000  Uiso   1.00
H958   H     0.61576   0.75914   0.42081   0.00000  Uiso   1.00
H959   H     0.40794   0.96068   0.28818   0.00000  Uiso   1.00
H960   H     0.39806   0.90376   0.30937   0.00000  Uiso   1.00
H961   H     0.33616   0.98438   0.29935   0.00000  Uiso   1.00
H962   H     0.65625   0.92612   0.31699   0.00000  Uiso   1.00
H963   H     0.56841   0.85825   0.35451   0.00000  Uiso   1.00
H964   H     0.37539   0.93295   0.37962   0.00000  Uiso   1.00
H965   H     0.33447   0.97385   0.38326   0.00000  Uiso   1.00
H966   H     0.38371   0.99318   0.36405   0.00000  Uiso   1.00
H967   H     0.42824   0.82926   0.14616   0.00000  Uiso   1.00
H968   H     0.42993   0.81158   0.35260   0.00000  Uiso   1.00
H969   H     0.56947   0.81035   0.14674   0.00000  Uiso   1.00
H970   H     0.39070   0.87086   0.43110   0.00000  Uiso   1.00
N971   N     0.50000   0.95069   0.25000   0.00000  Uiso   1.00
N972   N     0.50000   0.71598   0.25000   0.00000  Uiso   1.00
O973   O     0.43988   0.87291   0.24999   0.00000  Uiso   1.00
O974   O     0.42512   0.83810   0.11463   0.00000  Uiso   1.00
O975   O     0.42546   0.81929   0.38413   0.00000  Uiso   1.00
O976   O     0.57385   0.82337   0.11684   0.00000  Uiso   1.00
O977   O     0.38749   0.84703   0.45456   0.00000  Uiso   1.00
O978   O     0.61173   0.82271   0.04317   0.00000  Uiso   1.00
O979   O     0.39064   0.86235   0.04340   0.00000  Uiso   1.00
O980   O     0.61050   0.85240   0.45782   0.00000  Uiso   1.00
O981   O     0.37118   0.74798   0.25400   0.00000  Uiso   1.00
O982   O     0.62634   0.91362   0.22077   0.00000  Uiso   1.00
O983   O     0.62628   0.75716   0.28432   0.00000  Uiso   1.00
O984   O     0.56012   0.79375   0.25000   0.00000  Uiso   1.00
O985   O     0.37310   0.91981   0.24597   0.00000  Uiso   1.00
O986   O     0.56012   0.87291   0.25000   0.00000  Uiso   1.00
O987   O     0.43988   0.79375   0.24999   0.00000  Uiso   1.00
O988   O     0.49999   0.87293   0.18513   0.00000  Uiso   1.00
O989   O     0.50001   0.79373   0.31487   0.00000  Uiso   1.00
O990   O     0.50001   0.87293   0.31487   0.00000  Uiso   1.00
O991   O     0.49999   0.79373   0.18513   0.00000  Uiso   1.00
O992   O     0.57310   0.84729   0.38522   0.00000  Uiso   1.00
C993   C     0.75396   0.83334   0.24997   0.00000  Uiso   1.00
C994   C     0.70915   0.83377   0.25046   0.00000  Uiso   1.00
C995   C     0.81348   0.69118   0.21723   0.00000  Uiso   1.00
C996   C     0.85379   0.97545   0.28237   0.00000  Uiso   1.00
C997   C     0.85364   0.69164   0.28246   0.00000  Uiso   1.00
C998   C     0.81313   0.97499   0.21744   0.00000  Uiso   1.00
C999   C     0.83346   0.83314   0.16461   0.00000  Uiso   1.00
C1000  C     0.83277   0.83347   0.33537   0.00000  Uiso   1.00
C1001  C     0.86981   0.84150   0.40698   0.00000  Uiso   1.00
C1002  C     0.79560   0.83697   0.09305   0.00000  Uiso   1.00
C1003  C     0.83262   0.83431   0.38354   0.00000  Uiso   1.00
C1004  C     0.91252   0.83355   0.25022   0.00000  Uiso   1.00
C1005  C     0.83308   0.83219   0.11642   0.00000  Uiso   1.00
C1006  C     0.79525   0.83016   0.40610   0.00000  Uiso   1.00
C1007  C     0.87040   0.82796   0.09390   0.00000  Uiso   1.00
C1008  C     0.79508   0.83671   0.45252   0.00000  Uiso   1.00
C1009  C     0.87056   0.83093   0.04720   0.00000  Uiso   1.00
C1010  C     0.83275   0.83743   0.47650   0.00000  Uiso   1.00
C1011  C     0.83298   0.83610   0.02346   0.00000  Uiso   1.00
C1012  C     0.87017   0.84001   0.45368   0.00000  Uiso   1.00
C1013  C     0.79566   0.83990   0.04639   0.00000  Uiso   1.00
C1014  C     0.75822   0.84291   0.47583   0.00000  Uiso   1.00
C1015  C     0.75912   0.84817   0.02204   0.00000  Uiso   1.00
C1016  C     0.90761   0.83126   0.02341   0.00000  Uiso   1.00
C1017  C     0.71752   0.91079   0.03615   0.00000  Uiso   1.00
C1018  C     0.74398   0.94140   0.06732   0.00000  Uiso   1.00
C1019  C     0.74066   0.99281   0.05452   0.00000  Uiso   1.00
C1020  C     0.95661   0.89822   0.46983   0.00000  Uiso   1.00
C1021  C     0.93261   0.93586   0.44440   0.00000  Uiso   1.00
C1022  C     0.94465   0.98459   0.46067   0.00000  Uiso   1.00
C1023  C     0.70999   0.73493   0.20893   0.00000  Uiso   1.00
C1024  C     0.66962   0.72628   0.18319   0.00000  Uiso   1.00
C1025  C     0.67805   0.71502   0.13473   0.00000  Uiso   1.00
C1026  C     0.90723   0.84219   0.47829   0.00000  Uiso   1.00
C1027  C     0.94809   0.90386   0.17607   0.00000  Uiso   1.00
C1028  C     0.95241   0.94790   0.14843   0.00000  Uiso   1.00
C1029  C     0.93655   0.94021   0.10104   0.00000  Uiso   1.00
C1030  C     0.95326   0.76953   0.32939   0.00000  Uiso   1.00
C1031  C     0.97846   0.73785   0.35965   0.00000  Uiso   1.00
C1032  C     0.98034   0.75652   0.40718   0.00000  Uiso   1.00
C1033  C     0.71745   0.93299   0.29011   0.00000  Uiso   1.00
C1034  C     0.68128   0.95242   0.31592   0.00000  Uiso   1.00
C1035  C     0.69463   0.96390   0.36357   0.00000  Uiso   1.00
C1036  C     0.68683   0.79174   0.25559   0.00000  Uiso   1.00
C1037  C     0.97872   0.87474   0.23864   0.00000  Uiso   1.00
C1038  C     0.97861   0.79418   0.26359   0.00000  Uiso   1.00
C1039  C     0.68741   0.87642   0.24625   0.00000  Uiso   1.00
C1040  C     0.95700   0.83420   0.25054   0.00000  Uiso   1.00
Cu1041 Cu    0.83333   0.88022   0.25000   0.00000  Uiso   1.00
Cu1042 Cu    0.83333   0.78645   0.25000   0.00000  Uiso   1.00
H1043  H     0.79787   0.70956   0.19070   0.00000  Uiso   1.00
H1044  H     0.94307   0.79126   0.05668   0.00000  Uiso   1.00
H1045  H     0.68506   0.91830   0.04322   0.00000  Uiso   1.00
H1046  H     0.72223   0.92119   0.00101   0.00000  Uiso   1.00
H1047  H     0.73386   0.93673   0.10208   0.00000  Uiso   1.00
H1048  H     0.77661   0.93132   0.06547   0.00000  Uiso   1.00
H1049  H     0.75403   0.99854   0.02132   0.00000  Uiso   1.00
H1050  H     0.75773   0.68133   0.07916   0.00000  Uiso   1.00
H1051  H     0.70815   0.67052   0.05348   0.00000  Uiso   1.00
H1052  H     0.98927   0.90184   0.46121   0.00000  Uiso   1.00
H1053  H     0.95482   0.90458   0.00617   0.00000  Uiso   1.00
H1054  H     0.87031   0.95707   0.30828   0.00000  Uiso   1.00
H1055  H     0.93877   0.93278   0.40835   0.00000  Uiso   1.00
H1056  H     0.89926   0.93139   0.44928   0.00000  Uiso   1.00
H1057  H     0.93582   0.98932   0.49584   0.00000  Uiso   1.00
H1058  H     0.92850   0.67777   0.44023   0.00000  Uiso   1.00
H1059  H     0.97815   0.98999   0.45807   0.00000  Uiso   1.00
H1060  H     0.72734   0.70172   0.20890   0.00000  Uiso   1.00
H1061  H     0.72872   0.76105   0.19092   0.00000  Uiso   1.00
H1062  H     0.98614   0.69698   0.19873   0.00000  Uiso   1.00
H1063  H     0.98331   0.75774   0.18349   0.00000  Uiso   1.00
H1064  H     0.69345   0.74502   0.11861   0.00000  Uiso   1.00
H1065  H     0.86991   0.71032   0.30854   0.00000  Uiso   1.00
H1066  H     0.98217   0.70791   0.11664   0.00000  Uiso   1.00
H1067  H     0.69800   0.68391   0.13265   0.00000  Uiso   1.00
H1068  H     0.91558   0.89281   0.17466   0.00000  Uiso   1.00
H1069  H     0.96696   0.87605   0.16025   0.00000  Uiso   1.00
H1070  H     0.93512   0.97689   0.16388   0.00000  Uiso   1.00
H1071  H     0.98528   0.95728   0.14757   0.00000  Uiso   1.00
H1072  H     0.95295   0.91070   0.08547   0.00000  Uiso   1.00
H1073  H     0.94176   0.97217   0.08115   0.00000  Uiso   1.00
H1074  H     0.90326   0.93233   0.10093   0.00000  Uiso   1.00
H1075  H     0.92039   0.76463   0.33679   0.00000  Uiso   1.00
H1076  H     0.79676   0.95625   0.19140   0.00000  Uiso   1.00
H1077  H     0.96083   0.80672   0.33780   0.00000  Uiso   1.00
H1078  H     0.96416   0.70264   0.35929   0.00000  Uiso   1.00
H1079  H     0.67679   0.73527   0.34706   0.00000  Uiso   1.00
H1080  H     0.99508   0.79155   0.40811   0.00000  Uiso   1.00
H1081  H     0.99882   0.73267   0.42829   0.00000  Uiso   1.00
H1082  H     0.94909   0.75914   0.42081   0.00000  Uiso   1.00
H1083  H     0.74127   0.96068   0.28818   0.00000  Uiso   1.00
H1084  H     0.73139   0.90376   0.30937   0.00000  Uiso   1.00
H1085  H     0.66949   0.98438   0.29935   0.00000  Uiso   1.00
H1086  H     0.98959   0.92612   0.31699   0.00000  Uiso   1.00
H1087  H     0.90175   0.85825   0.35451   0.00000  Uiso   1.00
H1088  H     0.70872   0.93295   0.37962   0.00000  Uiso   1.00
H1089  H     0.66780   0.97385   0.38326   0.00000  Uiso   1.00
H1090  H     0.71704   0.99318   0.36405   0.00000  Uiso   1.00
H1091  H     0.76158   0.82926   0.14616   0.00000  Uiso   1.00
H1092  H     0.76327   0.81158   0.35260   0.00000  Uiso   1.00
H1093  H     0.90280   0.81035   0.14674   0.00000  Uiso   1.00
H1094  H     0.72404   0.87086   0.43110   0.00000  Uiso   1.00
N1095  N     0.83333   0.95069   0.25000   0.00000  Uiso   1.00
N1096  N     0.83333   0.71598   0.25000   0.00000  Uiso   1.00
O1097  O     0.77321   0.87291   0.24999   0.00000  Uiso   1.00
O1098  O     0.75845   0.83810   0.11463   0.00000  Uiso   1.00
O1099  O     0.75880   0.81929   0.38413   0.00000  Uiso   1.00
O1100  O     0.90719   0.82337   0.11684   0.00000  Uiso   1.00
O1101  O     0.72083   0.84703   0.45456   0.00000  Uiso   1.00
O1102  O     0.94506   0.82271   0.04317   0.00000  Uiso   1.00
O1103  O     0.72397   0.86235   0.04340   0.00000  Uiso   1.00
O1104  O     0.94383   0.85240   0.45782   0.00000  Uiso   1.00
O1105  O     0.70451   0.74798   0.25400   0.00000  Uiso   1.00
O1106  O     0.95967   0.91362   0.22077   0.00000  Uiso   1.00
O1107  O     0.95961   0.75716   0.28432   0.00000  Uiso   1.00
O1108  O     0.89345   0.79375   0.25000   0.00000  Uiso   1.00
O1109  O     0.70643   0.91981   0.24597   0.00000  Uiso   1.00
O1110  O     0.89345   0.87291   0.25000   0.00000  Uiso   1.00
O1111  O     0.77321   0.79375   0.24999   0.00000  Uiso   1.00
O1112  O     0.83332   0.87293   0.18513   0.00000  Uiso   1.00
O1113  O     0.83334   0.79373   0.31487   0.00000  Uiso   1.00
O1114  O     0.83334   0.87293   0.31487   0.00000  Uiso   1.00
O1115  O     0.83332   0.79373   0.18513   0.00000  Uiso   1.00
O1116  O     0.90644   0.84729   0.38522   0.00000  Uiso   1.00
C1117  C     0.08730   0.16668   0.74997   0.00000  Uiso   1.00
C1118  C     0.04248   0.16710   0.75046   0.00000  Uiso   1.00
C1119  C     0.14681   0.02452   0.71723   0.00000  Uiso   1.00
C1120  C     0.18712   0.30878   0.78237   0.00000  Uiso   1.00
C1121  C     0.18698   0.02498   0.78246   0.00000  Uiso   1.00
C1122  C     0.14647   0.30832   0.71744   0.00000  Uiso   1.00
C1123  C     0.16679   0.16647   0.66461   0.00000  Uiso   1.00
C1124  C     0.16610   0.16680   0.83537   0.00000  Uiso   1.00
C1125  C     0.20315   0.17484   0.90698   0.00000  Uiso   1.00
C1126  C     0.12893   0.17030   0.59305   0.00000  Uiso   1.00
C1127  C     0.16595   0.16764   0.88354   0.00000  Uiso   1.00
C1128  C     0.24585   0.16688   0.75022   0.00000  Uiso   1.00
C1129  C     0.16641   0.16552   0.61642   0.00000  Uiso   1.00
C1130  C     0.12859   0.16349   0.90610   0.00000  Uiso   1.00
C1131  C     0.20373   0.16129   0.59390   0.00000  Uiso   1.00
C1132  C     0.12841   0.17004   0.95252   0.00000  Uiso   1.00
C1133  C     0.20390   0.16426   0.54720   0.00000  Uiso   1.00
C1134  C     0.16608   0.17077   0.97650   0.00000  Uiso   1.00
C1135  C     0.16632   0.16943   0.52346   0.00000  Uiso   1.00
C1136  C     0.20351   0.17334   0.95368   0.00000  Uiso   1.00
C1137  C     0.12900   0.17323   0.54639   0.00000  Uiso   1.00
C1138  C     0.09155   0.17625   0.97583   0.00000  Uiso   1.00
C1139  C     0.09246   0.18151   0.52204   0.00000  Uiso   1.00
C1140  C     0.24094   0.16460   0.52341   0.00000  Uiso   1.00
C1141  C     0.05086   0.24412   0.53615   0.00000  Uiso   1.00
C1142  C     0.07731   0.27474   0.56732   0.00000  Uiso   1.00
C1143  C     0.07399   0.32615   0.55452   0.00000  Uiso   1.00
C1144  C     0.28994   0.23155   0.96983   0.00000  Uiso   1.00
C1145  C     0.26594   0.26919   0.94440   0.00000  Uiso   1.00
C1146  C     0.27799   0.31793   0.96067   0.00000  Uiso   1.00
C1147  C     0.04333   0.06826   0.70893   0.00000  Uiso   1.00
C1148  C     0.00296   0.05962   0.68319   0.00000  Uiso   1.00
C1149  C     0.01138   0.04835   0.63473   0.00000  Uiso   1.00
C1150  C     0.24056   0.17553   0.97829   0.00000  Uiso   1.00
C1151  C     0.28143   0.23720   0.67607   0.00000  Uiso   1.00
C1152  C     0.28574   0.28124   0.64843   0.00000  Uiso   1.00
C1153  C     0.26988   0.27354   0.60104   0.00000  Uiso   1.00
C1154  C     0.28659   0.10287   0.82939   0.00000  Uiso   1.00
C1155  C     0.31179   0.07118   0.85965   0.00000  Uiso   1.00
C1156  C     0.31367   0.08986   0.90718   0.00000  Uiso   1.00
C1157  C     0.05079   0.26632   0.79011   0.00000  Uiso   1.00
C1158  C     0.01462   0.28576   0.81592   0.00000  Uiso   1.00
C1159  C     0.02797   0.29723   0.86357   0.00000  Uiso   1.00
C1160  C     0.02017   0.12508   0.75559   0.00000  Uiso   1.00
C1161  C     0.31206   0.20807   0.73864   0.00000  Uiso   1.00
C1162  C     0.31195   0.12751   0.76359   0.00000  Uiso   1.00
C1163  C     0.02075   0.20976   0.74625   0.00000  Uiso   1.00
C1164  C     0.29033   0.16753   0.75054   0.00000  Uiso   1.00
Cu1165 Cu    0.16667   0.21355   0.75000   0.00000  Uiso   1.00
Cu1166 Cu    0.16667   0.11978   0.75000   0.00000  Uiso   1.00
H1167  H     0.13120   0.04289   0.69070   0.00000  Uiso   1.00
H1168  H     0.27641   0.12459   0.55668   0.00000  Uiso   1.00
H1169  H     0.01839   0.25163   0.54322   0.00000  Uiso   1.00
H1170  H     0.05557   0.25453   0.50101   0.00000  Uiso   1.00
H1171  H     0.06719   0.27006   0.60208   0.00000  Uiso   1.00
H1172  H     0.10995   0.26465   0.56547   0.00000  Uiso   1.00
H1173  H     0.08736   0.33188   0.52132   0.00000  Uiso   1.00
H1174  H     0.09106   0.01467   0.57916   0.00000  Uiso   1.00
H1175  H     0.04149   0.00386   0.55348   0.00000  Uiso   1.00
H1176  H     0.32261   0.23518   0.96121   0.00000  Uiso   1.00
H1177  H     0.28815   0.23791   0.50617   0.00000  Uiso   1.00
H1178  H     0.20365   0.29040   0.80828   0.00000  Uiso   1.00
H1179  H     0.27210   0.26611   0.90835   0.00000  Uiso   1.00
H1180  H     0.23259   0.26473   0.94928   0.00000  Uiso   1.00
H1181  H     0.26915   0.32265   0.99584   0.00000  Uiso   1.00
H1182  H     0.26183   0.01110   0.94023   0.00000  Uiso   1.00
H1183  H     0.31149   0.32332   0.95807   0.00000  Uiso   1.00
H1184  H     0.06067   0.03505   0.70890   0.00000  Uiso   1.00
H1185  H     0.06205   0.09438   0.69092   0.00000  Uiso   1.00
H1186  H     0.31948   0.03031   0.69873   0.00000  Uiso   1.00
H1187  H     0.31664   0.09108   0.68349   0.00000  Uiso   1.00
H1188  H     0.02678   0.07836   0.61861   0.00000  Uiso   1.00
H1189  H     0.20325   0.04365   0.80854   0.00000  Uiso   1.00
H1190  H     0.31550   0.04124   0.61664   0.00000  Uiso   1.00
H1191  H     0.03133   0.01724   0.63265   0.00000  Uiso   1.00
H1192  H     0.24892   0.22615   0.67466   0.00000  Uiso   1.00
H1193  H     0.30029   0.20939   0.66025   0.00000  Uiso   1.00
H1194  H     0.26845   0.31023   0.66388   0.00000  Uiso   1.00
H1195  H     0.31862   0.29062   0.64757   0.00000  Uiso   1.00
H1196  H     0.28628   0.24404   0.58547   0.00000  Uiso   1.00
H1197  H     0.27510   0.30551   0.58115   0.00000  Uiso   1.00
H1198  H     0.23659   0.26566   0.60093   0.00000  Uiso   1.00
H1199  H     0.25372   0.09796   0.83679   0.00000  Uiso   1.00
H1200  H     0.13009   0.28959   0.69140   0.00000  Uiso   1.00
H1201  H     0.29417   0.14006   0.83780   0.00000  Uiso   1.00
H1202  H     0.29749   0.03597   0.85929   0.00000  Uiso   1.00
H1203  H     0.01012   0.06860   0.84706   0.00000  Uiso   1.00
H1204  H     0.32842   0.12488   0.90811   0.00000  Uiso   1.00
H1205  H     0.33215   0.06600   0.92829   0.00000  Uiso   1.00
H1206  H     0.28242   0.09247   0.92081   0.00000  Uiso   1.00
H1207  H     0.07461   0.29402   0.78818   0.00000  Uiso   1.00
H1208  H     0.06473   0.23709   0.80937   0.00000  Uiso   1.00
H1209  H     0.00283   0.31771   0.79935   0.00000  Uiso   1.00
H1210  H     0.32292   0.25946   0.81699   0.00000  Uiso   1.00
H1211  H     0.23508   0.19158   0.85451   0.00000  Uiso   1.00
H1212  H     0.04206   0.26628   0.87962   0.00000  Uiso   1.00
H1213  H     0.00113   0.30718   0.88326   0.00000  Uiso   1.00
H1214  H     0.05037   0.32651   0.86405   0.00000  Uiso   1.00
H1215  H     0.09491   0.16259   0.64616   0.00000  Uiso   1.00
H1216  H     0.09660   0.14491   0.85260   0.00000  Uiso   1.00
H1217  H     0.23614   0.14368   0.64674   0.00000  Uiso   1.00
H1218  H     0.05737   0.20419   0.93110   0.00000  Uiso   1.00
N1219  N     0.16667   0.28402   0.75000   0.00000  Uiso   1.00
N1220  N     0.16667   0.04931   0.75000   0.00000  Uiso   1.00
O1221  O     0.10655   0.20625   0.74999   0.00000  Uiso   1.00
O1222  O     0.09178   0.17143   0.61463   0.00000  Uiso   1.00
O1223  O     0.09213   0.15262   0.88413   0.00000  Uiso   1.00
O1224  O     0.24052   0.15670   0.61684   0.00000  Uiso   1.00
O1225  O     0.05416   0.18036   0.95456   0.00000  Uiso   1.00
O1226  O     0.27839   0.15604   0.54317   0.00000  Uiso   1.00
O1227  O     0.05730   0.19568   0.54340   0.00000  Uiso   1.00
O1228  O     0.27716   0.18573   0.95782   0.00000  Uiso   1.00
O1229  O     0.03785   0.08132   0.75400   0.00000  Uiso   1.00
O1230  O     0.29301   0.24696   0.72077   0.00000  Uiso   1.00
O1231  O     0.29295   0.09049   0.78432   0.00000  Uiso   1.00
O1232  O     0.22679   0.12709   0.75000   0.00000  Uiso   1.00
O1233  O     0.03976   0.25314   0.74597   0.00000  Uiso   1.00
O1234  O     0.22679   0.20625   0.75000   0.00000  Uiso   1.00
O1235  O     0.10655   0.12709   0.74999   0.00000  Uiso   1.00
O1236  O     0.16666   0.20627   0.68513   0.00000  Uiso   1.00
O1237  O     0.16668   0.12707   0.81487   0.00000  Uiso   1.00
O1238  O     0.16668   0.20627   0.81487   0.00000  Uiso   1.00
O1239  O     0.16666   0.12707   0.68513   0.00000  Uiso   1.00
O1240  O     0.23977   0.18062   0.88522   0.00000  Uiso   1.00
C1241  C     0.42063   0.16668   0.74997   0.00000  Uiso   1.00
C1242  C     0.37581   0.16710   0.75046   0.00000  Uiso   1.00
C1243  C     0.48014   0.02452   0.71723   0.00000  Uiso   1.00
C1244  C     0.52046   0.30878   0.78237   0.00000  Uiso   1.00
C1245  C     0.52031   0.02498   0.78246   0.00000  Uiso   1.00
C1246  C     0.47980   0.30832   0.71744   0.00000  Uiso   1.00
C1247  C     0.50013   0.16647   0.66461   0.00000  Uiso   1.00
C1248  C     0.49943   0.16680   0.83537   0.00000  Uiso   1.00
C1249  C     0.53648   0.17484   0.90698   0.00000  Uiso   1.00
C1250  C     0.46227   0.17030   0.59305   0.00000  Uiso   1.00
C1251  C     0.49928   0.16764   0.88354   0.00000  Uiso   1.00
C1252  C     0.57918   0.16688   0.75022   0.00000  Uiso   1.00
C1253  C     0.49975   0.16552   0.61642   0.00000  Uiso   1.00
C1254  C     0.46192   0.16349   0.90610   0.00000  Uiso   1.00
C1255  C     0.53707   0.16129   0.59390   0.00000  Uiso   1.00
C1256  C     0.46174   0.17004   0.95252   0.00000  Uiso   1.00
C1257  C     0.53723   0.16426   0.54720   0.00000  Uiso   1.00
C1258  C     0.49942   0.17077   0.97650   0.00000  Uiso   1.00
C1259  C     0.49965   0.16943   0.52346   0.00000  Uiso   1.00
C1260  C     0.53684   0.17334   0.95368   0.00000  Uiso   1.00
C1261  C     0.46233   0.17323   0.54639   0.00000  Uiso   1.00
C1262  C     0.42488   0.17625   0.97583   0.00000  Uiso   1.00
C1263  C     0.42579   0.18151   0.52204   0.00000  Uiso   1.00
C1264  C     0.57428   0.16460   0.52341   0.00000  Uiso   1.00
C1265  C     0.38419   0.24412   0.53615   0.00000  Uiso   1.00
C1266  C     0.41064   0.27474   0.56732   0.00000  Uiso   1.00
C1267  C     0.40733   0.32615   0.55452   0.00000  Uiso   1.00
C1268  C     0.62328   0.23155   0.96983   0.00000  Uiso   1.00
C1269  C     0.59927   0.26919   0.94440   0.00000  Uiso   1.00
C1270  C     0.61132   0.31793   0.96067   0.00000  Uiso   1.00
C1271  C     0.37666   0.06826   0.70893   0.00000  Uiso   1.00
C1272  C     0.33629   0.05962   0.68319   0.00000  Uiso   1.00
C1273  C     0.34471   0.04835   0.63473   0.00000  Uiso   1.00
C1274  C     0.57390   0.17553   0.97829   0.00000  Uiso   1.00
C1275  C     0.61476   0.23720   0.67607   0.00000  Uiso   1.00
C1276  C     0.61908   0.28124   0.64843   0.00000  Uiso   1.00
C1277  C     0.60322   0.27354   0.60104   0.00000  Uiso   1.00
C1278  C     0.61993   0.10287   0.82939   0.00000  Uiso   1.00
C1279  C     0.64513   0.07118   0.85965   0.00000  Uiso   1.00
C1280  C     0.64701   0.08986   0.90718   0.00000  Uiso   1.00
C1281  C     0.38412   0.26632   0.79011   0.00000  Uiso   1.00
C1282  C     0.34795   0.28576   0.81592   0.00000  Uiso   1.00
C1283  C     0.36130   0.29723   0.86357   0.00000  Uiso   1.00
C1284  C     0.35350   0.12508   0.75559   0.00000  Uiso   1.00
C1285  C     0.64539   0.20807   0.73864   0.00000  Uiso   1.00
C1286  C     0.64528   0.12751   0.76359   0.00000  Uiso   1.00
C1287  C     0.35408   0.20976   0.74625   0.00000  Uiso   1.00
C1288  C     0.62367   0.16753   0.75054   0.00000  Uiso   1.00
Cu1289 Cu    0.50000   0.21355   0.75000   0.00000  Uiso   1.00
Cu1290 Cu    0.50000   0.11978   0.75000   0.00000  Uiso   1.00
H1291  H     0.46454   0.04289   0.69070   0.00000  Uiso   1.00
H1292  H     0.60974   0.12459   0.55668   0.00000  Uiso   1.00
H1293  H     0.35172   0.25163   0.54322   0.00000  Uiso   1.00
H1294  H     0.38890   0.25453   0.50101   0.00000  Uiso   1.00
H1295  H     0.40053   0.27006   0.60208   0.00000  Uiso   1.00
H1296  H     0.44328   0.26465   0.56547   0.00000  Uiso   1.00
H1297  H     0.42070   0.33188   0.52132   0.00000  Uiso   1.00
H1298  H     0.42440   0.01467   0.57916   0.00000  Uiso   1.00
H1299  H     0.37482   0.00386   0.55348   0.00000  Uiso   1.00
H1300  H     0.65594   0.23518   0.96121   0.00000  Uiso   1.00
H1301  H     0.62149   0.23791   0.50617   0.00000  Uiso   1.00
H1302  H     0.53698   0.29040   0.80828   0.00000  Uiso   1.00
H1303  H     0.60543   0.26611   0.90835   0.00000  Uiso   1.00
H1304  H     0.56592   0.26473   0.94928   0.00000  Uiso   1.00
H1305  H     0.60248   0.32265   0.99584   0.00000  Uiso   1.00
H1306  H     0.59516   0.01110   0.94023   0.00000  Uiso   1.00
H1307  H     0.64482   0.32332   0.95807   0.00000  Uiso   1.00
H1308  H     0.39400   0.03505   0.70890   0.00000  Uiso   1.00
H1309  H     0.39539   0.09438   0.69092   0.00000  Uiso   1.00
H1310  H     0.65281   0.03031   0.69873   0.00000  Uiso   1.00
H1311  H     0.64997   0.09108   0.68349   0.00000  Uiso   1.00
H1312  H     0.36012   0.07836   0.61861   0.00000  Uiso   1.00
H1313  H     0.53658   0.04365   0.80854   0.00000  Uiso   1.00
H1314  H     0.64883   0.04124   0.61664   0.00000  Uiso   1.00
H1315  H     0.36466   0.01724   0.63265   0.00000  Uiso   1.00
H1316  H     0.58225   0.22615   0.67466   0.00000  Uiso   1.00
H1317  H     0.63363   0.20939   0.66025   0.00000  Uiso   1.00
H1318  H     0.60179   0.31023   0.66388   0.00000  Uiso   1.00
H1319  H     0.65195   0.29062   0.64757   0.00000  Uiso   1.00
H1320  H     0.61961   0.24404   0.58547   0.00000  Uiso   1.00
H1321  H     0.60843   0.30551   0.58115   0.00000  Uiso   1.00
H1322  H     0.56992   0.26566   0.60093   0.00000  Uiso   1.00
H1323  H     0.58706   0.09796   0.83679   0.00000  Uiso   1.00
H1324  H     0.46342   0.28959   0.69140   0.00000  Uiso   1.00
H1325  H     0.62750   0.14006   0.83780   0.00000  Uiso   1.00
H1326  H     0.63083   0.03597   0.85929   0.00000  Uiso   1.00
H1327  H     0.34345   0.06860   0.84706   0.00000  Uiso   1.00
H1328  H     0.66175   0.12488   0.90811   0.00000  Uiso   1.00
H1329  H     0.66548   0.06600   0.92829   0.00000  Uiso   1.00
H1330  H     0.61576   0.09247   0.92081   0.00000  Uiso   1.00
H1331  H     0.40794   0.29402   0.78818   0.00000  Uiso   1.00
H1332  H     0.39806   0.23709   0.80937   0.00000  Uiso   1.00
H1333  H     0.33616   0.31771   0.79935   0.00000  Uiso   1.00
H1334  H     0.65625   0.25946   0.81699   0.00000  Uiso   1.00
H1335  H     0.56841   0.19158   0.85451   0.00000  Uiso   1.00
H1336  H     0.37539   0.26628   0.87962   0.00000  Uiso   1.00
H1337  H     0.33447   0.30718   0.88326   0.00000  Uiso   1.00
H1338  H     0.38371   0.32651   0.86405   0.00000  Uiso   1.00
H1339  H     0.42824   0.16259   0.64616   0.00000  Uiso   1.00
H1340  H     0.42993   0.14491   0.85260   0.00000  Uiso   1.00
H1341  H     0.56947   0.14368   0.64674   0.00000  Uiso   1.00
H1342  H     0.39070   0.20419   0.93110   0.00000  Uiso   1.00
N1343  N     0.50000   0.28402   0.75000   0.00000  Uiso   1.00
N1344  N     0.50000   0.04931   0.75000   0.00000  Uiso   1.00
O1345  O     0.43988   0.20625   0.74999   0.00000  Uiso   1.00
O1346  O     0.42512   0.17143   0.61463   0.00000  Uiso   1.00
O1347  O     0.42546   0.15262   0.88413   0.00000  Uiso   1.00
O1348  O     0.57385   0.15670   0.61684   0.00000  Uiso   1.00
O1349  O     0.38749   0.18036   0.95456   0.00000  Uiso   1.00
O1350  O     0.61173   0.15604   0.54317   0.00000  Uiso   1.00
O1351  O     0.39064   0.19568   0.54340   0.00000  Uiso   1.00
O1352  O     0.61050   0.18573   0.95782   0.00000  Uiso   1.00
O1353  O     0.37118   0.08132   0.75400   0.00000  Uiso   1.00
O1354  O     0.62634   0.24696   0.72077   0.00000  Uiso   1.00
O1355  O     0.62628   0.09049   0.78432   0.00000  Uiso   1.00
O1356  O     0.56012   0.12709   0.75000   0.00000  Uiso   1.00
O1357  O     0.37310   0.25314   0.74597   0.00000  Uiso   1.00
O1358  O     0.56012   0.20625   0.75000   0.00000  Uiso   1.00
O1359  O     0.43988   0.12709   0.74999   0.00000  Uiso   1.00
O1360  O     0.49999   0.20627   0.68513   0.00000  Uiso   1.00
O1361  O     0.50001   0.12707   0.81487   0.00000  Uiso   1.00
O1362  O     0.50001   0.20627   0.81487   0.00000  Uiso   1.00
O1363  O     0.49999   0.12707   0.68513   0.00000  Uiso   1.00
O1364  O     0.57310   0.18062   0.88522   0.00000  Uiso   1.00
C1365  C     0.75396   0.16668   0.74997   0.00000  Uiso   1.00
C1366  C     0.70915   0.16710   0.75046   0.00000  Uiso   1.00
C1367  C     0.81348   0.02452   0.71723   0.00000  Uiso   1.00
C1368  C     0.85379   0.30878   0.78237   0.00000  Uiso   1.00
C1369  C     0.85364   0.02498   0.78246   0.00000  Uiso   1.00
C1370  C     0.81313   0.30832   0.71744   0.00000  Uiso   1.00
C1371  C     0.83346   0.16647   0.66461   0.00000  Uiso   1.00
C1372  C     0.83277   0.16680   0.83537   0.00000  Uiso   1.00
C1373  C     0.86981   0.17484   0.90698   0.00000  Uiso   1.00
C1374  C     0.79560   0.17030   0.59305   0.00000  Uiso   1.00
C1375  C     0.83262   0.16764   0.88354   0.00000  Uiso   1.00
C1376  C     0.91252   0.16688   0.75022   0.00000  Uiso   1.00
C1377  C     0.83308   0.16552   0.61642   0.00000  Uiso   1.00
C1378  C     0.79525   0.16349   0.90610   0.00000  Uiso   1.00
C1379  C     0.87040   0.16129   0.59390   0.00000  Uiso   1.00
C1380  C     0.79508   0.17004   0.95252   0.00000  Uiso   1.00
C1381  C     0.87056   0.16426   0.54720   0.00000  Uiso   1.00
C1382  C     0.83275   0.17077   0.97650   0.00000  Uiso   1.00
C1383  C     0.83298   0.16943   0.52346   0.00000  Uiso   1.00
C1384  C     0.87017   0.17334   0.95368   0.00000  Uiso   1.00
C1385  C     0.79566   0.17323   0.54639   0.00000  Uiso   1.00
C1386  C     0.75822   0.17625   0.97583   0.00000  Uiso   1.00
C1387  C     0.75912   0.18151   0.52204   0.00000  Uiso   1.00
C1388  C     0.90761   0.16460   0.52341   0.00000  Uiso   1.00
C1389  C     0.71752   0.24412   0.53615   0.00000  Uiso   1.00
C1390  C     0.74398   0.27474   0.56732   0.00000  Uiso   1.00
C1391  C     0.74066   0.32615   0.55452   0.00000  Uiso   1.00
C1392  C     0.95661   0.23155   0.96983   0.00000  Uiso   1.00
C1393  C     0.93261   0.26919   0.94440   0.00000  Uiso   1.00
C1394  C     0.94465   0.31793   0.96067   0.00000  Uiso   1.00
C1395  C     0.70999   0.06826   0.70893   0.00000  Uiso   1.00
C1396  C     0.66962   0.05962   0.68319   0.00000  Uiso   1.00
C1397  C     0.67805   0.04835   0.63473   0.00000  Uiso   1.00
C1398  C     0.90723   0.17553   0.97829   0.00000  Uiso   1.00
C1399  C     0.94809   0.23720   0.67607   0.00000  Uiso   1.00
C1400  C     0.95241   0.28124   0.64843   0.00000  Uiso   1.00
C1401  C     0.93655   0.27354   0.60104   0.00000  Uiso   1.00
C1402  C     0.95326   0.10287   0.82939   0.00000  Uiso   1.00
C1403  C     0.97846   0.07118   0.85965   0.00000  Uiso   1.00
C1404  C     0.98034   0.08986   0.90718   0.00000  Uiso   1.00
C1405  C     0.71745   0.26632   0.79011   0.00000  Uiso   1.00
C1406  C     0.68128   0.28576   0.81592   0.00000  Uiso   1.00
C1407  C     0.69463   0.29723   0.86357   0.00000  Uiso   1.00
C1408  C     0.68683   0.12508   0.75559   0.00000  Uiso   1.00
C1409  C     0.97872   0.20807   0.73864   0.00000  Uiso   1.00
C1410  C     0.97861   0.12751   0.76359   0.00000  Uiso   1.00
C1411  C     0.68741   0.20976   0.74625   0.00000  Uiso   1.00
C1412  C     0.95700   0.16753   0.75054   0.00000  Uiso   1.00
Cu1413 Cu    0.83333   0.21355   0.75000   0.00000  Uiso   1.00
Cu1414 Cu    0.83333   0.11978   0.75000   0.00000  Uiso   1.00
H1415  H     0.79787   0.04289   0.69070   0.00000  Uiso   1.00
H1416  H     0.94307   0.12459   0.55668   0.00000  Uiso   1.00
H1417  H     0.68506   0.25163   0.54322   0.00000  Uiso   1.00
H1418  H     0.72223   0.25453   0.50101   0.00000  Uiso   1.00
H1419  H     0.73386   0.27006   0.60208   0.00000  Uiso   1.00
H1420  H     0.77661   0.26465   0.56547   0.00000  Uiso   1.00
H1421  H     0.75403   0.33188   0.52132   0.00000  Uiso   1.00
H1422  H     0.75773   0.01467   0.57916   0.00000  Uiso   1.00
H1423  H     0.70815   0.00386   0.55348   0.00000  Uiso   1.00
H1424  H     0.98927   0.23518   0.96121   0.00000  Uiso   1.00
H1425  H     0.95482   0.23791   0.50617   0.00000  Uiso   1.00
H1426  H     0.87031   0.29040   0.80828   0.00000  Uiso   1.00
H1427  H     0.93877   0.26611   0.90835   0.00000  Uiso   1.00
H1428  H     0.89926   0.26473   0.94928   0.00000  Uiso   1.00
H1429  H     0.93582   0.32265   0.99584   0.00000  Uiso   1.00
H1430  H     0.92850   0.01110   0.94023   0.00000  Uiso   1.00
H1431  H     0.97815   0.32332   0.95807   0.00000  Uiso   1.00
H1432  H     0.72734   0.03505   0.70890   0.00000  Uiso   1.00
H1433  H     0.72872   0.09438   0.69092   0.00000  Uiso   1.00
H1434  H     0.98614   0.03031   0.69873   0.00000  Uiso   1.00
H1435  H     0.98331   0.09108   0.68349   0.00000  Uiso   1.00
H1436  H     0.69345   0.07836   0.61861   0.00000  Uiso   1.00
H1437  H     0.86991   0.04365   0.80854   0.00000  Uiso   1.00
H1438  H     0.98217   0.04124   0.61664   0.00000  Uiso   1.00
H1439  H     0.69800   0.01724   0.63265   0.00000  Uiso   1.00
H1440  H     0.91558   0.22615   0.67466   0.00000  Uiso   1.00
H1441  H     0.96696   0.20939   0.66025   0.00000  Uiso   1.00
H1442  H     0.93512   0.31023   0.66388   0.00000  Uiso   1.00
H1443  H     0.98528   0.29062   0.64757   0.00000  Uiso   1.00
H1444  H     0.95295   0.24404   0.58547   0.00000  Uiso   1.00
H1445  H     0.94176   0.30551   0.58115   0.00000  Uiso   1.00
H1446  H     0.90326   0.26566   0.60093   0.00000  Uiso   1.00
H1447  H     0.92039   0.09796   0.83679   0.00000  Uiso   1.00
H1448  H     0.79676   0.28959   0.69140   0.00000  Uiso   1.00
H1449  H     0.96083   0.14006   0.83780   0.00000  Uiso   1.00
H1450  H     0.96416   0.03597   0.85929   0.00000  Uiso   1.00
H1451  H     0.67679   0.06860   0.84706   0.00000  Uiso   1.00
H1452  H     0.99508   0.12488   0.90811   0.00000  Uiso   1.00
H1453  H     0.99882   0.06600   0.92829   0.00000  Uiso   1.00
H1454  H     0.94909   0.09247   0.92081   0.00000  Uiso   1.00
H1455  H     0.74127   0.29402   0.78818   0.00000  Uiso   1.00
H1456  H     0.73139   0.23709   0.80937   0.00000  Uiso   1.00
H1457  H     0.66949   0.31771   0.79935   0.00000  Uiso   1.00
H1458  H     0.98959   0.25946   0.81699   0.00000  Uiso   1.00
H1459  H     0.90175   0.19158   0.85451   0.00000  Uiso   1.00
H1460  H     0.70872   0.26628   0.87962   0.00000  Uiso   1.00
H1461  H     0.66780   0.30718   0.88326   0.00000  Uiso   1.00
H1462  H     0.71704   0.32651   0.86405   0.00000  Uiso   1.00
H1463  H     0.76158   0.16259   0.64616   0.00000  Uiso   1.00
H1464  H     0.76327   0.14491   0.85260   0.00000  Uiso   1.00
H1465  H     0.90280   0.14368   0.64674   0.00000  Uiso   1.00
H1466  H     0.72404   0.20419   0.93110   0.00000  Uiso   1.00
N1467  N     0.83333   0.28402   0.75000   0.00000  Uiso   1.00
N1468  N     0.83333   0.04931   0.75000   0.00000  Uiso   1.00
O1469  O     0.77321   0.20625   0.74999   0.00000  Uiso   1.00
O1470  O     0.75845   0.17143   0.61463   0.00000  Uiso   1.00
O1471  O     0.75880   0.15262   0.88413   0.00000  Uiso   1.00
O1472  O     0.90719   0.15670   0.61684   0.00000  Uiso   1.00
O1473  O     0.72083   0.18036   0.95456   0.00000  Uiso   1.00
O1474  O     0.94506   0.15604   0.54317   0.00000  Uiso   1.00
O1475  O     0.72397   0.19568   0.54340   0.00000  Uiso   1.00
O1476  O     0.94383   0.18573   0.95782   0.00000  Uiso   1.00
O1477  O     0.70451   0.08132   0.75400   0.00000  Uiso   1.00
O1478  O     0.95967   0.24696   0.72077   0.00000  Uiso   1.00
O1479  O     0.95961   0.09049   0.78432   0.00000  Uiso   1.00
O1480  O     0.89345   0.12709   0.75000   0.00000  Uiso   1.00
O1481  O     0.70643   0.25314   0.74597   0.00000  Uiso   1.00
O1482  O     0.89345   0.20625   0.75000   0.00000  Uiso   1.00
O1483  O     0.77321   0.12709   0.74999   0.00000  Uiso   1.00
O1484  O     0.83332   0.20627   0.68513   0.00000  Uiso   1.00
O1485  O     0.83334   0.12707   0.81487   0.00000  Uiso   1.00
O1486  O     0.83334   0.20627   0.81487   0.00000  Uiso   1.00
O1487  O     0.83332   0.12707   0.68513   0.00000  Uiso   1.00
O1488  O     0.90644   0.18062   0.88522   0.00000  Uiso   1.00
C1489  C     0.08730   0.50001   0.74997   0.00000  Uiso   1.00
C1490  C     0.04248   0.50043   0.75046   0.00000  Uiso   1.00
C1491  C     0.14681   0.35785   0.71723   0.00000  Uiso   1.00
C1492  C     0.18712   0.64212   0.78237   0.00000  Uiso   1.00
C1493  C     0.18698   0.35831   0.78246   0.00000  Uiso   1.00
C1494  C     0.14647   0.64166   0.71744   0.00000  Uiso   1.00
C1495  C     0.16679   0.49981   0.66461   0.00000  Uiso   1.00
C1496  C     0.16610   0.50014   0.83537   0.00000  Uiso   1.00
C1497  C     0.20315   0.50817   0.90698   0.00000  Uiso   1.00
C1498  C     0.12893   0.50364   0.59305   0.00000  Uiso   1.00
C1499  C     0.16595   0.50098   0.88354   0.00000  Uiso   1.00
C1500  C     0.24585   0.50022   0.75022   0.00000  Uiso   1.00
C1501  C     0.16641   0.49885   0.61642   0.00000  Uiso   1.00
C1502  C     0.12859   0.49682   0.90610   0.00000  Uiso   1.00
C1503  C     0.20373   0.49462   0.59390   0.00000  Uiso   1.00
C1504  C     0.12841   0.50337   0.95252   0.00000  Uiso   1.00
C1505  C     0.20390   0.49759   0.54720   0.00000  Uiso   1.00
C1506  C     0.16608   0.50410   0.97650   0.00000  Uiso   1.00
C1507  C     0.16632   0.50276   0.52346   0.00000  Uiso   1.00
C1508  C     0.20351   0.50667   0.95368   0.00000  Uiso   1.00
C1509  C     0.12900   0.50657   0.54639   0.00000  Uiso   1.00
C1510  C     0.09155   0.50958   0.97583   0.00000  Uiso   1.00
C1511  C     0.09246   0.51484   0.52204   0.00000  Uiso   1.00
C1512  C     0.24094   0.49793   0.52341   0.00000  Uiso   1.00
C1513  C     0.05086   0.57745   0.53615   0.00000  Uiso   1.00
C1514  C     0.07731   0.60807   0.56732   0.00000  Uiso   1.00
C1515  C     0.07399   0.65948   0.55452   0.00000  Uiso   1.00
C1516  C     0.28994   0.56488   0.96983   0.00000  Uiso   1.00
C1517  C     0.26594   0.60252   0.94440   0.00000  Uiso   1.00
C1518  C     0.27799   0.65126   0.96067   0.00000  Uiso   1.00
C1519  C     0.04333   0.40160   0.70893   0.00000  Uiso   1.00
C1520  C     0.00296   0.39295   0.68319   0.00000  Uiso   1.00
C1521  C     0.01138   0.38168   0.63473   0.00000  Uiso   1.00
C1522  C     0.24056   0.50886   0.97829   0.00000  Uiso   1.00
C1523  C     0.28143   0.57053   0.67607   0.00000  Uiso   1.00
C1524  C     0.28574   0.61457   0.64843   0.00000  Uiso   1.00
C1525  C     0.26988   0.60687   0.60104   0.00000  Uiso   1.00
C1526  C     0.28659   0.43620   0.82939   0.00000  Uiso   1.00
C1527  C     0.31179   0.40452   0.85965   0.00000  Uiso   1.00
C1528  C     0.31367   0.42319   0.90718   0.00000  Uiso   1.00
C1529  C     0.05079   0.59965   0.79011   0.00000  Uiso   1.00
C1530  C     0.01462   0.61909   0.81592   0.00000  Uiso   1.00
C1531  C     0.02797   0.63057   0.86357   0.00000  Uiso   1.00
C1532  C     0.02017   0.45841   0.75559   0.00000  Uiso   1.00
C1533  C     0.31206   0.54141   0.73864   0.00000  Uiso   1.00
C1534  C     0.31195   0.46085   0.76359   0.00000  Uiso   1.00
C1535  C     0.02075   0.54309   0.74625   0.00000  Uiso   1.00
C1536  C     0.29033   0.50087   0.75054   0.00000  Uiso   1.00
Cu1537 Cu    0.16667   0.54689   0.75000   0.00000  Uiso   1.00
Cu1538 Cu    0.16667   0.45311   0.75000   0.00000  Uiso   1.00
H1539  H     0.13120   0.37623   0.69070   0.00000  Uiso   1.00
H1540  H     0.27641   0.45792   0.55668   0.00000  Uiso   1.00
H1541  H     0.01839   0.58497   0.54322   0.00000  Uiso   1.00
H1542  H     0.05557   0.58786   0.50101   0.00000  Uiso   1.00
H1543  H     0.06719   0.60339   0.60208   0.00000  Uiso   1.00
H1544  H     0.10995   0.59798   0.56547   0.00000  Uiso   1.00
H1545  H     0.08736   0.66521   0.52132   0.00000  Uiso   1.00
H1546  H     0.09106   0.34800   0.57916   0.00000  Uiso   1.00
H1547  H     0.04149   0.33719   0.55348   0.00000  Uiso   1.00
H1548  H     0.32261   0.56851   0.96121   0.00000  Uiso   1.00
H1549  H     0.28815   0.57125   0.50617   0.00000  Uiso   1.00
H1550  H     0.20365   0.62374   0.80828   0.00000  Uiso   1.00
H1551  H     0.27210   0.59945   0.90835   0.00000  Uiso   1.00
H1552  H     0.23259   0.59806   0.94928   0.00000  Uiso   1.00
H1553  H     0.26915   0.65599   0.99584   0.00000  Uiso   1.00
H1554  H     0.26183   0.34443   0.94023   0.00000  Uiso   1.00
H1555  H     0.31149   0.65666   0.95807   0.00000  Uiso   1.00
H1556  H     0.06067   0.36839   0.70890   0.00000  Uiso   1.00
H1557  H     0.06205   0.42771   0.69092   0.00000  Uiso   1.00
H1558  H     0.31948   0.36364   0.69873   0.00000  Uiso   1.00
H1559  H     0.31664   0.42441   0.68349   0.00000  Uiso   1.00
H1560  H     0.02678   0.41169   0.61861   0.00000  Uiso   1.00
H1561  H     0.20325   0.37698   0.80854   0.00000  Uiso   1.00
H1562  H     0.31550   0.37457   0.61664   0.00000  Uiso   1.00
H1563  H     0.03133   0.35058   0.63265   0.00000  Uiso   1.00
H1564  H     0.24892   0.55948   0.67466   0.00000  Uiso   1.00
H1565  H     0.30029   0.54272   0.66025   0.00000  Uiso   1.00
H1566  H     0.26845   0.64356   0.66388   0.00000  Uiso   1.00
H1567  H     0.31862   0.62395   0.64757   0.00000  Uiso   1.00
H1568  H     0.28628   0.57737   0.58547   0.00000  Uiso   1.00
H1569  H     0.27510   0.63884   0.58115   0.00000  Uiso   1.00
H1570  H     0.23659   0.59900   0.60093   0.00000  Uiso   1.00
H1571  H     0.25372   0.43130   0.83679   0.00000  Uiso   1.00
H1572  H     0.13009   0.62292   0.69140   0.00000  Uiso   1.00
H1573  H     0.29417   0.47339   0.83780   0.00000  Uiso   1.00
H1574  H     0.29749   0.36931   0.85929   0.00000  Uiso   1.00
H1575  H     0.01012   0.40193   0.84706   0.00000  Uiso   1.00
H1576  H     0.32842   0.45822   0.90811   0.00000  Uiso   1.00
H1577  H     0.33215   0.39933   0.92829   0.00000  Uiso   1.00
H1578  H     0.28242   0.42580   0.92081   0.00000  Uiso   1.00
H1579  H     0.07461   0.62735   0.78818   0.00000  Uiso   1.00
H1580  H     0.06473   0.57042   0.80937   0.00000  Uiso   1.00
H1581  H     0.00283   0.65105   0.79935   0.00000  Uiso   1.00
H1582  H     0.32292   0.59279   0.81699   0.00000  Uiso   1.00
H1583  H     0.23508   0.52491   0.85451   0.00000  Uiso   1.00
H1584  H     0.04206   0.59961   0.87962   0.00000  Uiso   1.00
H1585  H     0.00113   0.64051   0.88326   0.00000  Uiso   1.00
H1586  H     0.05037   0.65985   0.86405   0.00000  Uiso   1.00
H1587  H     0.09491   0.49592   0.64616   0.00000  Uiso   1.00
H1588  H     0.09660   0.47825   0.85260   0.00000  Uiso   1.00
H1589  H     0.23614   0.47702   0.64674   0.00000  Uiso   1.00
H1590  H     0.05737   0.53753   0.93110   0.00000  Uiso   1.00
N1591  N     0.16667   0.61736   0.75000   0.00000  Uiso   1.00
N1592  N     0.16667   0.38264   0.75000   0.00000  Uiso   1.00
O1593  O     0.10655   0.53958   0.74999   0.00000  Uiso   1.00
O1594  O     0.09178   0.50477   0.61463   0.00000  Uiso   1.00
O1595  O     0.09213   0.48595   0.88413   0.00000  Uiso   1.00
O1596  O     0.24052   0.49003   0.61684   0.00000  Uiso   1.00
O1597  O     0.05416   0.51370   0.95456   0.00000  Uiso   1.00
O1598  O     0.27839   0.48938   0.54317   0.00000  Uiso   1.00
O1599  O     0.05730   0.52901   0.54340   0.00000  Uiso   1.00
O1600  O     0.27716   0.51907   0.95782   0.00000  Uiso   1.00
O1601  O     0.03785   0.41465   0.75400   0.00000  Uiso   1.00
O1602  O     0.29301   0.58029   0.72077   0.00000  Uiso   1.00
O1603  O     0.29295   0.42382   0.78432   0.00000  Uiso   1.00
O1604  O     0.22679   0.46042   0.75000   0.00000  Uiso   1.00
O1605  O     0.03976   0.58647   0.74597   0.00000  Uiso   1.00
O1606  O     0.22679   0.53958   0.75000   0.00000  Uiso   1.00
O1607  O     0.10655   0.46042   0.74999   0.00000  Uiso   1.00
O1608  O     0.16666   0.53960   0.68513   0.00000  Uiso   1.00
O1609  O     0.16668   0.46040   0.81487   0.00000  Uiso   1.00
O1610  O     0.16668   0.53960   0.81487   0.00000  Uiso   1.00
O1611  O     0.16666   0.46040   0.68513   0.00000  Uiso   1.00
O1612  O     0.23977   0.51395   0.88522   0.00000  Uiso   1.00
C1613  C     0.42063   0.50001   0.74997   0.00000  Uiso   1.00
C1614  C     0.37581   0.50043   0.75046   0.00000  Uiso   1.00
C1615  C     0.48014   0.35785   0.71723   0.00000  Uiso   1.00
C1616  C     0.52046   0.64212   0.78237   0.00000  Uiso   1.00
C1617  C     0.52031   0.35831   0.78246   0.00000  Uiso   1.00
C1618  C     0.47980   0.64166   0.71744   0.00000  Uiso   1.00
C1619  C     0.50013   0.49981   0.66461   0.00000  Uiso   1.00
C1620  C     0.49943   0.50014   0.83537   0.00000  Uiso   1.00
C1621  C     0.53648   0.50817   0.90698   0.00000  Uiso   1.00
C1622  C     0.46227   0.50364   0.59305   0.00000  Uiso   1.00
C1623  C     0.49928   0.50098   0.88354   0.00000  Uiso   1.00
C1624  C     0.57918   0.50022   0.75022   0.00000  Uiso   1.00
C1625  C     0.49975   0.49885   0.61642   0.00000  Uiso   1.00
C1626  C     0.46192   0.49682   0.90610   0.00000  Uiso   1.00
C1627  C     0.53707   0.49462   0.59390   0.00000  Uiso   1.00
C1628  C     0.46174   0.50337   0.95252   0.00000  Uiso   1.00
C1629  C     0.53723   0.49759   0.54720   0.00000  Uiso   1.00
C1630  C     0.49942   0.50410   0.97650   0.00000  Uiso   1.00
C1631  C     0.49965   0.50276   0.52346   0.00000  Uiso   1.00
C1632  C     0.53684   0.50667   0.95368   0.00000  Uiso   1.00
C1633  C     0.46233   0.50657   0.54639   0.00000  Uiso   1.00
C1634  C     0.42488   0.50958   0.97583   0.00000  Uiso   1.00
C1635  C     0.42579   0.51484   0.52204   0.00000  Uiso   1.00
C1636  C     0.57428   0.49793   0.52341   0.00000  Uiso   1.00
C1637  C     0.38419   0.57745   0.53615   0.00000  Uiso   1.00
C1638  C     0.41064   0.60807   0.56732   0.00000  Uiso   1.00
C1639  C     0.40733   0.65948   0.55452   0.00000  Uiso   1.00
C1640  C     0.62328   0.56488   0.96983   0.00000  Uiso   1.00
C1641  C     0.59927   0.60252   0.94440   0.00000  Uiso   1.00
C1642  C     0.61132   0.65126   0.96067   0.00000  Uiso   1.00
C1643  C     0.37666   0.40160   0.70893   0.00000  Uiso   1.00
C1644  C     0.33629   0.39295   0.68319   0.00000  Uiso   1.00
C1645  C     0.34471   0.38168   0.63473   0.00000  Uiso   1.00
C1646  C     0.57390   0.50886   0.97829   0.00000  Uiso   1.00
C1647  C     0.61476   0.57053   0.67607   0.00000  Uiso   1.00
C1648  C     0.61908   0.61457   0.64843   0.00000  Uiso   1.00
C1649  C     0.60322   0.60687   0.60104   0.00000  Uiso   1.00
C1650  C     0.61993   0.43620   0.82939   0.00000  Uiso   1.00
C1651  C     0.64513   0.40452   0.85965   0.00000  Uiso   1.00
C1652  C     0.64701   0.42319   0.90718   0.00000  Uiso   1.00
C1653  C     0.38412   0.59965   0.79011   0.00000  Uiso   1.00
C1654  C     0.34795   0.61909   0.81592   0.00000  Uiso   1.00
C1655  C     0.36130   0.63057   0.86357   0.00000  Uiso   1.00
C1656  C     0.35350   0.45841   0.75559   0.00000  Uiso   1.00
C1657  C     0.64539   0.54141   0.73864   0.00000  Uiso   1.00
C1658  C     0.64528   0.46085   0.76359   0.00000  Uiso   1.00
C1659  C     0.35408   0.54309   0.74625   0.00000  Uiso   1.00
C1660  C     0.62367   0.50087   0.75054   0.00000  Uiso   1.00
Cu1661 Cu    0.50000   0.54689   0.75000   0.00000  Uiso   1.00
Cu1662 Cu    0.50000   0.45311   0.75000   0.00000  Uiso   1.00
H1663  H     0.46454   0.37623   0.69070   0.00000  Uiso   1.00
H1664  H     0.60974   0.45792   0.55668   0.00000  Uiso   1.00
H1665  H     0.35172   0.58497   0.54322   0.00000  Uiso   1.00
H1666  H     0.38890   0.58786   0.50101   0.00000  Uiso   1.00
H1667  H     0.40053   0.60339   0.60208   0.00000  Uiso   1.00
H1668  H     0.44328   0.59798   0.56547   0.00000  Uiso   1.00
H1669  H     0.42070   0.66521   0.52132   0.00000  Uiso   1.00
H1670  H     0.42440   0.34800   0.57916   0.00000  Uiso   1.00
H1671  H     0.37482   0.33719   0.55348   0.00000  Uiso   1.00
H1672  H     0.65594   0.56851   0.96121   0.00000  Uiso   1.00
H1673  H     0.62149   0.57125   0.50617   0.00000  Uiso   1.00
H1674  H     0.53698   0.62374   0.80828   0.00000  Uiso   1.00
H1675  H     0.60543   0.59945   0.90835   0.00000  Uiso   1.00
H1676  H     0.56592   0.59806   0.94928   0.00000  Uiso   1.00
H1677  H     0.60248   0.65599   0.99584   0.00000  Uiso   1.00
H1678  H     0.59516   0.34443   0.94023   0.00000  Uiso   1.00
H1679  H     0.64482   0.65666   0.95807   0.00000  Uiso   1.00
H1680  H     0.39400   0.36839   0.70890   0.00000  Uiso   1.00
H1681  H     0.39539   0.42771   0.69092   0.00000  Uiso   1.00
H1682  H     0.65281   0.36364   0.69873   0.00000  Uiso   1.00
H1683  H     0.64997   0.42441   0.68349   0.00000  Uiso   1.00
H1684  H     0.36012   0.41169   0.61861   0.00000  Uiso   1.00
H1685  H     0.53658   0.37698   0.80854   0.00000  Uiso   1.00
H1686  H     0.64883   0.37457   0.61664   0.00000  Uiso   1.00
H1687  H     0.36466   0.35058   0.63265   0.00000  Uiso   1.00
H1688  H     0.58225   0.55948   0.67466   0.00000  Uiso   1.00
H1689  H     0.63363   0.54272   0.66025   0.00000  Uiso   1.00
H1690  H     0.60179   0.64356   0.66388   0.00000  Uiso   1.00
H1691  H     0.65195   0.62395   0.64757   0.00000  Uiso   1.00
H1692  H     0.61961   0.57737   0.58547   0.00000  Uiso   1.00
H1693  H     0.60843   0.63884   0.58115   0.00000  Uiso   1.00
H1694  H     0.56992   0.59900   0.60093   0.00000  Uiso   1.00
H1695  H     0.58706   0.43130   0.83679   0.00000  Uiso   1.00
H1696  H     0.46342   0.62292   0.69140   0.00000  Uiso   1.00
H1697  H     0.62750   0.47339   0.83780   0.00000  Uiso   1.00
H1698  H     0.63083   0.36931   0.85929   0.00000  Uiso   1.00
H1699  H     0.34345   0.40193   0.84706   0.00000  Uiso   1.00
H1700  H     0.66175   0.45822   0.90811   0.00000  Uiso   1.00
H1701  H     0.66548   0.39933   0.92829   0.00000  Uiso   1.00
H1702  H     0.61576   0.42580   0.92081   0.00000  Uiso   1.00
H1703  H     0.40794   0.62735   0.78818   0.00000  Uiso   1.00
H1704  H     0.39806   0.57042   0.80937   0.00000  Uiso   1.00
H1705  H     0.33616   0.65105   0.79935   0.00000  Uiso   1.00
H1706  H     0.65625   0.59279   0.81699   0.00000  Uiso   1.00
H1707  H     0.56841   0.52491   0.85451   0.00000  Uiso   1.00
H1708  H     0.37539   0.59961   0.87962   0.00000  Uiso   1.00
H1709  H     0.33447   0.64051   0.88326   0.00000  Uiso   1.00
H1710  H     0.38371   0.65985   0.86405   0.00000  Uiso   1.00
H1711  H     0.42824   0.49592   0.64616   0.00000  Uiso   1.00
H1712  H     0.42993   0.47825   0.85260   0.00000  Uiso   1.00
H1713  H     0.56947   0.47702   0.64674   0.00000  Uiso   1.00
H1714  H     0.39070   0.53753   0.93110   0.00000  Uiso   1.00
N1715  N     0.50000   0.61736   0.75000   0.00000  Uiso   1.00
N1716  N     0.50000   0.38264   0.75000   0.00000  Uiso   1.00
O1717  O     0.43988   0.53958   0.74999   0.00000  Uiso   1.00
O1718  O     0.42512   0.50477   0.61463   0.00000  Uiso   1.00
O1719  O     0.42546   0.48595   0.88413   0.00000  Uiso   1.00
O1720  O     0.57385   0.49003   0.61684   0.00000  Uiso   1.00
O1721  O     0.38749   0.51370   0.95456   0.00000  Uiso   1.00
O1722  O     0.61173   0.48938   0.54317   0.00000  Uiso   1.00
O1723  O     0.39064   0.52901   0.54340   0.00000  Uiso   1.00
O1724  O     0.61050   0.51907   0.95782   0.00000  Uiso   1.00
O1725  O     0.37118   0.41465   0.75400   0.00000  Uiso   1.00
O1726  O     0.62634   0.58029   0.72077   0.00000  Uiso   1.00
O1727  O     0.62628   0.42382   0.78432   0.00000  Uiso   1.00
O1728  O     0.56012   0.46042   0.75000   0.00000  Uiso   1.00
O1729  O     0.37310   0.58647   0.74597   0.00000  Uiso   1.00
O1730  O     0.56012   0.53958   0.75000   0.00000  Uiso   1.00
O1731  O     0.43988   0.46042   0.74999   0.00000  Uiso   1.00
O1732  O     0.49999   0.53960   0.68513   0.00000  Uiso   1.00
O1733  O     0.50001   0.46040   0.81487   0.00000  Uiso   1.00
O1734  O     0.50001   0.53960   0.81487   0.00000  Uiso   1.00
O1735  O     0.49999   0.46040   0.68513   0.00000  Uiso   1.00
O1736  O     0.57310   0.51395   0.88522   0.00000  Uiso   1.00
C1737  C     0.75396   0.50001   0.74997   0.00000  Uiso   1.00
C1738  C     0.70915   0.50043   0.75046   0.00000  Uiso   1.00
C1739  C     0.81348   0.35785   0.71723   0.00000  Uiso   1.00
C1740  C     0.85379   0.64212   0.78237   0.00000  Uiso   1.00
C1741  C     0.85364   0.35831   0.78246   0.00000  Uiso   1.00
C1742  C     0.81313   0.64166   0.71744   0.00000  Uiso   1.00
C1743  C     0.83346   0.49981   0.66461   0.00000  Uiso   1.00
C1744  C     0.83277   0.50014   0.83537   0.00000  Uiso   1.00
C1745  C     0.86981   0.50817   0.90698   0.00000  Uiso   1.00
C1746  C     0.79560   0.50364   0.59305   0.00000  Uiso   1.00
C1747  C     0.83262   0.50098   0.88354   0.00000  Uiso   1.00
C1748  C     0.91252   0.50022   0.75022   0.00000  Uiso   1.00
C1749  C     0.83308   0.49885   0.61642   0.00000  Uiso   1.00
C1750  C     0.79525   0.49682   0.90610   0.00000  Uiso   1.00
C1751  C     0.87040   0.49462   0.59390   0.00000  Uiso   1.00
C1752  C     0.79508   0.50337   0.95252   0.00000  Uiso   1.00
C1753  C     0.87056   0.49759   0.54720   0.00000  Uiso   1.00
C1754  C     0.83275   0.50410   0.97650   0.00000  Uiso   1.00
C1755  C     0.83298   0.50276   0.52346   0.00000  Uiso   1.00
C1756  C     0.87017   0.50667   0.95368   0.00000  Uiso   1.00
C1757  C     0.79566   0.50657   0.54639   0.00000  Uiso   1.00
C1758  C     0.75822   0.50958   0.97583   0.00000  Uiso   1.00
C1759  C     0.75912   0.51484   0.52204   0.00000  Uiso   1.00
C1760  C     0.90761   0.49793   0.52341   0.00000  Uiso   1.00
C1761  C     0.71752   0.57745   0.53615   0.00000  Uiso   1.00
C1762  C     0.74398   0.60807   0.56732   0.00000  Uiso   1.00
C1763  C     0.74066   0.65948   0.55452   0.00000  Uiso   1.00
C1764  C     0.95661   0.56488   0.96983   0.00000  Uiso   1.00
C1765  C     0.93261   0.60252   0.94440   0.00000  Uiso   1.00
C1766  C     0.94465   0.65126   0.96067   0.00000  Uiso   1.00
C1767  C     0.70999   0.40160   0.70893   0.00000  Uiso   1.00
C1768  C     0.66962   0.39295   0.68319   0.00000  Uiso   1.00
C1769  C     0.67805   0.38168   0.63473   0.00000  Uiso   1.00
C1770  C     0.90723   0.50886   0.97829   0.00000  Uiso   1.00
C1771  C     0.94809   0.57053   0.67607   0.00000  Uiso   1.00
C1772  C     0.95241   0.61457   0.64843   0.00000  Uiso   1.00
C1773  C     0.93655   0.60687   0.60104   0.00000  Uiso   1.00
C1774  C     0.95326   0.43620   0.82939   0.00000  Uiso   1.00
C1775  C     0.97846   0.40452   0.85965   0.00000  Uiso   1.00
C1776  C     0.98034   0.42319   0.90718   0.00000  Uiso   1.00
C1777  C     0.71745   0.59965   0.79011   0.00000  Uiso   1.00
C1778  C     0.68128   0.61909   0.81592   0.00000  Uiso   1.00
C1779  C     0.69463   0.63057   0.86357   0.00000  Uiso   1.00
C1780  C     0.68683   0.45841   0.75559   0.00000  Uiso   1.00
C1781  C     0.97872   0.54141   0.73864   0.00000  Uiso   1.00
C1782  C     0.97861   0.46085   0.76359   0.00000  Uiso   1.00
C1783  C     0.68741   0.54309   0.74625   0.00000  Uiso   1.00
C1784  C     0.95700   0.50087   0.75054   0.00000  Uiso   1.00
Cu1785 Cu    0.83333   0.54689   0.75000   0.00000  Uiso   1.00
Cu1786 Cu    0.83333   0.45311   0.75000   0.00000  Uiso   1.00
H1787  H     0.79787   0.37623   0.69070   0.00000  Uiso   1.00
H1788  H     0.94307   0.45792   0.55668   0.00000  Uiso   1.00
H1789  H     0.68506   0.58497   0.54322   0.00000  Uiso   1.00
H1790  H     0.72223   0.58786   0.50101   0.00000  Uiso   1.00
H1791  H     0.73386   0.60339   0.60208   0.00000  Uiso   1.00
H1792  H     0.77661   0.59798   0.56547   0.00000  Uiso   1.00
H1793  H     0.75403   0.66521   0.52132   0.00000  Uiso   1.00
H1794  H     0.75773   0.34800   0.57916   0.00000  Uiso   1.00
H1795  H     0.70815   0.33719   0.55348   0.00000  Uiso   1.00
H1796  H     0.98927   0.56851   0.96121   0.00000  Uiso   1.00
H1797  H     0.95482   0.57125   0.50617   0.00000  Uiso   1.00
H1798  H     0.87031   0.62374   0.80828   0.00000  Uiso   1.00
H1799  H     0.93877   0.59945   0.90835   0.00000  Uiso   1.00
H1800  H     0.89926   0.59806   0.94928   0.00000  Uiso   1.00
H1801  H     0.93582   0.65599   0.99584   0.00000  Uiso   1.00
H1802  H     0.92850   0.34443   0.94023   0.00000  Uiso   1.00
H1803  H     0.97815   0.65666   0.95807   0.00000  Uiso   1.00
H1804  H     0.72734   0.36839   0.70890   0.00000  Uiso   1.00
H1805  H     0.72872   0.42771   0.69092   0.00000  Uiso   1.00
H1806  H     0.98614   0.36364   0.69873   0.00000  Uiso   1.00
H1807  H     0.98331   0.42441   0.68349   0.00000  Uiso   1.00
H1808  H     0.69345   0.41169   0.61861   0.00000  Uiso   1.00
H1809  H     0.86991   0.37698   0.80854   0.00000  Uiso   1.00
H1810  H     0.98217   0.37457   0.61664   0.00000  Uiso   1.00
H1811  H     0.69800   0.35058   0.63265   0.00000  Uiso   1.00
H1812  H     0.91558   0.55948   0.67466   0.00000  Uiso   1.00
H1813  H     0.96696   0.54272   0.66025   0.00000  Uiso   1.00
H1814  H     0.93512   0.64356   0.66388   0.00000  Uiso   1.00
H1815  H     0.98528   0.62395   0.64757   0.00000  Uiso   1.00
H1816  H     0.95295   0.57737   0.58547   0.00000  Uiso   1.00
H1817  H     0.94176   0.63884   0.58115   0.00000  Uiso   1.00
H1818  H     0.90326   0.59900   0.60093   0.00000  Uiso   1.00
H1819  H     0.92039   0.43130   0.83679   0.00000  Uiso   1.00
H1820  H     0.79676   0.62292   0.69140   0.00000  Uiso   1.00
H1821  H     0.96083   0.47339   0.83780   0.00000  Uiso   1.00
H1822  H     0.96416   0.36931   0.85929   0.00000  Uiso   1.00
H1823  H     0.67679   0.40193   0.84706   0.00000  Uiso   1.00
H1824  H     0.99508   0.45822   0.90811   0.00000  Uiso   1.00
H1825  H     0.99882   0.39933   0.92829   0.00000  Uiso   1.00
H1826  H     0.94909   0.42580   0.92081   0.00000  Uiso   1.00
H1827  H     0.74127   0.62735   0.78818   0.00000  Uiso   1.00
H1828  H     0.73139   0.57042   0.80937   0.00000  Uiso   1.00
H1829  H     0.66949   0.65105   0.79935   0.00000  Uiso   1.00
H1830  H     0.98959   0.59279   0.81699   0.00000  Uiso   1.00
H1831  H     0.90175   0.52491   0.85451   0.00000  Uiso   1.00
H1832  H     0.70872   0.59961   0.87962   0.00000  Uiso   1.00
H1833  H     0.66780   0.64051   0.88326   0.00000  Uiso   1.00
H1834  H     0.71704   0.65985   0.86405   0.00000  Uiso   1.00
H1835  H     0.76158   0.49592   0.64616   0.00000  Uiso   1.00
H1836  H     0.76327   0.47825   0.85260   0.00000  Uiso   1.00
H1837  H     0.90280   0.47702   0.64674   0.00000  Uiso   1.00
H1838  H     0.72404   0.53753   0.93110   0.00000  Uiso   1.00
N1839  N     0.83333   0.61736   0.75000   0.00000  Uiso   1.00
N1840  N     0.83333   0.38264   0.75000   0.00000  Uiso   1.00
O1841  O     0.77321   0.53958   0.74999   0.00000  Uiso   1.00
O1842  O     0.75845   0.50477   0.61463   0.00000  Uiso   1.00
O1843  O     0.75880   0.48595   0.88413   0.00000  Uiso   1.00
O1844  O     0.90719   0.49003   0.61684   0.00000  Uiso   1.00
O1845  O     0.72083   0.51370   0.95456   0.00000  Uiso   1.00
O1846  O     0.94506   0.48938   0.54317   0.00000  Uiso   1.00
O1847  O     0.72397   0.52901   0.54340   0.00000  Uiso   1.00
O1848  O     0.94383   0.51907   0.95782   0.00000  Uiso   1.00
O1849  O     0.70451   0.41465   0.75400   0.00000  Uiso   1.00
O1850  O     0.95967   0.58029   0.72077   0.00000  Uiso   1.00
O1851  O     0.95961   0.42382   0.78432   0.00000  Uiso   1.00
O1852  O     0.89345   0.46042   0.75000   0.00000  Uiso   1.00
O1853  O     0.70643   0.58647   0.74597   0.00000  Uiso   1.00
O1854  O     0.89345   0.53958   0.75000   0.00000  Uiso   1.00
O1855  O     0.77321   0.46042   0.74999   0.00000  Uiso   1.00
O1856  O     0.83332   0.53960   0.68513   0.00000  Uiso   1.00
O1857  O     0.83334   0.46040   0.81487   0.00000  Uiso   1.00
O1858  O     0.83334   0.53960   0.81487   0.00000  Uiso   1.00
O1859  O     0.83332   0.46040   0.68513   0.00000  Uiso   1.00
O1860  O     0.90644   0.51395   0.88522   0.00000  Uiso   1.00
C1861  C     0.08730   0.83334   0.74997   0.00000  Uiso   1.00
C1862  C     0.04248   0.83377   0.75046   0.00000  Uiso   1.00
C1863  C     0.14681   0.69118   0.71723   0.00000  Uiso   1.00
C1864  C     0.18712   0.97545   0.78237   0.00000  Uiso   1.00
C1865  C     0.18698   0.69164   0.78246   0.00000  Uiso   1.00
C1866  C     0.14647   0.97499   0.71744   0.00000  Uiso   1.00
C1867  C     0.16679   0.83314   0.66461   0.00000  Uiso   1.00
C1868  C     0.16610   0.83347   0.83537   0.00000  Uiso   1.00
C1869  C     0.20315   0.84150   0.90698   0.00000  Uiso   1.00
C1870  C     0.12893   0.83697   0.59305   0.00000  Uiso   1.00
C1871  C     0.16595   0.83431   0.88354   0.00000  Uiso   1.00
C1872  C     0.24585   0.83355   0.75022   0.00000  Uiso   1.00
C1873  C     0.16641   0.83219   0.61642   0.00000  Uiso   1.00
C1874  C     0.12859   0.83016   0.90610   0.00000  Uiso   1.00
C1875  C     0.20373   0.82796   0.59390   0.00000  Uiso   1.00
C1876  C     0.12841   0.83671   0.95252   0.00000  Uiso   1.00
C1877  C     0.20390   0.83093   0.54720   0.00000  Uiso   1.00
C1878  C     0.16608   0.83743   0.97650   0.00000  Uiso   1.00
C1879  C     0.16632   0.83610   0.52346   0.00000  Uiso   1.00
C1880  C     0.20351   0.84001   0.95368   0.00000  Uiso   1.00
C1881  C     0.12900   0.83990   0.54639   0.00000  Uiso   1.00
C1882  C     0.09155   0.84291   0.97583   0.00000  Uiso   1.00
C1883  C     0.09246   0.84817   0.52204   0.00000  Uiso   1.00
C1884  C     0.24094   0.83126   0.52341   0.00000  Uiso   1.00
C1885  C     0.05086   0.91079   0.53615   0.00000  Uiso   1.00
C1886  C     0.07731   0.94140   0.56732   0.00000  Uiso   1.00
C1887  C     0.07399   0.99281   0.55452   0.00000  Uiso   1.00
C1888  C     0.28994   0.89822   0.96983   0.00000  Uiso   1.00
C1889  C     0.26594   0.93586   0.94440   0.00000  Uiso   1.00
C1890  C     0.27799   0.98459   0.96067   0.00000  Uiso   1.00
C1891  C     0.04333   0.73493   0.70893   0.00000  Uiso   1.00
C1892  C     0.00296   0.72628   0.68319   0.00000  Uiso   1.00
C1893  C     0.01138   0.71502   0.63473   0.00000  Uiso   1.00
C1894  C     0.24056   0.84219   0.97829   0.00000  Uiso   1.00
C1895  C     0.28143   0.90386   0.67607   0.00000  Uiso   1.00
C1896  C     0.28574   0.94790   0.64843   0.00000  Uiso   1.00
C1897  C     0.26988   0.94021   0.60104   0.00000  Uiso   1.00
C1898  C     0.28659   0.76953   0.82939   0.00000  Uiso   1.00
C1899  C     0.31179   0.73785   0.85965   0.00000  Uiso   1.00
C1900  C     0.31367   0.75652   0.90718   0.00000  Uiso   1.00
C1901  C     0.05079   0.93299   0.79011   0.00000  Uiso   1.00
C1902  C     0.01462   0.95242   0.81592   0.00000  Uiso   1.00
C1903  C     0.02797   0.96390   0.86357   0.00000  Uiso   1.00
C1904  C     0.02017   0.79174   0.75559   0.00000  Uiso   1.00
C1905  C     0.31206   0.87474   0.73864   0.00000  Uiso   1.00
C1906  C     0.31195   0.79418   0.76359   0.00000  Uiso   1.00
C1907  C     0.02075   0.87642   0.74625   0.00000  Uiso   1.00
C1908  C     0.29033   0.83420   0.75054   0.00000  Uiso   1.00
Cu1909 Cu    0.16667   0.88022   0.75000   0.00000  Uiso   1.00
Cu1910 Cu    0.16667   0.78645   0.75000   0.00000  Uiso   1.00
H1911  H     0.13120   0.70956   0.69070   0.00000  Uiso   1.00
H1912  H     0.27641   0.79126   0.55668   0.00000  Uiso   1.00
H1913  H     0.01839   0.91830   0.54322   0.00000  Uiso   1.00
H1914  H     0.05557   0.92119   0.50101   0.00000  Uiso   1.00
H1915  H     0.06719   0.93673   0.60208   0.00000  Uiso   1.00
H1916  H     0.10995   0.93132   0.56547   0.00000  Uiso   1.00
H1917  H     0.08736   0.99854   0.52132   0.00000  Uiso   1.00
H1918  H     0.09106   0.68133   0.57916   0.00000  Uiso   1.00
H1919  H     0.04149   0.67052   0.55348   0.00000  Uiso   1.00
H1920  H     0.32261   0.90184   0.96121   0.00000  Uiso   1.00
H1921  H     0.28815   0.90458   0.50617   0.00000  Uiso   1.00
H1922  H     0.20365   0.95707   0.80828   0.00000  Uiso   1.00
H1923  H     0.27210   0.93278   0.90835   0.00000  Uiso   1.00
H1924  H     0.23259   0.93139   0.94928   0.00000  Uiso   1.00
H1925  H     0.26915   0.98932   0.99584   0.00000  Uiso   1.00
H1926  H     0.26183   0.67777   0.94023   0.00000  Uiso   1.00
H1927  H     0.31149   0.98999   0.95807   0.00000  Uiso   1.00
H1928  H     0.06067   0.70172   0.70890   0.00000  Uiso   1.00
H1929  H     0.06205   0.76105   0.69092   0.00000  Uiso   1.00
H1930  H     0.31948   0.69698   0.69873   0.00000  Uiso   1.00
H1931  H     0.31664   0.75774   0.68349   0.00000  Uiso   1.00
H1932  H     0.02678   0.74502   0.61861   0.00000  Uiso   1.00
H1933  H     0.20325   0.71032   0.80854   0.00000  Uiso   1.00
H1934  H     0.31550   0.70791   0.61664   0.00000  Uiso   1.00
H1935  H     0.03133   0.68391   0.63265   0.00000  Uiso   1.00
H1936  H     0.24892   0.89281   0.67466   0.00000  Uiso   1.00
H1937  H     0.30029   0.87605   0.66025   0.00000  Uiso   1.00
H1938  H     0.26845   0.97689   0.66388   0.00000  Uiso   1.00
H1939  H     0.31862   0.95728   0.64757   0.00000  Uiso   1.00
H1940  H     0.28628   0.91070   0.58547   0.00000  Uiso   1.00
H1941  H     0.27510   0.97217   0.58115   0.00000  Uiso   1.00
H1942  H     0.23659   0.93233   0.60093   0.00000  Uiso   1.00
H1943  H     0.25372   0.76463   0.83679   0.00000  Uiso   1.00
H1944  H     0.13009   0.95625   0.69140   0.00000  Uiso   1.00
H1945  H     0.29417   0.80672   0.83780   0.00000  Uiso   1.00
H1946  H     0.29749   0.70264   0.85929   0.00000  Uiso   1.00
H1947  H     0.01012   0.73527   0.84706   0.00000  Uiso   1.00
H1948  H     0.32842   0.79155   0.90811   0.00000  Uiso   1.00
H1949  H     0.33215   0.73267   0.92829   0.00000  Uiso   1.00
H1950  H     0.28242   0.75914   0.92081   0.00000  Uiso   1.00
H1951  H     0.07461   0.96068   0.78818   0.00000  Uiso   1.00
H1952  H     0.06473   0.90376   0.80937   0.00000  Uiso   1.00
H1953  H     0.00283   0.98438   0.79935   0.00000  Uiso   1.00
H1954  H     0.32292   0.92612   0.81699   0.00000  Uiso   1.00
H1955  H     0.23508   0.85825   0.85451   0.00000  Uiso   1.00
H1956  H     0.04206   0.93295   0.87962   0.00000  Uiso   1.00
H1957  H     0.00113   0.97385   0.88326   0.00000  Uiso   1.00
H1958  H     0.05037   0.99318   0.86405   0.00000  Uiso   1.00
H1959  H     0.09491   0.82926   0.64616   0.00000  Uiso   1.00
H1960  H     0.09660   0.81158   0.85260   0.00000  Uiso   1.00
H1961  H     0.23614   0.81035   0.64674   0.00000  Uiso   1.00
H1962  H     0.05737   0.87086   0.93110   0.00000  Uiso   1.00
N1963  N     0.16667   0.95069   0.75000   0.00000  Uiso   1.00
N1964  N     0.16667   0.71598   0.75000   0.00000  Uiso   1.00
O1965  O     0.10655   0.87291   0.74999   0.00000  Uiso   1.00
O1966  O     0.09178   0.83810   0.61463   0.00000  Uiso   1.00
O1967  O     0.09213   0.81929   0.88413   0.00000  Uiso   1.00
O1968  O     0.24052   0.82337   0.61684   0.00000  Uiso   1.00
O1969  O     0.05416   0.84703   0.95456   0.00000  Uiso   1.00
O1970  O     0.27839   0.82271   0.54317   0.00000  Uiso   1.00
O1971  O     0.05730   0.86235   0.54340   0.00000  Uiso   1.00
O1972  O     0.27716   0.85240   0.95782   0.00000  Uiso   1.00
O1973  O     0.03785   0.74798   0.75400   0.00000  Uiso   1.00
O1974  O     0.29301   0.91362   0.72077   0.00000  Uiso   1.00
O1975  O     0.29295   0.75716   0.78432   0.00000  Uiso   1.00
O1976  O     0.22679   0.79375   0.75000   0.00000  Uiso   1.00
O1977  O     0.03976   0.91981   0.74597   0.00000  Uiso   1.00
O1978  O     0.22679   0.87291   0.75000   0.00000  Uiso   1.00
O1979  O     0.10655   0.79375   0.74999   0.00000  Uiso   1.00
O1980  O     0.16666   0.87293   0.68513   0.00000  Uiso   1.00
O1981  O     0.16668   0.79373   0.81487   0.00000  Uiso   1.00
O1982  O     0.16668   0.87293   0.81487   0.00000  Uiso   1.00
O1983  O     0.16666   0.79373   0.68513   0.00000  Uiso   1.00
O1984  O     0.23977   0.84729   0.88522   0.00000  Uiso   1.00
C1985  C     0.42063   0.83334   0.74997   0.00000  Uiso   1.00
C1986  C     0.37581   0.83377   0.75046   0.00000  Uiso   1.00
C1987  C     0.48014   0.69118   0.71723   0.00000  Uiso   1.00
C1988  C     0.52046   0.97545   0.78237   0.00000  Uiso   1.00
C1989  C     0.52031   0.69164   0.78246   0.00000  Uiso   1.00
C1990  C     0.47980   0.97499   0.71744   0.00000  Uiso   1.00
C1991  C     0.50013   0.83314   0.66461   0.00000  Uiso   1.00
C1992  C     0.49943   0.83347   0.83537   0.00000  Uiso   1.00
C1993  C     0.53648   0.84150   0.90698   0.00000  Uiso   1.00
C1994  C     0.46227   0.83697   0.59305   0.00000  Uiso   1.00
C1995  C     0.49928   0.83431   0.88354   0.00000  Uiso   1.00
C1996  C     0.57918   0.83355   0.75022   0.00000  Uiso   1.00
C1997  C     0.49975   0.83219   0.61642   0.00000  Uiso   1.00
C1998  C     0.46192   0.83016   0.90610   0.00000  Uiso   1.00
C1999  C     0.53707   0.82796   0.59390   0.00000  Uiso   1.00
C2000  C     0.46174   0.83671   0.95252   0.00000  Uiso   1.00
C2001  C     0.53723   0.83093   0.54720   0.00000  Uiso   1.00
C2002  C     0.49942   0.83743   0.97650   0.00000  Uiso   1.00
C2003  C     0.49965   0.83610   0.52346   0.00000  Uiso   1.00
C2004  C     0.53684   0.84001   0.95368   0.00000  Uiso   1.00
C2005  C     0.46233   0.83990   0.54639   0.00000  Uiso   1.00
C2006  C     0.42488   0.84291   0.97583   0.00000  Uiso   1.00
C2007  C     0.42579   0.84817   0.52204   0.00000  Uiso   1.00
C2008  C     0.57428   0.83126   0.52341   0.00000  Uiso   1.00
C2009  C     0.38419   0.91079   0.53615   0.00000  Uiso   1.00
C2010  C     0.41064   0.94140   0.56732   0.00000  Uiso   1.00
C2011  C     0.40733   0.99281   0.55452   0.00000  Uiso   1.00
C2012  C     0.62328   0.89822   0.96983   0.00000  Uiso   1.00
C2013  C     0.59927   0.93586   0.94440   0.00000  Uiso   1.00
C2014  C     0.61132   0.98459   0.96067   0.00000  Uiso   1.00
C2015  C     0.37666   0.73493   0.70893   0.00000  Uiso   1.00
C2016  C     0.33629   0.72628   0.68319   0.00000  Uiso   1.00
C2017  C     0.34471   0.71502   0.63473   0.00000  Uiso   1.00
C2018  C     0.57390   0.84219   0.97829   0.00000  Uiso   1.00
C2019  C     0.61476   0.90386   0.67607   0.00000  Uiso   1.00
C2020  C     0.61908   0.94790   0.64843   0.00000  Uiso   1.00
C2021  C     0.60322   0.94021   0.60104   0.00000  Uiso   1.00
C2022  C     0.61993   0.76953   0.82939   0.00000  Uiso   1.00
C2023  C     0.64513   0.73785   0.85965   0.00000  Uiso   1.00
C2024  C     0.64701   0.75652   0.90718   0.00000  Uiso   1.00
C2025  C     0.38412   0.93299   0.79011   0.00000  Uiso   1.00
C2026  C     0.34795   0.95242   0.81592   0.00000  Uiso   1.00
C2027  C     0.36130   0.96390   0.86357   0.00000  Uiso   1.00
C2028  C     0.35350   0.79174   0.75559   0.00000  Uiso   1.00
C2029  C     0.64539   0.87474   0.73864   0.00000  Uiso   1.00
C2030  C     0.64528   0.79418   0.76359   0.00000  Uiso   1.00
C2031  C     0.35408   0.87642   0.74625   0.00000  Uiso   1.00
C2032  C     0.62367   0.83420   0.75054   0.00000  Uiso   1.00
Cu2033 Cu    0.50000   0.88022   0.75000   0.00000  Uiso   1.00
Cu2034 Cu    0.50000   0.78645   0.75000   0.00000  Uiso   1.00
H2035  H     0.46454   0.70956   0.69070   0.00000  Uiso   1.00
H2036  H     0.60974   0.79126   0.55668   0.00000  Uiso   1.00
H2037  H     0.35172   0.91830   0.54322   0.00000  Uiso   1.00
H2038  H     0.38890   0.92119   0.50101   0.00000  Uiso   1.00
H2039  H     0.40053   0.93673   0.60208   0.00000  Uiso   1.00
H2040  H     0.44328   0.93132   0.56547   0.00000  Uiso   1.00
H2041  H     0.42070   0.99854   0.52132   0.00000  Uiso   1.00
H2042  H     0.42440   0.68133   0.57916   0.00000  Uiso   1.00
H2043  H     0.37482   0.67052   0.55348   0.00000  Uiso   1.00
H2044  H     0.65594   0.90184   0.96121   0.00000  Uiso   1.00
H2045  H     0.62149   0.90458   0.50617   0.00000  Uiso   1.00
H2046  H     0.53698   0.95707   0.80828   0.00000  Uiso   1.00
H2047  H     0.60543   0.93278   0.90835   0.00000  Uiso   1.00
H2048  H     0.56592   0.93139   0.94928   0.00000  Uiso   1.00
H2049  H     0.60248   0.98932   0.99584   0.00000  Uiso   1.00
H2050  H     0.59516   0.67777   0.94023   0.00000  Uiso   1.00
H2051  H     0.64482   0.98999   0.95807   0.00000  Uiso   1.00
H2052  H     0.39400   0.70172   0.70890   0.00000  Uiso   1.00
H2053  H     0.39539   0.76105   0.69092   0.00000  Uiso   1.00
H2054  H     0.65281   0.69698   0.69873   0.00000  Uiso   1.00
H2055  H     0.64997   0.75774   0.68349   0.00000  Uiso   1.00
H2056  H     0.36012   0.74502   0.61861   0.00000  Uiso   1.00
H2057  H     0.53658   0.71032   0.80854   0.00000  Uiso   1.00
H2058  H     0.64883   0.70791   0.61664   0.00000  Uiso   1.00
H2059  H     0.36466   0.68391   0.63265   0.00000  Uiso   1.00
H2060  H     0.58225   0.89281   0.67466   0.00000  Uiso   1.00
H2061  H     0.63363   0.87605   0.66025   0.00000  Uiso   1.00
H2062  H     0.60179   0.97689   0.66388   0.00000  Uiso   1.00
H2063  H     0.65195   0.95728   0.64757   0.00000  Uiso   1.00
H2064  H     0.61961   0.91070   0.58547   0.00000  Uiso   1.00
H2065  H     0.60843   0.97217   0.58115   0.00000  Uiso   1.00
H2066  H     0.56992   0.93233   0.60093   0.00000  Uiso   1.00
H2067  H     0.58706   0.76463   0.83679   0.00000  Uiso   1.00
H2068  H     0.46342   0.95625   0.69140   0.00000  Uiso   1.00
H2069  H     0.62750   0.80672   0.83780   0.00000  Uiso   1.00
H2070  H     0.63083   0.70264   0.85929   0.00000  Uiso   1.00
H2071  H     0.34345   0.73527   0.84706   0.00000  Uiso   1.00
H2072  H     0.66175   0.79155   0.90811   0.00000  Uiso   1.00
H2073  H     0.66548   0.73267   0.92829   0.00000  Uiso   1.00
H2074  H     0.61576   0.75914   0.92081   0.00000  Uiso   1.00
H2075  H     0.40794   0.96068   0.78818   0.00000  Uiso   1.00
H2076  H     0.39806   0.90376   0.80937   0.00000  Uiso   1.00
H2077  H     0.33616   0.98438   0.79935   0.00000  Uiso   1.00
H2078  H     0.65625   0.92612   0.81699   0.00000  Uiso   1.00
H2079  H     0.56841   0.85825   0.85451   0.00000  Uiso   1.00
H2080  H     0.37539   0.93295   0.87962   0.00000  Uiso   1.00
H2081  H     0.33447   0.97385   0.88326   0.00000  Uiso   1.00
H2082  H     0.38371   0.99318   0.86405   0.00000  Uiso   1.00
H2083  H     0.42824   0.82926   0.64616   0.00000  Uiso   1.00
H2084  H     0.42993   0.81158   0.85260   0.00000  Uiso   1.00
H2085  H     0.56947   0.81035   0.64674   0.00000  Uiso   1.00
H2086  H     0.39070   0.87086   0.93110   0.00000  Uiso   1.00
N2087  N     0.50000   0.95069   0.75000   0.00000  Uiso   1.00
N2088  N     0.50000   0.71598   0.75000   0.00000  Uiso   1.00
O2089  O     0.43988   0.87291   0.74999   0.00000  Uiso   1.00
O2090  O     0.42512   0.83810   0.61463   0.00000  Uiso   1.00
O2091  O     0.42546   0.81929   0.88413   0.00000  Uiso   1.00
O2092  O     0.57385   0.82337   0.61684   0.00000  Uiso   1.00
O2093  O     0.38749   0.84703   0.95456   0.00000  Uiso   1.00
O2094  O     0.61173   0.82271   0.54317   0.00000  Uiso   1.00
O2095  O     0.39064   0.86235   0.54340   0.00000  Uiso   1.00
O2096  O     0.61050   0.85240   0.95782   0.00000  Uiso   1.00
O2097  O     0.37118   0.74798   0.75400   0.00000  Uiso   1.00
O2098  O     0.62634   0.91362   0.72077   0.00000  Uiso   1.00
O2099  O     0.62628   0.75716   0.78432   0.00000  Uiso   1.00
O2100  O     0.56012   0.79375   0.75000   0.00000  Uiso   1.00
O2101  O     0.37310   0.91981   0.74597   0.00000  Uiso   1.00
O2102  O     0.56012   0.87291   0.75000   0.00000  Uiso   1.00
O2103  O     0.43988   0.79375   0.74999   0.00000  Uiso   1.00
O2104  O     0.49999   0.87293   0.68513   0.00000  Uiso   1.00
O2105  O     0.50001   0.79373   0.81487   0.00000  Uiso   1.00
O2106  O     0.50001   0.87293   0.81487   0.00000  Uiso   1.00
O2107  O     0.49999   0.79373   0.68513   0.00000  Uiso   1.00
O2108  O     0.57310   0.84729   0.88522   0.00000  Uiso   1.00
C2109  C     0.75396   0.83334   0.74997   0.00000  Uiso   1.00
C2110  C     0.70915   0.83377   0.75046   0.00000  Uiso   1.00
C2111  C     0.81348   0.69118   0.71723   0.00000  Uiso   1.00
C2112  C     0.85379   0.97545   0.78237   0.00000  Uiso   1.00
C2113  C     0.85364   0.69164   0.78246   0.00000  Uiso   1.00
C2114  C     0.81313   0.97499   0.71744   0.00000  Uiso   1.00
C2115  C     0.83346   0.83314   0.66461   0.00000  Uiso   1.00
C2116  C     0.83277   0.83347   0.83537   0.00000  Uiso   1.00
C2117  C     0.86981   0.84150   0.90698   0.00000  Uiso   1.00
C2118  C     0.79560   0.83697   0.59305   0.00000  Uiso   1.00
C2119  C     0.83262   0.83431   0.88354   0.00000  Uiso   1.00
C2120  C     0.91252   0.83355   0.75022   0.00000  Uiso   1.00
C2121  C     0.83308   0.83219   0.61642   0.00000  Uiso   1.00
C2122  C     0.79525   0.83016   0.90610   0.00000  Uiso   1.00
C2123  C     0.87040   0.82796   0.59390   0.00000  Uiso   1.00
C2124  C     0.79508   0.83671   0.95252   0.00000  Uiso   1.00
C2125  C     0.87056   0.83093   0.54720   0.00000  Uiso   1.00
C2126  C     0.83275   0.83743   0.97650   0.00000  Uiso   1.00
C2127  C     0.83298   0.83610   0.52346   0.00000  Uiso   1.00
C2128  C     0.87017   0.84001   0.95368   0.00000  Uiso   1.00
C2129  C     0.79566   0.83990   0.54639   0.00000  Uiso   1.00
C2130  C     0.75822   0.84291   0.97583   0.00000  Uiso   1.00
C2131  C     0.75912   0.84817   0.52204   0.00000  Uiso   1.00
C2132  C     0.90761   0.83126   0.52341   0.00000  Uiso   1.00
C2133  C     0.71752   0.91079   0.53615   0.00000  Uiso   1.00
C2134  C     0.74398   0.94140   0.56732   0.00000  Uiso   1.00
C2135  C     0.74066   0.99281   0.55452   0.00000  Uiso   1.00
C2136  C     0.95661   0.89822   0.96983   0.00000  Uiso   1.00
C2137  C     0.93261   0.93586   0.94440   0.00000  Uiso   1.00
C2138  C     0.94465   0.98459   0.96067   0.00000  Uiso   1.00
C2139  C     0.70999   0.73493   0.70893   0.00000  Uiso   1.00
C2140  C     0.66962   0.72628   0.68319   0.00000  Uiso   1.00
C2141  C     0.67805   0.71502   0.63473   0.00000  Uiso   1.00
C2142  C     0.90723   0.84219   0.97829   0.00000  Uiso   1.00
C2143  C     0.94809   0.90386   0.67607   0.00000  Uiso   1.00
C2144  C     0.95241   0.94790   0.64843   0.00000  Uiso   1.00
C2145  C     0.93655   0.94021   0.60104   0.00000  Uiso   1.00
C2146  C     0.95326   0.76953   0.82939   0.00000  Uiso   1.00
C2147  C     0.97846   0.73785   0.85965   0.00000  Uiso   1.00
C2148  C     0.98034   0.75652   0.90718   0.00000  Uiso   1.00
C2149  C     0.71745   0.93299   0.79011   0.00000  Uiso   1.00
C2150  C     0.68128   0.95242   0.81592   0.00000  Uiso   1.00
C2151  C     0.69463   0.96390   0.86357   0.00000  Uiso   1.00
C2152  C     0.68683   0.79174   0.75559   0.00000  Uiso   1.00
C2153  C     0.97872   0.87474   0.73864   0.00000  Uiso   1.00
C2154  C     0.97861   0.79418   0.76359   0.00000  Uiso   1.00
C2155  C     0.68741   0.87642   0.74625   0.00000  Uiso   1.00
C2156  C     0.95700   0.83420   0.75054   0.00000  Uiso   1.00
Cu2157 Cu    0.83333   0.88022   0.75000   0.00000  Uiso   1.00
Cu2158 Cu    0.83333   0.78645   0.75000   0.00000  Uiso   1.00
H2159  H     0.79787   0.70956   0.69070   0.00000  Uiso   1.00
H2160  H     0.94307   0.79126   0.55668   0.00000  Uiso   1.00
H2161  H     0.68506   0.91830   0.54322   0.00000  Uiso   1.00
H2162  H     0.72223   0.92119   0.50101   0.00000  Uiso   1.00
H2163  H     0.73386   0.93673   0.60208   0.00000  Uiso   1.00
H2164  H     0.77661   0.93132   0.56547   0.00000  Uiso   1.00
H2165  H     0.75403   0.99854   0.52132   0.00000  Uiso   1.00
H2166  H     0.75773   0.68133   0.57916   0.00000  Uiso   1.00
H2167  H     0.70815   0.67052   0.55348   0.00000  Uiso   1.00
H2168  H     0.98927   0.90184   0.96121   0.00000  Uiso   1.00
H2169  H     0.95482   0.90458   0.50617   0.00000  Uiso   1.00
H2170  H     0.87031   0.95707   0.80828   0.00000  Uiso   1.00
H2171  H     0.93877   0.93278   0.90835   0.00000  Uiso   1.00
H2172  H     0.89926   0.93139   0.94928   0.00000  Uiso   1.00
H2173  H     0.93582   0.98932   0.99584   0.00000  Uiso   1.00
H2174  H     0.92850   0.67777   0.94023   0.00000  Uiso   1.00
H2175  H     0.97815   0.98999   0.95807   0.00000  Uiso   1.00
H2176  H     0.72734   0.70172   0.70890   0.00000  Uiso   1.00
H2177  H     0.72872   0.76105   0.69092   0.00000  Uiso   1.00
H2178  H     0.98614   0.69698   0.69873   0.00000  Uiso   1.00
H2179  H     0.98331   0.75774   0.68349   0.00000  Uiso   1.00
H2180  H     0.69345   0.74502   0.61861   0.00000  Uiso   1.00
H2181  H     0.86991   0.71032   0.80854   0.00000  Uiso   1.00
H2182  H     0.98217   0.70791   0.61664   0.00000  Uiso   1.00
H2183  H     0.69800   0.68391   0.63265   0.00000  Uiso   1.00
H2184  H     0.91558   0.89281   0.67466   0.00000  Uiso   1.00
H2185  H     0.96696   0.87605   0.66025   0.00000  Uiso   1.00
H2186  H     0.93512   0.97689   0.66388   0.00000  Uiso   1.00
H2187  H     0.98528   0.95728   0.64757   0.00000  Uiso   1.00
H2188  H     0.95295   0.91070   0.58547   0.00000  Uiso   1.00
H2189  H     0.94176   0.97217   0.58115   0.00000  Uiso   1.00
H2190  H     0.90326   0.93233   0.60093   0.00000  Uiso   1.00
H2191  H     0.92039   0.76463   0.83679   0.00000  Uiso   1.00
H2192  H     0.79676   0.95625   0.69140   0.00000  Uiso   1.00
H2193  H     0.96083   0.80672   0.83780   0.00000  Uiso   1.00
H2194  H     0.96416   0.70264   0.85929   0.00000  Uiso   1.00
H2195  H     0.67679   0.73527   0.84706   0.00000  Uiso   1.00
H2196  H     0.99508   0.79155   0.90811   0.00000  Uiso   1.00
H2197  H     0.99882   0.73267   0.92829   0.00000  Uiso   1.00
H2198  H     0.94909   0.75914   0.92081   0.00000  Uiso   1.00
H2199  H     0.74127   0.96068   0.78818   0.00000  Uiso   1.00
H2200  H     0.73139   0.90376   0.80937   0.00000  Uiso   1.00
H2201  H     0.66949   0.98438   0.79935   0.00000  Uiso   1.00
H2202  H     0.98959   0.92612   0.81699   0.00000  Uiso   1.00
H2203  H     0.90175   0.85825   0.85451   0.00000  Uiso   1.00
H2204  H     0.70872   0.93295   0.87962   0.00000  Uiso   1.00
H2205  H     0.66780   0.97385   0.88326   0.00000  Uiso   1.00
H2206  H     0.71704   0.99318   0.86405   0.00000  Uiso   1.00
H2207  H     0.76158   0.82926   0.64616   0.00000  Uiso   1.00
H2208  H     0.76327   0.81158   0.85260   0.00000  Uiso   1.00
H2209  H     0.90280   0.81035   0.64674   0.00000  Uiso   1.00
H2210  H     0.72404   0.87086   0.93110   0.00000  Uiso   1.00
N2211  N     0.83333   0.95069   0.75000   0.00000  Uiso   1.00
N2212  N     0.83333   0.71598   0.75000   0.00000  Uiso   1.00
O2213  O     0.77321   0.87291   0.74999   0.00000  Uiso   1.00
O2214  O     0.75845   0.83810   0.61463   0.00000  Uiso   1.00
O2215  O     0.75880   0.81929   0.88413   0.00000  Uiso   1.00
O2216  O     0.90719   0.82337   0.61684   0.00000  Uiso   1.00
O2217  O     0.72083   0.84703   0.95456   0.00000  Uiso   1.00
O2218  O     0.94506   0.82271   0.54317   0.00000  Uiso   1.00
O2219  O     0.72397   0.86235   0.54340   0.00000  Uiso   1.00
O2220  O     0.94383   0.85240   0.95782   0.00000  Uiso   1.00
O2221  O     0.70451   0.74798   0.75400   0.00000  Uiso   1.00
O2222  O     0.95967   0.91362   0.72077   0.00000  Uiso   1.00
O2223  O     0.95961   0.75716   0.78432   0.00000  Uiso   1.00
O2224  O     0.89345   0.79375   0.75000   0.00000  Uiso   1.00
O2225  O     0.70643   0.91981   0.74597   0.00000  Uiso   1.00
O2226  O     0.89345   0.87291   0.75000   0.00000  Uiso   1.00
O2227  O     0.77321   0.79375   0.74999   0.00000  Uiso   1.00
O2228  O     0.83332   0.87293   0.68513   0.00000  Uiso   1.00
O2229  O     0.83334   0.79373   0.81487   0.00000  Uiso   1.00
O2230  O     0.83334   0.87293   0.81487   0.00000  Uiso   1.00
O2231  O     0.83332   0.79373   0.68513   0.00000  Uiso   1.00
O2232  O     0.90644   0.84729   0.88522   0.00000  Uiso   1.00
loop_
_geom_bond_atom_site_label_1
_geom_bond_atom_site_label_2
_geom_bond_distance
_geom_bond_site_symmetry_2
_ccdc_geom_bond_type
C1     C2      1.466   .     S
C1     O119    1.299   .     A
C1     O105    1.293   .     A
C2     C44     1.415   .     A
C2     C47     1.421   .     A
C3     N104    1.367   .     A
C3     H51     1.081   .     S
C3     C750    1.418   1_545 S
C4     N103    1.367   .     A
C4     H62     1.082   .     S
C4     C377    1.418   .     S
C5     N104    1.368   .     A
C5     H73     1.080   .     S
C5     C748    1.418   1_545 S
C6     H84     1.082   .     S
C6     N103    1.368   .     A
C6     C375    1.418   .     S
C7     O120    1.294   .     A
C7     O123    1.289   .     A
C7     C13     1.452   .     S
C8     O121    1.293   .     A
C8     O122    1.290   .     A
C8     C11     1.451   .     S
C9     O124    1.385   .     S
C9     C20     1.408   .     A
C9     C11     1.410   .     A
C10    C21     1.409   .     A
C10    O106    1.388   .     S
C10    C13     1.411   .     A
C11    C14     1.413   .     A
C12    C48     1.455   .     S
C12    O118    1.290   .     A
C12    O116    1.296   .     A
C13    C15     1.412   .     A
C14    O107    1.388   .     S
C14    C16     1.410   .     A
C15    O108    1.385   .     S
C15    C17     1.410   .     A
C16    C22     1.417   .     A
C16    C18     1.418   .     A
C17    C24     1.418   .     A
C17    C19     1.420   .     A
C18    C20     1.416   .     A
C18    C1135   1.415   .     S
C19    C21     1.417   .     A
C19    C1134   1.415   1_554 S
C20    C34     1.411   .     A
C21    C23     1.413   .     A
C22    O109    1.377   .     S
C22    C1139   1.400   .     S
C23    O111    1.388   .     S
C23    C1138   1.400   1_554 S
C24    O110    1.376   .     S
C24    C1150   1.396   1_554 S
C25    H53     1.108   .     S
C25    H54     1.114   .     S
C25    C26     1.536   .     S
C25    O111    1.421   .     S
C26    H55     1.112   .     S
C26    C27     1.527   .     S
C26    H56     1.109   .     S
C27    H57     1.111   .     S
C27    H430    1.111   .     S
C27    H431    1.111   .     S
C28    O112    1.418   .     S
C28    H60     1.108   .     S
C28    C29     1.536   .     S
C28    H1177   1.112   .     S
C29    H63     1.111   .     S
C29    C30     1.525   .     S
C29    H64     1.110   .     S
C30    H67     1.110   .     S
C30    H65     1.111   .     S
C30    H438    1.110   .     S
C31    C32     1.539   .     S
C31    H68     1.109   .     S
C31    H69     1.113   .     S
C31    O113    1.421   .     S
C32    C33     1.524   .     S
C32    H318    1.110   1_455 S
C32    H319    1.109   1_455 S
C33    H72     1.111   .     S
C33    H75     1.109   .     S
C33    H322    1.110   1_455 S
C34    O112    1.386   .     S
C34    C1140   1.396   .     S
C35    C36     1.521   .     S
C35    O114    1.419   .     S
C35    H76     1.108   .     S
C35    H77     1.119   .     S
C36    C37     1.526   .     S
C36    H79     1.108   .     S
C36    H78     1.112   .     S
C37    H81     1.110   .     S
C37    H80     1.109   .     S
C37    H82     1.111   .     S
C38    H83     1.110   .     S
C38    C39     1.524   .     S
C38    H85     1.119   .     S
C38    O115    1.421   .     S
C39    C40     1.527   .     S
C39    H86     1.109   .     S
C39    H211    1.111   .     S
C40    H89     1.109   .     S
C40    H88     1.111   .     S
C40    H90     1.111   .     S
C41    C42     1.532   .     S
C41    H91     1.111   .     S
C41    O117    1.421   .     S
C41    H92     1.115   .     S
C42    H93     1.112   .     S
C42    C43     1.528   .     S
C42    H342    1.111   1_455 S
C43    H98     1.111   .     S
C43    H96     1.110   .     S
C43    H97     1.105   .     S
C44    O113    1.383   .     S
C44    C294    1.386   1_455 S
C45    O114    1.385   .     S
C45    C48     1.409   .     A
C45    C171    1.390   .     S
C46    O115    1.383   .     S
C46    C48     1.403   .     A
C46    C168    1.386   .     S
C47    O117    1.386   .     S
C47    C293    1.390   1_455 S
Cu49   O120    1.965   .     S
Cu49   O118    1.979   .     S
Cu49   N103    2.017   .     S
Cu49   O105    1.977   .     S
Cu49   O122    1.966   .     S
Cu49   Cu50    2.684   .     S
Cu50   N104    2.017   .     S
Cu50   O116    1.977   .     S
Cu50   O121    1.965   .     S
Cu50   O119    1.979   .     S
Cu50   O123    1.966   .     S
H52    O110    0.992   .     S
H58    C771    1.111   1_545 S
H59    C771    1.111   1_545 S
H61    C1144   1.112   1_554 S
H66    C774    1.110   1_545 S
H70    C156    1.110   .     S
H71    C156    1.109   .     S
H74    C157    1.110   .     S
H87    C287    1.111   1_455 S
H94    C166    1.111   .     S
H95    O124    0.988   .     S
H99    O106    0.988   .     S
H100   O107    0.987   .     S
H101   O108    0.988   .     S
H102   O109    0.991   .     S
C125   C126    1.466   .     S
C125   O243    1.299   .     A
C125   O229    1.293   .     A
C126   C168    1.415   .     A
C126   C171    1.421   .     A
C127   N228    1.367   .     A
C127   H175    1.081   .     S
C127   C874    1.418   1_545 S
C128   N227    1.367   .     A
C128   H186    1.082   .     S
C128   C501    1.418   .     S
C129   N228    1.368   .     A
C129   H197    1.080   .     S
C129   C872    1.418   1_545 S
C130   H208    1.082   .     S
C130   N227    1.368   .     A
C130   C499    1.418   .     S
C131   O244    1.294   .     A
C131   O247    1.289   .     A
C131   C137    1.452   .     S
C132   O245    1.293   .     A
C132   O246    1.290   .     A
C132   C135    1.451   .     S
C133   O248    1.385   .     S
C133   C144    1.408   .     A
C133   C135    1.410   .     A
C134   C145    1.409   .     A
C134   O230    1.388   .     S
C134   C137    1.411   .     A
C135   C138    1.413   .     A
C136   C172    1.455   .     S
C136   O242    1.290   .     A
C136   O240    1.296   .     A
C137   C139    1.412   .     A
C138   O231    1.388   .     S
C138   C140    1.410   .     A
C139   O232    1.385   .     S
C139   C141    1.410   .     A
C140   C146    1.417   .     A
C140   C142    1.418   .     A
C141   C148    1.418   .     A
C141   C143    1.420   .     A
C142   C144    1.416   .     A
C142   C1259   1.415   .     S
C143   C145    1.417   .     A
C143   C1258   1.415   1_554 S
C144   C158    1.411   .     A
C145   C147    1.413   .     A
C146   O233    1.377   .     S
C146   C1263   1.400   .     S
C147   O235    1.388   .     S
C147   C1262   1.400   1_554 S
C148   O234    1.376   .     S
C148   C1274   1.396   1_554 S
C149   H177    1.108   .     S
C149   H178    1.114   .     S
C149   C150    1.536   .     S
C149   O235    1.421   .     S
C150   H179    1.112   .     S
C150   C151    1.527   .     S
C150   H180    1.109   .     S
C151   H181    1.111   .     S
C151   H554    1.111   .     S
C151   H555    1.111   .     S
C152   O236    1.418   .     S
C152   H184    1.108   .     S
C152   C153    1.536   .     S
C152   H1301   1.112   .     S
C153   H187    1.111   .     S
C153   C154    1.525   .     S
C153   H188    1.110   .     S
C154   H191    1.110   .     S
C154   H189    1.111   .     S
C154   H562    1.110   .     S
C155   C156    1.539   .     S
C155   H192    1.109   .     S
C155   H193    1.113   .     S
C155   O237    1.421   .     S
C156   C157    1.524   .     S
C157   H196    1.111   .     S
C157   H199    1.109   .     S
C158   O236    1.386   .     S
C158   C1264   1.396   .     S
C159   C160    1.521   .     S
C159   O238    1.419   .     S
C159   H200    1.108   .     S
C159   H201    1.119   .     S
C160   C161    1.526   .     S
C160   H203    1.108   .     S
C160   H202    1.112   .     S
C161   H205    1.110   .     S
C161   H204    1.109   .     S
C161   H206    1.111   .     S
C162   H207    1.110   .     S
C162   C163    1.524   .     S
C162   H209    1.119   .     S
C162   O239    1.421   .     S
C163   C164    1.527   .     S
C163   H210    1.109   .     S
C163   H335    1.111   .     S
C164   H213    1.109   .     S
C164   H212    1.111   .     S
C164   H214    1.111   .     S
C165   C166    1.532   .     S
C165   H215    1.111   .     S
C165   O241    1.421   .     S
C165   H216    1.115   .     S
C166   H217    1.112   .     S
C166   C167    1.528   .     S
C167   H222    1.111   .     S
C167   H220    1.110   .     S
C167   H221    1.105   .     S
C168   O237    1.383   .     S
C169   O238    1.385   .     S
C169   C172    1.409   .     A
C169   C295    1.390   .     S
C170   O239    1.383   .     S
C170   C172    1.403   .     A
C170   C292    1.386   .     S
C171   O241    1.386   .     S
Cu173  O244    1.965   .     S
Cu173  O242    1.979   .     S
Cu173  N227    2.017   .     S
Cu173  O229    1.977   .     S
Cu173  O246    1.966   .     S
Cu173  Cu174   2.684   .     S
Cu174  N228    2.017   .     S
Cu174  O240    1.977   .     S
Cu174  O245    1.965   .     S
Cu174  O243    1.979   .     S
Cu174  O247    1.966   .     S
H176   O234    0.992   .     S
H182   C895    1.111   1_545 S
H183   C895    1.111   1_545 S
H185   C1268   1.112   1_554 S
H190   C898    1.110   1_545 S
H194   C280    1.110   .     S
H195   C280    1.109   .     S
H198   C281    1.110   .     S
H218   C290    1.111   .     S
H219   O248    0.988   .     S
H223   O230    0.988   .     S
H224   O231    0.987   .     S
H225   O232    0.988   .     S
H226   O233    0.991   .     S
C249   C250    1.466   .     S
C249   O367    1.299   .     A
C249   O353    1.293   .     A
C250   C292    1.415   .     A
C250   C295    1.421   .     A
C251   N352    1.367   .     A
C251   H299    1.081   .     S
C251   C998    1.418   1_545 S
C252   N351    1.367   .     A
C252   H310    1.082   .     S
C252   C625    1.418   .     S
C253   N352    1.368   .     A
C253   H321    1.080   .     S
C253   C996    1.418   1_545 S
C254   H332    1.082   .     S
C254   N351    1.368   .     A
C254   C623    1.418   .     S
C255   O368    1.294   .     A
C255   O371    1.289   .     A
C255   C261    1.452   .     S
C256   O369    1.293   .     A
C256   O370    1.290   .     A
C256   C259    1.451   .     S
C257   O372    1.385   .     S
C257   C268    1.408   .     A
C257   C259    1.410   .     A
C258   C269    1.409   .     A
C258   O354    1.388   .     S
C258   C261    1.411   .     A
C259   C262    1.413   .     A
C260   C296    1.455   .     S
C260   O366    1.290   .     A
C260   O364    1.296   .     A
C261   C263    1.412   .     A
C262   O355    1.388   .     S
C262   C264    1.410   .     A
C263   O356    1.385   .     S
C263   C265    1.410   .     A
C264   C270    1.417   .     A
C264   C266    1.418   .     A
C265   C272    1.418   .     A
C265   C267    1.420   .     A
C266   C268    1.416   .     A
C266   C1383   1.415   .     S
C267   C269    1.417   .     A
C267   C1382   1.415   1_554 S
C268   C282    1.411   .     A
C269   C271    1.413   .     A
C270   O357    1.377   .     S
C270   C1387   1.400   .     S
C271   O359    1.388   .     S
C271   C1386   1.400   1_554 S
C272   O358    1.376   .     S
C272   C1398   1.396   1_554 S
C273   H301    1.108   .     S
C273   H302    1.114   .     S
C273   C274    1.536   .     S
C273   O359    1.421   .     S
C274   H303    1.112   .     S
C274   C275    1.527   .     S
C274   H304    1.109   .     S
C275   H305    1.111   .     S
C275   H678    1.111   .     S
C275   H679    1.111   .     S
C276   O360    1.418   .     S
C276   H308    1.108   .     S
C276   C277    1.536   .     S
C276   H1425   1.112   .     S
C277   H311    1.111   .     S
C277   C278    1.525   .     S
C277   H312    1.110   .     S
C278   H315    1.110   .     S
C278   H313    1.111   .     S
C278   H686    1.110   .     S
C279   C280    1.539   .     S
C279   H316    1.109   .     S
C279   H317    1.113   .     S
C279   O361    1.421   .     S
C280   C281    1.524   .     S
C281   H320    1.111   .     S
C281   H323    1.109   .     S
C282   O360    1.386   .     S
C282   C1388   1.396   .     S
C283   C284    1.521   .     S
C283   O362    1.419   .     S
C283   H324    1.108   .     S
C283   H325    1.119   .     S
C284   C285    1.526   .     S
C284   H327    1.108   .     S
C284   H326    1.112   .     S
C285   H329    1.110   .     S
C285   H328    1.109   .     S
C285   H330    1.111   .     S
C286   H331    1.110   .     S
C286   C287    1.524   .     S
C286   H333    1.119   .     S
C286   O363    1.421   .     S
C287   C288    1.527   .     S
C287   H334    1.109   .     S
C287   H87     1.111   1_655 S
C288   H337    1.109   .     S
C288   H336    1.111   .     S
C288   H338    1.111   .     S
C289   C290    1.532   .     S
C289   H339    1.111   .     S
C289   O365    1.421   .     S
C289   H340    1.115   .     S
C290   H341    1.112   .     S
C290   C291    1.528   .     S
C291   H346    1.111   .     S
C291   H344    1.110   .     S
C291   H345    1.105   .     S
C292   O361    1.383   .     S
C293   O362    1.385   .     S
C293   C296    1.409   .     A
C293   C47     1.390   1_655 S
C294   O363    1.383   .     S
C294   C296    1.403   .     A
C294   C44     1.386   1_655 S
C295   O365    1.386   .     S
Cu297  O368    1.965   .     S
Cu297  O366    1.979   .     S
Cu297  N351    2.017   .     S
Cu297  O353    1.977   .     S
Cu297  O370    1.966   .     S
Cu297  Cu298   2.684   .     S
Cu298  N352    2.017   .     S
Cu298  O364    1.977   .     S
Cu298  O369    1.965   .     S
Cu298  O367    1.979   .     S
Cu298  O371    1.966   .     S
H300   O358    0.992   .     S
H306   C1019   1.111   1_545 S
H307   C1019   1.111   1_545 S
H309   C1392   1.112   1_554 S
H314   C1022   1.110   1_545 S
H318   C32     1.110   1_655 S
H319   C32     1.109   1_655 S
H322   C33     1.110   1_655 S
H342   C42     1.111   1_655 S
H343   O372    0.988   .     S
H347   O354    0.988   .     S
H348   O355    0.987   .     S
H349   O356    0.988   .     S
H350   O357    0.991   .     S
C373   C374    1.466   .     S
C373   O491    1.299   .     A
C373   O477    1.293   .     A
C374   C416    1.415   .     A
C374   C419    1.421   .     A
C375   N476    1.367   .     A
C375   H423    1.081   .     S
C376   N475    1.367   .     A
C376   H434    1.082   .     S
C376   C749    1.418   .     S
C377   N476    1.368   .     A
C377   H445    1.080   .     S
C378   H456    1.082   .     S
C378   N475    1.368   .     A
C378   C747    1.418   .     S
C379   O492    1.294   .     A
C379   O495    1.289   .     A
C379   C385    1.452   .     S
C380   O493    1.293   .     A
C380   O494    1.290   .     A
C380   C383    1.451   .     S
C381   O496    1.385   .     S
C381   C392    1.408   .     A
C381   C383    1.410   .     A
C382   C393    1.409   .     A
C382   O478    1.388   .     S
C382   C385    1.411   .     A
C383   C386    1.413   .     A
C384   C420    1.455   .     S
C384   O490    1.290   .     A
C384   O488    1.296   .     A
C385   C387    1.412   .     A
C386   O479    1.388   .     S
C386   C388    1.410   .     A
C387   O480    1.385   .     S
C387   C389    1.410   .     A
C388   C394    1.417   .     A
C388   C390    1.418   .     A
C389   C396    1.418   .     A
C389   C391    1.420   .     A
C390   C392    1.416   .     A
C390   C1507   1.415   .     S
C391   C393    1.417   .     A
C391   C1506   1.415   1_554 S
C392   C406    1.411   .     A
C393   C395    1.413   .     A
C394   O481    1.377   .     S
C394   C1511   1.400   .     S
C395   O483    1.388   .     S
C395   C1510   1.400   1_554 S
C396   O482    1.376   .     S
C396   C1522   1.396   1_554 S
C397   H425    1.108   .     S
C397   H426    1.114   .     S
C397   C398    1.536   .     S
C397   O483    1.421   .     S
C398   H427    1.112   .     S
C398   C399    1.527   .     S
C398   H428    1.109   .     S
C399   H429    1.111   .     S
C399   H802    1.111   .     S
C399   H803    1.111   .     S
C400   O484    1.418   .     S
C400   H432    1.108   .     S
C400   C401    1.536   .     S
C400   H1549   1.112   .     S
C401   H435    1.111   .     S
C401   C402    1.525   .     S
C401   H436    1.110   .     S
C402   H439    1.110   .     S
C402   H437    1.111   .     S
C402   H810    1.110   .     S
C403   C404    1.539   .     S
C403   H440    1.109   .     S
C403   H441    1.113   .     S
C403   O485    1.421   .     S
C404   C405    1.524   .     S
C404   H690    1.110   1_455 S
C404   H691    1.109   1_455 S
C405   H444    1.111   .     S
C405   H447    1.109   .     S
C405   H694    1.110   1_455 S
C406   O484    1.386   .     S
C406   C1512   1.396   .     S
C407   C408    1.521   .     S
C407   O486    1.419   .     S
C407   H448    1.108   .     S
C407   H449    1.119   .     S
C408   C409    1.526   .     S
C408   H451    1.108   .     S
C408   H450    1.112   .     S
C409   H453    1.110   .     S
C409   H452    1.109   .     S
C409   H454    1.111   .     S
C410   H455    1.110   .     S
C410   C411    1.524   .     S
C410   H457    1.119   .     S
C410   O487    1.421   .     S
C411   C412    1.527   .     S
C411   H458    1.109   .     S
C411   H583    1.111   .     S
C412   H461    1.109   .     S
C412   H460    1.111   .     S
C412   H462    1.111   .     S
C413   C414    1.532   .     S
C413   H463    1.111   .     S
C413   O489    1.421   .     S
C413   H464    1.115   .     S
C414   H465    1.112   .     S
C414   C415    1.528   .     S
C414   H714    1.111   1_455 S
C415   H470    1.111   .     S
C415   H468    1.110   .     S
C415   H469    1.105   .     S
C416   O485    1.383   .     S
C416   C666    1.386   1_455 S
C417   O486    1.385   .     S
C417   C420    1.409   .     A
C417   C543    1.390   .     S
C418   O487    1.383   .     S
C418   C420    1.403   .     A
C418   C540    1.386   .     S
C419   O489    1.386   .     S
C419   C665    1.390   1_455 S
Cu421  O492    1.965   .     S
Cu421  O490    1.979   .     S
Cu421  N475    2.017   .     S
Cu421  O477    1.977   .     S
Cu421  O494    1.966   .     S
Cu421  Cu422   2.684   .     S
Cu422  N476    2.017   .     S
Cu422  O488    1.977   .     S
Cu422  O493    1.965   .     S
Cu422  O491    1.979   .     S
Cu422  O495    1.966   .     S
H424   O482    0.992   .     S
H433   C1516   1.112   1_554 S
H442   C528    1.110   .     S
H443   C528    1.109   .     S
H446   C529    1.110   .     S
H459   C659    1.111   1_455 S
H466   C538    1.111   .     S
H467   O496    0.988   .     S
H471   O478    0.988   .     S
H472   O479    0.987   .     S
H473   O480    0.988   .     S
H474   O481    0.991   .     S
C497   C498    1.466   .     S
C497   O615    1.299   .     A
C497   O601    1.293   .     A
C498   C540    1.415   .     A
C498   C543    1.421   .     A
C499   N600    1.367   .     A
C499   H547    1.081   .     S
C500   N599    1.367   .     A
C500   H558    1.082   .     S
C500   C873    1.418   .     S
C501   N600    1.368   .     A
C501   H569    1.080   .     S
C502   H580    1.082   .     S
C502   N599    1.368   .     A
C502   C871    1.418   .     S
C503   O616    1.294   .     A
C503   O619    1.289   .     A
C503   C509    1.452   .     S
C504   O617    1.293   .     A
C504   O618    1.290   .     A
C504   C507    1.451   .     S
C505   O620    1.385   .     S
C505   C516    1.408   .     A
C505   C507    1.410   .     A
C506   C517    1.409   .     A
C506   O602    1.388   .     S
C506   C509    1.411   .     A
C507   C510    1.413   .     A
C508   C544    1.455   .     S
C508   O614    1.290   .     A
C508   O612    1.296   .     A
C509   C511    1.412   .     A
C510   O603    1.388   .     S
C510   C512    1.410   .     A
C511   O604    1.385   .     S
C511   C513    1.410   .     A
C512   C518    1.417   .     A
C512   C514    1.418   .     A
C513   C520    1.418   .     A
C513   C515    1.420   .     A
C514   C516    1.416   .     A
C514   C1631   1.415   .     S
C515   C517    1.417   .     A
C515   C1630   1.415   1_554 S
C516   C530    1.411   .     A
C517   C519    1.413   .     A
C518   O605    1.377   .     S
C518   C1635   1.400   .     S
C519   O607    1.388   .     S
C519   C1634   1.400   1_554 S
C520   O606    1.376   .     S
C520   C1646   1.396   1_554 S
C521   H549    1.108   .     S
C521   H550    1.114   .     S
C521   C522    1.536   .     S
C521   O607    1.421   .     S
C522   H551    1.112   .     S
C522   C523    1.527   .     S
C522   H552    1.109   .     S
C523   H553    1.111   .     S
C523   H926    1.111   .     S
C523   H927    1.111   .     S
C524   O608    1.418   .     S
C524   H556    1.108   .     S
C524   C525    1.536   .     S
C524   H1673   1.112   .     S
C525   H559    1.111   .     S
C525   C526    1.525   .     S
C525   H560    1.110   .     S
C526   H563    1.110   .     S
C526   H561    1.111   .     S
C526   H934    1.110   .     S
C527   C528    1.539   .     S
C527   H564    1.109   .     S
C527   H565    1.113   .     S
C527   O609    1.421   .     S
C528   C529    1.524   .     S
C529   H568    1.111   .     S
C529   H571    1.109   .     S
C530   O608    1.386   .     S
C530   C1636   1.396   .     S
C531   C532    1.521   .     S
C531   O610    1.419   .     S
C531   H572    1.108   .     S
C531   H573    1.119   .     S
C532   C533    1.526   .     S
C532   H575    1.108   .     S
C532   H574    1.112   .     S
C533   H577    1.110   .     S
C533   H576    1.109   .     S
C533   H578    1.111   .     S
C534   H579    1.110   .     S
C534   C535    1.524   .     S
C534   H581    1.119   .     S
C534   O611    1.421   .     S
C535   C536    1.527   .     S
C535   H582    1.109   .     S
C535   H707    1.111   .     S
C536   H585    1.109   .     S
C536   H584    1.111   .     S
C536   H586    1.111   .     S
C537   C538    1.532   .     S
C537   H587    1.111   .     S
C537   O613    1.421   .     S
C537   H588    1.115   .     S
C538   H589    1.112   .     S
C538   C539    1.528   .     S
C539   H594    1.111   .     S
C539   H592    1.110   .     S
C539   H593    1.105   .     S
C540   O609    1.383   .     S
C541   O610    1.385   .     S
C541   C544    1.409   .     A
C541   C667    1.390   .     S
C542   O611    1.383   .     S
C542   C544    1.403   .     A
C542   C664    1.386   .     S
C543   O613    1.386   .     S
Cu545  O616    1.965   .     S
Cu545  O614    1.979   .     S
Cu545  N599    2.017   .     S
Cu545  O601    1.977   .     S
Cu545  O618    1.966   .     S
Cu545  Cu546   2.684   .     S
Cu546  N600    2.017   .     S
Cu546  O612    1.977   .     S
Cu546  O617    1.965   .     S
Cu546  O615    1.979   .     S
Cu546  O619    1.966   .     S
H548   O606    0.992   .     S
H557   C1640   1.112   1_554 S
H566   C652    1.110   .     S
H567   C652    1.109   .     S
H570   C653    1.110   .     S
H590   C662    1.111   .     S
H591   O620    0.988   .     S
H595   O602    0.988   .     S
H596   O603    0.987   .     S
H597   O604    0.988   .     S
H598   O605    0.991   .     S
C621   C622    1.466   .     S
C621   O739    1.299   .     A
C621   O725    1.293   .     A
C622   C664    1.415   .     A
C622   C667    1.421   .     A
C623   N724    1.367   .     A
C623   H671    1.081   .     S
C624   N723    1.367   .     A
C624   H682    1.082   .     S
C624   C997    1.418   .     S
C625   N724    1.368   .     A
C625   H693    1.080   .     S
C626   H704    1.082   .     S
C626   N723    1.368   .     A
C626   C995    1.418   .     S
C627   O740    1.294   .     A
C627   O743    1.289   .     A
C627   C633    1.452   .     S
C628   O741    1.293   .     A
C628   O742    1.290   .     A
C628   C631    1.451   .     S
C629   O744    1.385   .     S
C629   C640    1.408   .     A
C629   C631    1.410   .     A
C630   C641    1.409   .     A
C630   O726    1.388   .     S
C630   C633    1.411   .     A
C631   C634    1.413   .     A
C632   C668    1.455   .     S
C632   O738    1.290   .     A
C632   O736    1.296   .     A
C633   C635    1.412   .     A
C634   O727    1.388   .     S
C634   C636    1.410   .     A
C635   O728    1.385   .     S
C635   C637    1.410   .     A
C636   C642    1.417   .     A
C636   C638    1.418   .     A
C637   C644    1.418   .     A
C637   C639    1.420   .     A
C638   C640    1.416   .     A
C638   C1755   1.415   .     S
C639   C641    1.417   .     A
C639   C1754   1.415   1_554 S
C640   C654    1.411   .     A
C641   C643    1.413   .     A
C642   O729    1.377   .     S
C642   C1759   1.400   .     S
C643   O731    1.388   .     S
C643   C1758   1.400   1_554 S
C644   O730    1.376   .     S
C644   C1770   1.396   1_554 S
C645   H673    1.108   .     S
C645   H674    1.114   .     S
C645   C646    1.536   .     S
C645   O731    1.421   .     S
C646   H675    1.112   .     S
C646   C647    1.527   .     S
C646   H676    1.109   .     S
C647   H677    1.111   .     S
C647   H1050   1.111   .     S
C647   H1051   1.111   .     S
C648   O732    1.418   .     S
C648   H680    1.108   .     S
C648   C649    1.536   .     S
C648   H1797   1.112   .     S
C649   H683    1.111   .     S
C649   C650    1.525   .     S
C649   H684    1.110   .     S
C650   H687    1.110   .     S
C650   H685    1.111   .     S
C650   H1058   1.110   .     S
C651   C652    1.539   .     S
C651   H688    1.109   .     S
C651   H689    1.113   .     S
C651   O733    1.421   .     S
C652   C653    1.524   .     S
C653   H692    1.111   .     S
C653   H695    1.109   .     S
C654   O732    1.386   .     S
C654   C1760   1.396   .     S
C655   C656    1.521   .     S
C655   O734    1.419   .     S
C655   H696    1.108   .     S
C655   H697    1.119   .     S
C656   C657    1.526   .     S
C656   H699    1.108   .     S
C656   H698    1.112   .     S
C657   H701    1.110   .     S
C657   H700    1.109   .     S
C657   H702    1.111   .     S
C658   H703    1.110   .     S
C658   C659    1.524   .     S
C658   H705    1.119   .     S
C658   O735    1.421   .     S
C659   C660    1.527   .     S
C659   H706    1.109   .     S
C659   H459    1.111   1_655 S
C660   H709    1.109   .     S
C660   H708    1.111   .     S
C660   H710    1.111   .     S
C661   C662    1.532   .     S
C661   H711    1.111   .     S
C661   O737    1.421   .     S
C661   H712    1.115   .     S
C662   H713    1.112   .     S
C662   C663    1.528   .     S
C663   H718    1.111   .     S
C663   H716    1.110   .     S
C663   H717    1.105   .     S
C664   O733    1.383   .     S
C665   O734    1.385   .     S
C665   C668    1.409   .     A
C665   C419    1.390   1_655 S
C666   O735    1.383   .     S
C666   C668    1.403   .     A
C666   C416    1.386   1_655 S
C667   O737    1.386   .     S
Cu669  O740    1.965   .     S
Cu669  O738    1.979   .     S
Cu669  N723    2.017   .     S
Cu669  O725    1.977   .     S
Cu669  O742    1.966   .     S
Cu669  Cu670   2.684   .     S
Cu670  N724    2.017   .     S
Cu670  O736    1.977   .     S
Cu670  O741    1.965   .     S
Cu670  O739    1.979   .     S
Cu670  O743    1.966   .     S
H672   O730    0.992   .     S
H681   C1764   1.112   1_554 S
H690   C404    1.110   1_655 S
H691   C404    1.109   1_655 S
H694   C405    1.110   1_655 S
H714   C414    1.111   1_655 S
H715   O744    0.988   .     S
H719   O726    0.988   .     S
H720   O727    0.987   .     S
H721   O728    0.988   .     S
H722   O729    0.991   .     S
C745   C746    1.466   .     S
C745   O863    1.299   .     A
C745   O849    1.293   .     A
C746   C788    1.415   .     A
C746   C791    1.421   .     A
C747   N848    1.367   .     A
C747   H795    1.081   .     S
C748   N847    1.367   .     A
C748   H806    1.082   .     S
C748   C5      1.418   1_565 S
C749   N848    1.368   .     A
C749   H817    1.080   .     S
C750   H828    1.082   .     S
C750   N847    1.368   .     A
C750   C3      1.418   1_565 S
C751   O864    1.294   .     A
C751   O867    1.289   .     A
C751   C757    1.452   .     S
C752   O865    1.293   .     A
C752   O866    1.290   .     A
C752   C755    1.451   .     S
C753   O868    1.385   .     S
C753   C764    1.408   .     A
C753   C755    1.410   .     A
C754   C765    1.409   .     A
C754   O850    1.388   .     S
C754   C757    1.411   .     A
C755   C758    1.413   .     A
C756   C792    1.455   .     S
C756   O862    1.290   .     A
C756   O860    1.296   .     A
C757   C759    1.412   .     A
C758   O851    1.388   .     S
C758   C760    1.410   .     A
C759   O852    1.385   .     S
C759   C761    1.410   .     A
C760   C766    1.417   .     A
C760   C762    1.418   .     A
C761   C768    1.418   .     A
C761   C763    1.420   .     A
C762   C764    1.416   .     A
C762   C1879   1.415   .     S
C763   C765    1.417   .     A
C763   C1878   1.415   1_554 S
C764   C778    1.411   .     A
C765   C767    1.413   .     A
C766   O853    1.377   .     S
C766   C1883   1.400   .     S
C767   O855    1.388   .     S
C767   C1882   1.400   1_554 S
C768   O854    1.376   .     S
C768   C1894   1.396   1_554 S
C769   H797    1.108   .     S
C769   H798    1.114   .     S
C769   C770    1.536   .     S
C769   O855    1.421   .     S
C770   H799    1.112   .     S
C770   C771    1.527   .     S
C770   H800    1.109   .     S
C771   H801    1.111   .     S
C771   H58     1.111   1_565 S
C771   H59     1.111   1_565 S
C772   O856    1.418   .     S
C772   H804    1.108   .     S
C772   C773    1.536   .     S
C772   H1921   1.112   .     S
C773   H807    1.111   .     S
C773   C774    1.525   .     S
C773   H808    1.110   .     S
C774   H811    1.110   .     S
C774   H809    1.111   .     S
C774   H66     1.110   1_565 S
C775   C776    1.539   .     S
C775   H812    1.109   .     S
C775   H813    1.113   .     S
C775   O857    1.421   .     S
C776   C777    1.524   .     S
C776   H1062   1.110   1_455 S
C776   H1063   1.109   1_455 S
C777   H816    1.111   .     S
C777   H819    1.109   .     S
C777   H1066   1.110   1_455 S
C778   O856    1.386   .     S
C778   C1884   1.396   .     S
C779   C780    1.521   .     S
C779   O858    1.419   .     S
C779   H820    1.108   .     S
C779   H821    1.119   .     S
C780   C781    1.526   .     S
C780   H823    1.108   .     S
C780   H822    1.112   .     S
C781   H825    1.110   .     S
C781   H824    1.109   .     S
C781   H826    1.111   .     S
C782   H827    1.110   .     S
C782   C783    1.524   .     S
C782   H829    1.119   .     S
C782   O859    1.421   .     S
C783   C784    1.527   .     S
C783   H830    1.109   .     S
C783   H955    1.111   .     S
C784   H833    1.109   .     S
C784   H832    1.111   .     S
C784   H834    1.111   .     S
C785   C786    1.532   .     S
C785   H835    1.111   .     S
C785   O861    1.421   .     S
C785   H836    1.115   .     S
C786   H837    1.112   .     S
C786   C787    1.528   .     S
C786   H1086   1.111   1_455 S
C787   H842    1.111   .     S
C787   H840    1.110   .     S
C787   H841    1.105   .     S
C788   O857    1.383   .     S
C788   C1038   1.386   1_455 S
C789   O858    1.385   .     S
C789   C792    1.409   .     A
C789   C915    1.390   .     S
C790   O859    1.383   .     S
C790   C792    1.403   .     A
C790   C912    1.386   .     S
C791   O861    1.386   .     S
C791   C1037   1.390   1_455 S
Cu793  O864    1.965   .     S
Cu793  O862    1.979   .     S
Cu793  N847    2.017   .     S
Cu793  O849    1.977   .     S
Cu793  O866    1.966   .     S
Cu793  Cu794   2.684   .     S
Cu794  N848    2.017   .     S
Cu794  O860    1.977   .     S
Cu794  O865    1.965   .     S
Cu794  O863    1.979   .     S
Cu794  O867    1.966   .     S
H796   O854    0.992   .     S
H805   C1888   1.112   1_554 S
H814   C900    1.110   .     S
H815   C900    1.109   .     S
H818   C901    1.110   .     S
H831   C1031   1.111   1_455 S
H838   C910    1.111   .     S
H839   O868    0.988   .     S
H843   O850    0.988   .     S
H844   O851    0.987   .     S
H845   O852    0.988   .     S
H846   O853    0.991   .     S
C869   C870    1.466   .     S
C869   O987    1.299   .     A
C869   O973    1.293   .     A
C870   C912    1.415   .     A
C870   C915    1.421   .     A
C871   N972    1.367   .     A
C871   H919    1.081   .     S
C872   N971    1.367   .     A
C872   H930    1.082   .     S
C872   C129    1.418   1_565 S
C873   N972    1.368   .     A
C873   H941    1.080   .     S
C874   H952    1.082   .     S
C874   N971    1.368   .     A
C874   C127    1.418   1_565 S
C875   O988    1.294   .     A
C875   O991    1.289   .     A
C875   C881    1.452   .     S
C876   O989    1.293   .     A
C876   O990    1.290   .     A
C876   C879    1.451   .     S
C877   O992    1.385   .     S
C877   C888    1.408   .     A
C877   C879    1.410   .     A
C878   C889    1.409   .     A
C878   O974    1.388   .     S
C878   C881    1.411   .     A
C879   C882    1.413   .     A
C880   C916    1.455   .     S
C880   O986    1.290   .     A
C880   O984    1.296   .     A
C881   C883    1.412   .     A
C882   O975    1.388   .     S
C882   C884    1.410   .     A
C883   O976    1.385   .     S
C883   C885    1.410   .     A
C884   C890    1.417   .     A
C884   C886    1.418   .     A
C885   C892    1.418   .     A
C885   C887    1.420   .     A
C886   C888    1.416   .     A
C886   C2003   1.415   .     S
C887   C889    1.417   .     A
C887   C2002   1.415   1_554 S
C888   C902    1.411   .     A
C889   C891    1.413   .     A
C890   O977    1.377   .     S
C890   C2007   1.400   .     S
C891   O979    1.388   .     S
C891   C2006   1.400   1_554 S
C892   O978    1.376   .     S
C892   C2018   1.396   1_554 S
C893   H921    1.108   .     S
C893   H922    1.114   .     S
C893   C894    1.536   .     S
C893   O979    1.421   .     S
C894   H923    1.112   .     S
C894   C895    1.527   .     S
C894   H924    1.109   .     S
C895   H925    1.111   .     S
C895   H182    1.111   1_565 S
C895   H183    1.111   1_565 S
C896   O980    1.418   .     S
C896   H928    1.108   .     S
C896   C897    1.536   .     S
C896   H2045   1.112   .     S
C897   H931    1.111   .     S
C897   C898    1.525   .     S
C897   H932    1.110   .     S
C898   H935    1.110   .     S
C898   H933    1.111   .     S
C898   H190    1.110   1_565 S
C899   C900    1.539   .     S
C899   H936    1.109   .     S
C899   H937    1.113   .     S
C899   O981    1.421   .     S
C900   C901    1.524   .     S
C901   H940    1.111   .     S
C901   H943    1.109   .     S
C902   O980    1.386   .     S
C902   C2008   1.396   .     S
C903   C904    1.521   .     S
C903   O982    1.419   .     S
C903   H944    1.108   .     S
C903   H945    1.119   .     S
C904   C905    1.526   .     S
C904   H947    1.108   .     S
C904   H946    1.112   .     S
C905   H949    1.110   .     S
C905   H948    1.109   .     S
C905   H950    1.111   .     S
C906   H951    1.110   .     S
C906   C907    1.524   .     S
C906   H953    1.119   .     S
C906   O983    1.421   .     S
C907   C908    1.527   .     S
C907   H954    1.109   .     S
C907   H1079   1.111   .     S
C908   H957    1.109   .     S
C908   H956    1.111   .     S
C908   H958    1.111   .     S
C909   C910    1.532   .     S
C909   H959    1.111   .     S
C909   O985    1.421   .     S
C909   H960    1.115   .     S
C910   H961    1.112   .     S
C910   C911    1.528   .     S
C911   H966    1.111   .     S
C911   H964    1.110   .     S
C911   H965    1.105   .     S
C912   O981    1.383   .     S
C913   O982    1.385   .     S
C913   C916    1.409   .     A
C913   C1039   1.390   .     S
C914   O983    1.383   .     S
C914   C916    1.403   .     A
C914   C1036   1.386   .     S
C915   O985    1.386   .     S
Cu917  O988    1.965   .     S
Cu917  O986    1.979   .     S
Cu917  N971    2.017   .     S
Cu917  O973    1.977   .     S
Cu917  O990    1.966   .     S
Cu917  Cu918   2.684   .     S
Cu918  N972    2.017   .     S
Cu918  O984    1.977   .     S
Cu918  O989    1.965   .     S
Cu918  O987    1.979   .     S
Cu918  O991    1.966   .     S
H920   O978    0.992   .     S
H929   C2012   1.112   1_554 S
H938   C1024   1.110   .     S
H939   C1024   1.109   .     S
H942   C1025   1.110   .     S
H962   C1034   1.111   .     S
H963   O992    0.988   .     S
H967   O974    0.988   .     S
H968   O975    0.987   .     S
H969   O976    0.988   .     S
H970   O977    0.991   .     S
C993   C994    1.466   .     S
C993   O1111   1.299   .     A
C993   O1097   1.293   .     A
C994   C1036   1.415   .     A
C994   C1039   1.421   .     A
C995   N1096   1.367   .     A
C995   H1043   1.081   .     S
C996   N1095   1.367   .     A
C996   H1054   1.082   .     S
C996   C253    1.418   1_565 S
C997   N1096   1.368   .     A
C997   H1065   1.080   .     S
C998   H1076   1.082   .     S
C998   N1095   1.368   .     A
C998   C251    1.418   1_565 S
C999   O1112   1.294   .     A
C999   O1115   1.289   .     A
C999   C1005   1.452   .     S
C1000  O1113   1.293   .     A
C1000  O1114   1.290   .     A
C1000  C1003   1.451   .     S
C1001  O1116   1.385   .     S
C1001  C1012   1.408   .     A
C1001  C1003   1.410   .     A
C1002  C1013   1.409   .     A
C1002  O1098   1.388   .     S
C1002  C1005   1.411   .     A
C1003  C1006   1.413   .     A
C1004  C1040   1.455   .     S
C1004  O1110   1.290   .     A
C1004  O1108   1.296   .     A
C1005  C1007   1.412   .     A
C1006  O1099   1.388   .     S
C1006  C1008   1.410   .     A
C1007  O1100   1.385   .     S
C1007  C1009   1.410   .     A
C1008  C1014   1.417   .     A
C1008  C1010   1.418   .     A
C1009  C1016   1.418   .     A
C1009  C1011   1.420   .     A
C1010  C1012   1.416   .     A
C1010  C2127   1.415   .     S
C1011  C1013   1.417   .     A
C1011  C2126   1.415   1_554 S
C1012  C1026   1.411   .     A
C1013  C1015   1.413   .     A
C1014  O1101   1.377   .     S
C1014  C2131   1.400   .     S
C1015  O1103   1.388   .     S
C1015  C2130   1.400   1_554 S
C1016  O1102   1.376   .     S
C1016  C2142   1.396   1_554 S
C1017  H1045   1.108   .     S
C1017  H1046   1.114   .     S
C1017  C1018   1.536   .     S
C1017  O1103   1.421   .     S
C1018  H1047   1.112   .     S
C1018  C1019   1.527   .     S
C1018  H1048   1.109   .     S
C1019  H1049   1.111   .     S
C1019  H306    1.111   1_565 S
C1019  H307    1.111   1_565 S
C1020  O1104   1.418   .     S
C1020  H1052   1.108   .     S
C1020  C1021   1.536   .     S
C1020  H2169   1.112   .     S
C1021  H1055   1.111   .     S
C1021  C1022   1.525   .     S
C1021  H1056   1.110   .     S
C1022  H1059   1.110   .     S
C1022  H1057   1.111   .     S
C1022  H314    1.110   1_565 S
C1023  C1024   1.539   .     S
C1023  H1060   1.109   .     S
C1023  H1061   1.113   .     S
C1023  O1105   1.421   .     S
C1024  C1025   1.524   .     S
C1025  H1064   1.111   .     S
C1025  H1067   1.109   .     S
C1026  O1104   1.386   .     S
C1026  C2132   1.396   .     S
C1027  C1028   1.521   .     S
C1027  O1106   1.419   .     S
C1027  H1068   1.108   .     S
C1027  H1069   1.119   .     S
C1028  C1029   1.526   .     S
C1028  H1071   1.108   .     S
C1028  H1070   1.112   .     S
C1029  H1073   1.110   .     S
C1029  H1072   1.109   .     S
C1029  H1074   1.111   .     S
C1030  H1075   1.110   .     S
C1030  C1031   1.524   .     S
C1030  H1077   1.119   .     S
C1030  O1107   1.421   .     S
C1031  C1032   1.527   .     S
C1031  H1078   1.109   .     S
C1031  H831    1.111   1_655 S
C1032  H1081   1.109   .     S
C1032  H1080   1.111   .     S
C1032  H1082   1.111   .     S
C1033  C1034   1.532   .     S
C1033  H1083   1.111   .     S
C1033  O1109   1.421   .     S
C1033  H1084   1.115   .     S
C1034  H1085   1.112   .     S
C1034  C1035   1.528   .     S
C1035  H1090   1.111   .     S
C1035  H1088   1.110   .     S
C1035  H1089   1.105   .     S
C1036  O1105   1.383   .     S
C1037  O1106   1.385   .     S
C1037  C1040   1.409   .     A
C1037  C791    1.390   1_655 S
C1038  O1107   1.383   .     S
C1038  C1040   1.403   .     A
C1038  C788    1.386   1_655 S
C1039  O1109   1.386   .     S
Cu1041 O1112   1.965   .     S
Cu1041 O1110   1.979   .     S
Cu1041 N1095   2.017   .     S
Cu1041 O1097   1.977   .     S
Cu1041 O1114   1.966   .     S
Cu1041 Cu1042  2.684   .     S
Cu1042 N1096   2.017   .     S
Cu1042 O1108   1.977   .     S
Cu1042 O1113   1.965   .     S
Cu1042 O1111   1.979   .     S
Cu1042 O1115   1.966   .     S
H1044  O1102   0.992   .     S
H1053  C2136   1.112   1_554 S
H1062  C776    1.110   1_655 S
H1063  C776    1.109   1_655 S
H1066  C777    1.110   1_655 S
H1086  C786    1.111   1_655 S
H1087  O1116   0.988   .     S
H1091  O1098   0.988   .     S
H1092  O1099   0.987   .     S
H1093  O1100   0.988   .     S
H1094  O1101   0.991   .     S
C1117  C1118   1.466   .     S
C1117  O1235   1.299   .     A
C1117  O1221   1.293   .     A
C1118  C1160   1.415   .     A
C1118  C1163   1.421   .     A
C1119  N1220   1.367   .     A
C1119  H1167   1.081   .     S
C1119  C1866   1.418   1_545 S
C1120  N1219   1.367   .     A
C1120  H1178   1.082   .     S
C1120  C1493   1.418   .     S
C1121  N1220   1.368   .     A
C1121  H1189   1.080   .     S
C1121  C1864   1.418   1_545 S
C1122  H1200   1.082   .     S
C1122  N1219   1.368   .     A
C1122  C1491   1.418   .     S
C1123  O1236   1.294   .     A
C1123  O1239   1.289   .     A
C1123  C1129   1.452   .     S
C1124  O1237   1.293   .     A
C1124  O1238   1.290   .     A
C1124  C1127   1.451   .     S
C1125  O1240   1.385   .     S
C1125  C1136   1.408   .     A
C1125  C1127   1.410   .     A
C1126  C1137   1.409   .     A
C1126  O1222   1.388   .     S
C1126  C1129   1.411   .     A
C1127  C1130   1.413   .     A
C1128  C1164   1.455   .     S
C1128  O1234   1.290   .     A
C1128  O1232   1.296   .     A
C1129  C1131   1.412   .     A
C1130  O1223   1.388   .     S
C1130  C1132   1.410   .     A
C1131  O1224   1.385   .     S
C1131  C1133   1.410   .     A
C1132  C1138   1.417   .     A
C1132  C1134   1.418   .     A
C1133  C1140   1.418   .     A
C1133  C1135   1.420   .     A
C1134  C1136   1.416   .     A
C1134  C19     1.415   1_556 S
C1135  C1137   1.417   .     A
C1136  C1150   1.411   .     A
C1137  C1139   1.413   .     A
C1138  O1225   1.377   .     S
C1138  C23     1.400   1_556 S
C1139  O1227   1.388   .     S
C1140  O1226   1.376   .     S
C1141  H1169   1.108   .     S
C1141  H1170   1.114   .     S
C1141  C1142   1.536   .     S
C1141  O1227   1.421   .     S
C1142  H1171   1.112   .     S
C1142  C1143   1.527   .     S
C1142  H1172   1.109   .     S
C1143  H1173   1.111   .     S
C1143  H1546   1.111   .     S
C1143  H1547   1.111   .     S
C1144  O1228   1.418   .     S
C1144  H1176   1.108   .     S
C1144  C1145   1.536   .     S
C1144  H61     1.112   1_556 S
C1145  H1179   1.111   .     S
C1145  C1146   1.525   .     S
C1145  H1180   1.110   .     S
C1146  H1183   1.110   .     S
C1146  H1181   1.111   .     S
C1146  H1554   1.110   .     S
C1147  C1148   1.539   .     S
C1147  H1184   1.109   .     S
C1147  H1185   1.113   .     S
C1147  O1229   1.421   .     S
C1148  C1149   1.524   .     S
C1148  H1434   1.110   1_455 S
C1148  H1435   1.109   1_455 S
C1149  H1188   1.111   .     S
C1149  H1191   1.109   .     S
C1149  H1438   1.110   1_455 S
C1150  O1228   1.386   .     S
C1150  C24     1.396   1_556 S
C1151  C1152   1.521   .     S
C1151  O1230   1.419   .     S
C1151  H1192   1.108   .     S
C1151  H1193   1.119   .     S
C1152  C1153   1.526   .     S
C1152  H1195   1.108   .     S
C1152  H1194   1.112   .     S
C1153  H1197   1.110   .     S
C1153  H1196   1.109   .     S
C1153  H1198   1.111   .     S
C1154  H1199   1.110   .     S
C1154  C1155   1.524   .     S
C1154  H1201   1.119   .     S
C1154  O1231   1.421   .     S
C1155  C1156   1.527   .     S
C1155  H1202   1.109   .     S
C1155  H1327   1.111   .     S
C1156  H1205   1.109   .     S
C1156  H1204   1.111   .     S
C1156  H1206   1.111   .     S
C1157  C1158   1.532   .     S
C1157  H1207   1.111   .     S
C1157  O1233   1.421   .     S
C1157  H1208   1.115   .     S
C1158  H1209   1.112   .     S
C1158  C1159   1.528   .     S
C1158  H1458   1.111   1_455 S
C1159  H1214   1.111   .     S
C1159  H1212   1.110   .     S
C1159  H1213   1.105   .     S
C1160  O1229   1.383   .     S
C1160  C1410   1.386   1_455 S
C1161  O1230   1.385   .     S
C1161  C1164   1.409   .     A
C1161  C1287   1.390   .     S
C1162  O1231   1.383   .     S
C1162  C1164   1.403   .     A
C1162  C1284   1.386   .     S
C1163  O1233   1.386   .     S
C1163  C1409   1.390   1_455 S
Cu1165 O1236   1.965   .     S
Cu1165 O1234   1.979   .     S
Cu1165 N1219   2.017   .     S
Cu1165 O1221   1.977   .     S
Cu1165 O1238   1.966   .     S
Cu1165 Cu1166  2.684   .     S
Cu1166 N1220   2.017   .     S
Cu1166 O1232   1.977   .     S
Cu1166 O1237   1.965   .     S
Cu1166 O1235   1.979   .     S
Cu1166 O1239   1.966   .     S
H1168  O1226   0.992   .     S
H1174  C1887   1.111   1_545 S
H1175  C1887   1.111   1_545 S
H1182  C1890   1.110   1_545 S
H1186  C1272   1.110   .     S
H1187  C1272   1.109   .     S
H1190  C1273   1.110   .     S
H1203  C1403   1.111   1_455 S
H1210  C1282   1.111   .     S
H1211  O1240   0.988   .     S
H1215  O1222   0.988   .     S
H1216  O1223   0.987   .     S
H1217  O1224   0.988   .     S
H1218  O1225   0.991   .     S
C1241  C1242   1.466   .     S
C1241  O1359   1.299   .     A
C1241  O1345   1.293   .     A
C1242  C1284   1.415   .     A
C1242  C1287   1.421   .     A
C1243  N1344   1.367   .     A
C1243  H1291   1.081   .     S
C1243  C1990   1.418   1_545 S
C1244  N1343   1.367   .     A
C1244  H1302   1.082   .     S
C1244  C1617   1.418   .     S
C1245  N1344   1.368   .     A
C1245  H1313   1.080   .     S
C1245  C1988   1.418   1_545 S
C1246  H1324   1.082   .     S
C1246  N1343   1.368   .     A
C1246  C1615   1.418   .     S
C1247  O1360   1.294   .     A
C1247  O1363   1.289   .     A
C1247  C1253   1.452   .     S
C1248  O1361   1.293   .     A
C1248  O1362   1.290   .     A
C1248  C1251   1.451   .     S
C1249  O1364   1.385   .     S
C1249  C1260   1.408   .     A
C1249  C1251   1.410   .     A
C1250  C1261   1.409   .     A
C1250  O1346   1.388   .     S
C1250  C1253   1.411   .     A
C1251  C1254   1.413   .     A
C1252  C1288   1.455   .     S
C1252  O1358   1.290   .     A
C1252  O1356   1.296   .     A
C1253  C1255   1.412   .     A
C1254  O1347   1.388   .     S
C1254  C1256   1.410   .     A
C1255  O1348   1.385   .     S
C1255  C1257   1.410   .     A
C1256  C1262   1.417   .     A
C1256  C1258   1.418   .     A
C1257  C1264   1.418   .     A
C1257  C1259   1.420   .     A
C1258  C1260   1.416   .     A
C1258  C143    1.415   1_556 S
C1259  C1261   1.417   .     A
C1260  C1274   1.411   .     A
C1261  C1263   1.413   .     A
C1262  O1349   1.377   .     S
C1262  C147    1.400   1_556 S
C1263  O1351   1.388   .     S
C1264  O1350   1.376   .     S
C1265  H1293   1.108   .     S
C1265  H1294   1.114   .     S
C1265  C1266   1.536   .     S
C1265  O1351   1.421   .     S
C1266  H1295   1.112   .     S
C1266  C1267   1.527   .     S
C1266  H1296   1.109   .     S
C1267  H1297   1.111   .     S
C1267  H1670   1.111   .     S
C1267  H1671   1.111   .     S
C1268  O1352   1.418   .     S
C1268  H1300   1.108   .     S
C1268  C1269   1.536   .     S
C1268  H185    1.112   1_556 S
C1269  H1303   1.111   .     S
C1269  C1270   1.525   .     S
C1269  H1304   1.110   .     S
C1270  H1307   1.110   .     S
C1270  H1305   1.111   .     S
C1270  H1678   1.110   .     S
C1271  C1272   1.539   .     S
C1271  H1308   1.109   .     S
C1271  H1309   1.113   .     S
C1271  O1353   1.421   .     S
C1272  C1273   1.524   .     S
C1273  H1312   1.111   .     S
C1273  H1315   1.109   .     S
C1274  O1352   1.386   .     S
C1274  C148    1.396   1_556 S
C1275  C1276   1.521   .     S
C1275  O1354   1.419   .     S
C1275  H1316   1.108   .     S
C1275  H1317   1.119   .     S
C1276  C1277   1.526   .     S
C1276  H1319   1.108   .     S
C1276  H1318   1.112   .     S
C1277  H1321   1.110   .     S
C1277  H1320   1.109   .     S
C1277  H1322   1.111   .     S
C1278  H1323   1.110   .     S
C1278  C1279   1.524   .     S
C1278  H1325   1.119   .     S
C1278  O1355   1.421   .     S
C1279  C1280   1.527   .     S
C1279  H1326   1.109   .     S
C1279  H1451   1.111   .     S
C1280  H1329   1.109   .     S
C1280  H1328   1.111   .     S
C1280  H1330   1.111   .     S
C1281  C1282   1.532   .     S
C1281  H1331   1.111   .     S
C1281  O1357   1.421   .     S
C1281  H1332   1.115   .     S
C1282  H1333   1.112   .     S
C1282  C1283   1.528   .     S
C1283  H1338   1.111   .     S
C1283  H1336   1.110   .     S
C1283  H1337   1.105   .     S
C1284  O1353   1.383   .     S
C1285  O1354   1.385   .     S
C1285  C1288   1.409   .     A
C1285  C1411   1.390   .     S
C1286  O1355   1.383   .     S
C1286  C1288   1.403   .     A
C1286  C1408   1.386   .     S
C1287  O1357   1.386   .     S
Cu1289 O1360   1.965   .     S
Cu1289 O1358   1.979   .     S
Cu1289 N1343   2.017   .     S
Cu1289 O1345   1.977   .     S
Cu1289 O1362   1.966   .     S
Cu1289 Cu1290  2.684   .     S
Cu1290 N1344   2.017   .     S
Cu1290 O1356   1.977   .     S
Cu1290 O1361   1.965   .     S
Cu1290 O1359   1.979   .     S
Cu1290 O1363   1.966   .     S
H1292  O1350   0.992   .     S
H1298  C2011   1.111   1_545 S
H1299  C2011   1.111   1_545 S
H1306  C2014   1.110   1_545 S
H1310  C1396   1.110   .     S
H1311  C1396   1.109   .     S
H1314  C1397   1.110   .     S
H1334  C1406   1.111   .     S
H1335  O1364   0.988   .     S
H1339  O1346   0.988   .     S
H1340  O1347   0.987   .     S
H1341  O1348   0.988   .     S
H1342  O1349   0.991   .     S
C1365  C1366   1.466   .     S
C1365  O1483   1.299   .     A
C1365  O1469   1.293   .     A
C1366  C1408   1.415   .     A
C1366  C1411   1.421   .     A
C1367  N1468   1.367   .     A
C1367  H1415   1.081   .     S
C1367  C2114   1.418   1_545 S
C1368  N1467   1.367   .     A
C1368  H1426   1.082   .     S
C1368  C1741   1.418   .     S
C1369  N1468   1.368   .     A
C1369  H1437   1.080   .     S
C1369  C2112   1.418   1_545 S
C1370  H1448   1.082   .     S
C1370  N1467   1.368   .     A
C1370  C1739   1.418   .     S
C1371  O1484   1.294   .     A
C1371  O1487   1.289   .     A
C1371  C1377   1.452   .     S
C1372  O1485   1.293   .     A
C1372  O1486   1.290   .     A
C1372  C1375   1.451   .     S
C1373  O1488   1.385   .     S
C1373  C1384   1.408   .     A
C1373  C1375   1.410   .     A
C1374  C1385   1.409   .     A
C1374  O1470   1.388   .     S
C1374  C1377   1.411   .     A
C1375  C1378   1.413   .     A
C1376  C1412   1.455   .     S
C1376  O1482   1.290   .     A
C1376  O1480   1.296   .     A
C1377  C1379   1.412   .     A
C1378  O1471   1.388   .     S
C1378  C1380   1.410   .     A
C1379  O1472   1.385   .     S
C1379  C1381   1.410   .     A
C1380  C1386   1.417   .     A
C1380  C1382   1.418   .     A
C1381  C1388   1.418   .     A
C1381  C1383   1.420   .     A
C1382  C1384   1.416   .     A
C1382  C267    1.415   1_556 S
C1383  C1385   1.417   .     A
C1384  C1398   1.411   .     A
C1385  C1387   1.413   .     A
C1386  O1473   1.377   .     S
C1386  C271    1.400   1_556 S
C1387  O1475   1.388   .     S
C1388  O1474   1.376   .     S
C1389  H1417   1.108   .     S
C1389  H1418   1.114   .     S
C1389  C1390   1.536   .     S
C1389  O1475   1.421   .     S
C1390  H1419   1.112   .     S
C1390  C1391   1.527   .     S
C1390  H1420   1.109   .     S
C1391  H1421   1.111   .     S
C1391  H1794   1.111   .     S
C1391  H1795   1.111   .     S
C1392  O1476   1.418   .     S
C1392  H1424   1.108   .     S
C1392  C1393   1.536   .     S
C1392  H309    1.112   1_556 S
C1393  H1427   1.111   .     S
C1393  C1394   1.525   .     S
C1393  H1428   1.110   .     S
C1394  H1431   1.110   .     S
C1394  H1429   1.111   .     S
C1394  H1802   1.110   .     S
C1395  C1396   1.539   .     S
C1395  H1432   1.109   .     S
C1395  H1433   1.113   .     S
C1395  O1477   1.421   .     S
C1396  C1397   1.524   .     S
C1397  H1436   1.111   .     S
C1397  H1439   1.109   .     S
C1398  O1476   1.386   .     S
C1398  C272    1.396   1_556 S
C1399  C1400   1.521   .     S
C1399  O1478   1.419   .     S
C1399  H1440   1.108   .     S
C1399  H1441   1.119   .     S
C1400  C1401   1.526   .     S
C1400  H1443   1.108   .     S
C1400  H1442   1.112   .     S
C1401  H1445   1.110   .     S
C1401  H1444   1.109   .     S
C1401  H1446   1.111   .     S
C1402  H1447   1.110   .     S
C1402  C1403   1.524   .     S
C1402  H1449   1.119   .     S
C1402  O1479   1.421   .     S
C1403  C1404   1.527   .     S
C1403  H1450   1.109   .     S
C1403  H1203   1.111   1_655 S
C1404  H1453   1.109   .     S
C1404  H1452   1.111   .     S
C1404  H1454   1.111   .     S
C1405  C1406   1.532   .     S
C1405  H1455   1.111   .     S
C1405  O1481   1.421   .     S
C1405  H1456   1.115   .     S
C1406  H1457   1.112   .     S
C1406  C1407   1.528   .     S
C1407  H1462   1.111   .     S
C1407  H1460   1.110   .     S
C1407  H1461   1.105   .     S
C1408  O1477   1.383   .     S
C1409  O1478   1.385   .     S
C1409  C1412   1.409   .     A
C1409  C1163   1.390   1_655 S
C1410  O1479   1.383   .     S
C1410  C1412   1.403   .     A
C1410  C1160   1.386   1_655 S
C1411  O1481   1.386   .     S
Cu1413 O1484   1.965   .     S
Cu1413 O1482   1.979   .     S
Cu1413 N1467   2.017   .     S
Cu1413 O1469   1.977   .     S
Cu1413 O1486   1.966   .     S
Cu1413 Cu1414  2.684   .     S
Cu1414 N1468   2.017   .     S
Cu1414 O1480   1.977   .     S
Cu1414 O1485   1.965   .     S
Cu1414 O1483   1.979   .     S
Cu1414 O1487   1.966   .     S
H1416  O1474   0.992   .     S
H1422  C2135   1.111   1_545 S
H1423  C2135   1.111   1_545 S
H1430  C2138   1.110   1_545 S
H1434  C1148   1.110   1_655 S
H1435  C1148   1.109   1_655 S
H1438  C1149   1.110   1_655 S
H1458  C1158   1.111   1_655 S
H1459  O1488   0.988   .     S
H1463  O1470   0.988   .     S
H1464  O1471   0.987   .     S
H1465  O1472   0.988   .     S
H1466  O1473   0.991   .     S
C1489  C1490   1.466   .     S
C1489  O1607   1.299   .     A
C1489  O1593   1.293   .     A
C1490  C1532   1.415   .     A
C1490  C1535   1.421   .     A
C1491  N1592   1.367   .     A
C1491  H1539   1.081   .     S
C1492  N1591   1.367   .     A
C1492  H1550   1.082   .     S
C1492  C1865   1.418   .     S
C1493  N1592   1.368   .     A
C1493  H1561   1.080   .     S
C1494  H1572   1.082   .     S
C1494  N1591   1.368   .     A
C1494  C1863   1.418   .     S
C1495  O1608   1.294   .     A
C1495  O1611   1.289   .     A
C1495  C1501   1.452   .     S
C1496  O1609   1.293   .     A
C1496  O1610   1.290   .     A
C1496  C1499   1.451   .     S
C1497  O1612   1.385   .     S
C1497  C1508   1.408   .     A
C1497  C1499   1.410   .     A
C1498  C1509   1.409   .     A
C1498  O1594   1.388   .     S
C1498  C1501   1.411   .     A
C1499  C1502   1.413   .     A
C1500  C1536   1.455   .     S
C1500  O1606   1.290   .     A
C1500  O1604   1.296   .     A
C1501  C1503   1.412   .     A
C1502  O1595   1.388   .     S
C1502  C1504   1.410   .     A
C1503  O1596   1.385   .     S
C1503  C1505   1.410   .     A
C1504  C1510   1.417   .     A
C1504  C1506   1.418   .     A
C1505  C1512   1.418   .     A
C1505  C1507   1.420   .     A
C1506  C1508   1.416   .     A
C1506  C391    1.415   1_556 S
C1507  C1509   1.417   .     A
C1508  C1522   1.411   .     A
C1509  C1511   1.413   .     A
C1510  O1597   1.377   .     S
C1510  C395    1.400   1_556 S
C1511  O1599   1.388   .     S
C1512  O1598   1.376   .     S
C1513  H1541   1.108   .     S
C1513  H1542   1.114   .     S
C1513  C1514   1.536   .     S
C1513  O1599   1.421   .     S
C1514  H1543   1.112   .     S
C1514  C1515   1.527   .     S
C1514  H1544   1.109   .     S
C1515  H1545   1.111   .     S
C1515  H1918   1.111   .     S
C1515  H1919   1.111   .     S
C1516  O1600   1.418   .     S
C1516  H1548   1.108   .     S
C1516  C1517   1.536   .     S
C1516  H433    1.112   1_556 S
C1517  H1551   1.111   .     S
C1517  C1518   1.525   .     S
C1517  H1552   1.110   .     S
C1518  H1555   1.110   .     S
C1518  H1553   1.111   .     S
C1518  H1926   1.110   .     S
C1519  C1520   1.539   .     S
C1519  H1556   1.109   .     S
C1519  H1557   1.113   .     S
C1519  O1601   1.421   .     S
C1520  C1521   1.524   .     S
C1520  H1806   1.110   1_455 S
C1520  H1807   1.109   1_455 S
C1521  H1560   1.111   .     S
C1521  H1563   1.109   .     S
C1521  H1810   1.110   1_455 S
C1522  O1600   1.386   .     S
C1522  C396    1.396   1_556 S
C1523  C1524   1.521   .     S
C1523  O1602   1.419   .     S
C1523  H1564   1.108   .     S
C1523  H1565   1.119   .     S
C1524  C1525   1.526   .     S
C1524  H1567   1.108   .     S
C1524  H1566   1.112   .     S
C1525  H1569   1.110   .     S
C1525  H1568   1.109   .     S
C1525  H1570   1.111   .     S
C1526  H1571   1.110   .     S
C1526  C1527   1.524   .     S
C1526  H1573   1.119   .     S
C1526  O1603   1.421   .     S
C1527  C1528   1.527   .     S
C1527  H1574   1.109   .     S
C1527  H1699   1.111   .     S
C1528  H1577   1.109   .     S
C1528  H1576   1.111   .     S
C1528  H1578   1.111   .     S
C1529  C1530   1.532   .     S
C1529  H1579   1.111   .     S
C1529  O1605   1.421   .     S
C1529  H1580   1.115   .     S
C1530  H1581   1.112   .     S
C1530  C1531   1.528   .     S
C1530  H1830   1.111   1_455 S
C1531  H1586   1.111   .     S
C1531  H1584   1.110   .     S
C1531  H1585   1.105   .     S
C1532  O1601   1.383   .     S
C1532  C1782   1.386   1_455 S
C1533  O1602   1.385   .     S
C1533  C1536   1.409   .     A
C1533  C1659   1.390   .     S
C1534  O1603   1.383   .     S
C1534  C1536   1.403   .     A
C1534  C1656   1.386   .     S
C1535  O1605   1.386   .     S
C1535  C1781   1.390   1_455 S
Cu1537 O1608   1.965   .     S
Cu1537 O1606   1.979   .     S
Cu1537 N1591   2.017   .     S
Cu1537 O1593   1.977   .     S
Cu1537 O1610   1.966   .     S
Cu1537 Cu1538  2.684   .     S
Cu1538 N1592   2.017   .     S
Cu1538 O1604   1.977   .     S
Cu1538 O1609   1.965   .     S
Cu1538 O1607   1.979   .     S
Cu1538 O1611   1.966   .     S
H1540  O1598   0.992   .     S
H1558  C1644   1.110   .     S
H1559  C1644   1.109   .     S
H1562  C1645   1.110   .     S
H1575  C1775   1.111   1_455 S
H1582  C1654   1.111   .     S
H1583  O1612   0.988   .     S
H1587  O1594   0.988   .     S
H1588  O1595   0.987   .     S
H1589  O1596   0.988   .     S
H1590  O1597   0.991   .     S
C1613  C1614   1.466   .     S
C1613  O1731   1.299   .     A
C1613  O1717   1.293   .     A
C1614  C1656   1.415   .     A
C1614  C1659   1.421   .     A
C1615  N1716   1.367   .     A
C1615  H1663   1.081   .     S
C1616  N1715   1.367   .     A
C1616  H1674   1.082   .     S
C1616  C1989   1.418   .     S
C1617  N1716   1.368   .     A
C1617  H1685   1.080   .     S
C1618  H1696   1.082   .     S
C1618  N1715   1.368   .     A
C1618  C1987   1.418   .     S
C1619  O1732   1.294   .     A
C1619  O1735   1.289   .     A
C1619  C1625   1.452   .     S
C1620  O1733   1.293   .     A
C1620  O1734   1.290   .     A
C1620  C1623   1.451   .     S
C1621  O1736   1.385   .     S
C1621  C1632   1.408   .     A
C1621  C1623   1.410   .     A
C1622  C1633   1.409   .     A
C1622  O1718   1.388   .     S
C1622  C1625   1.411   .     A
C1623  C1626   1.413   .     A
C1624  C1660   1.455   .     S
C1624  O1730   1.290   .     A
C1624  O1728   1.296   .     A
C1625  C1627   1.412   .     A
C1626  O1719   1.388   .     S
C1626  C1628   1.410   .     A
C1627  O1720   1.385   .     S
C1627  C1629   1.410   .     A
C1628  C1634   1.417   .     A
C1628  C1630   1.418   .     A
C1629  C1636   1.418   .     A
C1629  C1631   1.420   .     A
C1630  C1632   1.416   .     A
C1630  C515    1.415   1_556 S
C1631  C1633   1.417   .     A
C1632  C1646   1.411   .     A
C1633  C1635   1.413   .     A
C1634  O1721   1.377   .     S
C1634  C519    1.400   1_556 S
C1635  O1723   1.388   .     S
C1636  O1722   1.376   .     S
C1637  H1665   1.108   .     S
C1637  H1666   1.114   .     S
C1637  C1638   1.536   .     S
C1637  O1723   1.421   .     S
C1638  H1667   1.112   .     S
C1638  C1639   1.527   .     S
C1638  H1668   1.109   .     S
C1639  H1669   1.111   .     S
C1639  H2042   1.111   .     S
C1639  H2043   1.111   .     S
C1640  O1724   1.418   .     S
C1640  H1672   1.108   .     S
C1640  C1641   1.536   .     S
C1640  H557    1.112   1_556 S
C1641  H1675   1.111   .     S
C1641  C1642   1.525   .     S
C1641  H1676   1.110   .     S
C1642  H1679   1.110   .     S
C1642  H1677   1.111   .     S
C1642  H2050   1.110   .     S
C1643  C1644   1.539   .     S
C1643  H1680   1.109   .     S
C1643  H1681   1.113   .     S
C1643  O1725   1.421   .     S
C1644  C1645   1.524   .     S
C1645  H1684   1.111   .     S
C1645  H1687   1.109   .     S
C1646  O1724   1.386   .     S
C1646  C520    1.396   1_556 S
C1647  C1648   1.521   .     S
C1647  O1726   1.419   .     S
C1647  H1688   1.108   .     S
C1647  H1689   1.119   .     S
C1648  C1649   1.526   .     S
C1648  H1691   1.108   .     S
C1648  H1690   1.112   .     S
C1649  H1693   1.110   .     S
C1649  H1692   1.109   .     S
C1649  H1694   1.111   .     S
C1650  H1695   1.110   .     S
C1650  C1651   1.524   .     S
C1650  H1697   1.119   .     S
C1650  O1727   1.421   .     S
C1651  C1652   1.527   .     S
C1651  H1698   1.109   .     S
C1651  H1823   1.111   .     S
C1652  H1701   1.109   .     S
C1652  H1700   1.111   .     S
C1652  H1702   1.111   .     S
C1653  C1654   1.532   .     S
C1653  H1703   1.111   .     S
C1653  O1729   1.421   .     S
C1653  H1704   1.115   .     S
C1654  H1705   1.112   .     S
C1654  C1655   1.528   .     S
C1655  H1710   1.111   .     S
C1655  H1708   1.110   .     S
C1655  H1709   1.105   .     S
C1656  O1725   1.383   .     S
C1657  O1726   1.385   .     S
C1657  C1660   1.409   .     A
C1657  C1783   1.390   .     S
C1658  O1727   1.383   .     S
C1658  C1660   1.403   .     A
C1658  C1780   1.386   .     S
C1659  O1729   1.386   .     S
Cu1661 O1732   1.965   .     S
Cu1661 O1730   1.979   .     S
Cu1661 N1715   2.017   .     S
Cu1661 O1717   1.977   .     S
Cu1661 O1734   1.966   .     S
Cu1661 Cu1662  2.684   .     S
Cu1662 N1716   2.017   .     S
Cu1662 O1728   1.977   .     S
Cu1662 O1733   1.965   .     S
Cu1662 O1731   1.979   .     S
Cu1662 O1735   1.966   .     S
H1664  O1722   0.992   .     S
H1682  C1768   1.110   .     S
H1683  C1768   1.109   .     S
H1686  C1769   1.110   .     S
H1706  C1778   1.111   .     S
H1707  O1736   0.988   .     S
H1711  O1718   0.988   .     S
H1712  O1719   0.987   .     S
H1713  O1720   0.988   .     S
H1714  O1721   0.991   .     S
C1737  C1738   1.466   .     S
C1737  O1855   1.299   .     A
C1737  O1841   1.293   .     A
C1738  C1780   1.415   .     A
C1738  C1783   1.421   .     A
C1739  N1840   1.367   .     A
C1739  H1787   1.081   .     S
C1740  N1839   1.367   .     A
C1740  H1798   1.082   .     S
C1740  C2113   1.418   .     S
C1741  N1840   1.368   .     A
C1741  H1809   1.080   .     S
C1742  H1820   1.082   .     S
C1742  N1839   1.368   .     A
C1742  C2111   1.418   .     S
C1743  O1856   1.294   .     A
C1743  O1859   1.289   .     A
C1743  C1749   1.452   .     S
C1744  O1857   1.293   .     A
C1744  O1858   1.290   .     A
C1744  C1747   1.451   .     S
C1745  O1860   1.385   .     S
C1745  C1756   1.408   .     A
C1745  C1747   1.410   .     A
C1746  C1757   1.409   .     A
C1746  O1842   1.388   .     S
C1746  C1749   1.411   .     A
C1747  C1750   1.413   .     A
C1748  C1784   1.455   .     S
C1748  O1854   1.290   .     A
C1748  O1852   1.296   .     A
C1749  C1751   1.412   .     A
C1750  O1843   1.388   .     S
C1750  C1752   1.410   .     A
C1751  O1844   1.385   .     S
C1751  C1753   1.410   .     A
C1752  C1758   1.417   .     A
C1752  C1754   1.418   .     A
C1753  C1760   1.418   .     A
C1753  C1755   1.420   .     A
C1754  C1756   1.416   .     A
C1754  C639    1.415   1_556 S
C1755  C1757   1.417   .     A
C1756  C1770   1.411   .     A
C1757  C1759   1.413   .     A
C1758  O1845   1.377   .     S
C1758  C643    1.400   1_556 S
C1759  O1847   1.388   .     S
C1760  O1846   1.376   .     S
C1761  H1789   1.108   .     S
C1761  H1790   1.114   .     S
C1761  C1762   1.536   .     S
C1761  O1847   1.421   .     S
C1762  H1791   1.112   .     S
C1762  C1763   1.527   .     S
C1762  H1792   1.109   .     S
C1763  H1793   1.111   .     S
C1763  H2166   1.111   .     S
C1763  H2167   1.111   .     S
C1764  O1848   1.418   .     S
C1764  H1796   1.108   .     S
C1764  C1765   1.536   .     S
C1764  H681    1.112   1_556 S
C1765  H1799   1.111   .     S
C1765  C1766   1.525   .     S
C1765  H1800   1.110   .     S
C1766  H1803   1.110   .     S
C1766  H1801   1.111   .     S
C1766  H2174   1.110   .     S
C1767  C1768   1.539   .     S
C1767  H1804   1.109   .     S
C1767  H1805   1.113   .     S
C1767  O1849   1.421   .     S
C1768  C1769   1.524   .     S
C1769  H1808   1.111   .     S
C1769  H1811   1.109   .     S
C1770  O1848   1.386   .     S
C1770  C644    1.396   1_556 S
C1771  C1772   1.521   .     S
C1771  O1850   1.419   .     S
C1771  H1812   1.108   .     S
C1771  H1813   1.119   .     S
C1772  C1773   1.526   .     S
C1772  H1815   1.108   .     S
C1772  H1814   1.112   .     S
C1773  H1817   1.110   .     S
C1773  H1816   1.109   .     S
C1773  H1818   1.111   .     S
C1774  H1819   1.110   .     S
C1774  C1775   1.524   .     S
C1774  H1821   1.119   .     S
C1774  O1851   1.421   .     S
C1775  C1776   1.527   .     S
C1775  H1822   1.109   .     S
C1775  H1575   1.111   1_655 S
C1776  H1825   1.109   .     S
C1776  H1824   1.111   .     S
C1776  H1826   1.111   .     S
C1777  C1778   1.532   .     S
C1777  H1827   1.111   .     S
C1777  O1853   1.421   .     S
C1777  H1828   1.115   .     S
C1778  H1829   1.112   .     S
C1778  C1779   1.528   .     S
C1779  H1834   1.111   .     S
C1779  H1832   1.110   .     S
C1779  H1833   1.105   .     S
C1780  O1849   1.383   .     S
C1781  O1850   1.385   .     S
C1781  C1784   1.409   .     A
C1781  C1535   1.390   1_655 S
C1782  O1851   1.383   .     S
C1782  C1784   1.403   .     A
C1782  C1532   1.386   1_655 S
C1783  O1853   1.386   .     S
Cu1785 O1856   1.965   .     S
Cu1785 O1854   1.979   .     S
Cu1785 N1839   2.017   .     S
Cu1785 O1841   1.977   .     S
Cu1785 O1858   1.966   .     S
Cu1785 Cu1786  2.684   .     S
Cu1786 N1840   2.017   .     S
Cu1786 O1852   1.977   .     S
Cu1786 O1857   1.965   .     S
Cu1786 O1855   1.979   .     S
Cu1786 O1859   1.966   .     S
H1788  O1846   0.992   .     S
H1806  C1520   1.110   1_655 S
H1807  C1520   1.109   1_655 S
H1810  C1521   1.110   1_655 S
H1830  C1530   1.111   1_655 S
H1831  O1860   0.988   .     S
H1835  O1842   0.988   .     S
H1836  O1843   0.987   .     S
H1837  O1844   0.988   .     S
H1838  O1845   0.991   .     S
C1861  C1862   1.466   .     S
C1861  O1979   1.299   .     A
C1861  O1965   1.293   .     A
C1862  C1904   1.415   .     A
C1862  C1907   1.421   .     A
C1863  N1964   1.367   .     A
C1863  H1911   1.081   .     S
C1864  N1963   1.367   .     A
C1864  H1922   1.082   .     S
C1864  C1121   1.418   1_565 S
C1865  N1964   1.368   .     A
C1865  H1933   1.080   .     S
C1866  H1944   1.082   .     S
C1866  N1963   1.368   .     A
C1866  C1119   1.418   1_565 S
C1867  O1980   1.294   .     A
C1867  O1983   1.289   .     A
C1867  C1873   1.452   .     S
C1868  O1981   1.293   .     A
C1868  O1982   1.290   .     A
C1868  C1871   1.451   .     S
C1869  O1984   1.385   .     S
C1869  C1880   1.408   .     A
C1869  C1871   1.410   .     A
C1870  C1881   1.409   .     A
C1870  O1966   1.388   .     S
C1870  C1873   1.411   .     A
C1871  C1874   1.413   .     A
C1872  C1908   1.455   .     S
C1872  O1978   1.290   .     A
C1872  O1976   1.296   .     A
C1873  C1875   1.412   .     A
C1874  O1967   1.388   .     S
C1874  C1876   1.410   .     A
C1875  O1968   1.385   .     S
C1875  C1877   1.410   .     A
C1876  C1882   1.417   .     A
C1876  C1878   1.418   .     A
C1877  C1884   1.418   .     A
C1877  C1879   1.420   .     A
C1878  C1880   1.416   .     A
C1878  C763    1.415   1_556 S
C1879  C1881   1.417   .     A
C1880  C1894   1.411   .     A
C1881  C1883   1.413   .     A
C1882  O1969   1.377   .     S
C1882  C767    1.400   1_556 S
C1883  O1971   1.388   .     S
C1884  O1970   1.376   .     S
C1885  H1913   1.108   .     S
C1885  H1914   1.114   .     S
C1885  C1886   1.536   .     S
C1885  O1971   1.421   .     S
C1886  H1915   1.112   .     S
C1886  C1887   1.527   .     S
C1886  H1916   1.109   .     S
C1887  H1917   1.111   .     S
C1887  H1174   1.111   1_565 S
C1887  H1175   1.111   1_565 S
C1888  O1972   1.418   .     S
C1888  H1920   1.108   .     S
C1888  C1889   1.536   .     S
C1888  H805    1.112   1_556 S
C1889  H1923   1.111   .     S
C1889  C1890   1.525   .     S
C1889  H1924   1.110   .     S
C1890  H1927   1.110   .     S
C1890  H1925   1.111   .     S
C1890  H1182   1.110   1_565 S
C1891  C1892   1.539   .     S
C1891  H1928   1.109   .     S
C1891  H1929   1.113   .     S
C1891  O1973   1.421   .     S
C1892  C1893   1.524   .     S
C1892  H2178   1.110   1_455 S
C1892  H2179   1.109   1_455 S
C1893  H1932   1.111   .     S
C1893  H1935   1.109   .     S
C1893  H2182   1.110   1_455 S
C1894  O1972   1.386   .     S
C1894  C768    1.396   1_556 S
C1895  C1896   1.521   .     S
C1895  O1974   1.419   .     S
C1895  H1936   1.108   .     S
C1895  H1937   1.119   .     S
C1896  C1897   1.526   .     S
C1896  H1939   1.108   .     S
C1896  H1938   1.112   .     S
C1897  H1941   1.110   .     S
C1897  H1940   1.109   .     S
C1897  H1942   1.111   .     S
C1898  H1943   1.110   .     S
C1898  C1899   1.524   .     S
C1898  H1945   1.119   .     S
C1898  O1975   1.421   .     S
C1899  C1900   1.527   .     S
C1899  H1946   1.109   .     S
C1899  H2071   1.111   .     S
C1900  H1949   1.109   .     S
C1900  H1948   1.111   .     S
C1900  H1950   1.111   .     S
C1901  C1902   1.532   .     S
C1901  H1951   1.111   .     S
C1901  O1977   1.421   .     S
C1901  H1952   1.115   .     S
C1902  H1953   1.112   .     S
C1902  C1903   1.528   .     S
C1902  H2202   1.111   1_455 S
C1903  H1958   1.111   .     S
C1903  H1956   1.110   .     S
C1903  H1957   1.105   .     S
C1904  O1973   1.383   .     S
C1904  C2154   1.386   1_455 S
C1905  O1974   1.385   .     S
C1905  C1908   1.409   .     A
C1905  C2031   1.390   .     S
C1906  O1975   1.383   .     S
C1906  C1908   1.403   .     A
C1906  C2028   1.386   .     S
C1907  O1977   1.386   .     S
C1907  C2153   1.390   1_455 S
Cu1909 O1980   1.965   .     S
Cu1909 O1978   1.979   .     S
Cu1909 N1963   2.017   .     S
Cu1909 O1965   1.977   .     S
Cu1909 O1982   1.966   .     S
Cu1909 Cu1910  2.684   .     S
Cu1910 N1964   2.017   .     S
Cu1910 O1976   1.977   .     S
Cu1910 O1981   1.965   .     S
Cu1910 O1979   1.979   .     S
Cu1910 O1983   1.966   .     S
H1912  O1970   0.992   .     S
H1930  C2016   1.110   .     S
H1931  C2016   1.109   .     S
H1934  C2017   1.110   .     S
H1947  C2147   1.111   1_455 S
H1954  C2026   1.111   .     S
H1955  O1984   0.988   .     S
H1959  O1966   0.988   .     S
H1960  O1967   0.987   .     S
H1961  O1968   0.988   .     S
H1962  O1969   0.991   .     S
C1985  C1986   1.466   .     S
C1985  O2103   1.299   .     A
C1985  O2089   1.293   .     A
C1986  C2028   1.415   .     A
C1986  C2031   1.421   .     A
C1987  N2088   1.367   .     A
C1987  H2035   1.081   .     S
C1988  N2087   1.367   .     A
C1988  H2046   1.082   .     S
C1988  C1245   1.418   1_565 S
C1989  N2088   1.368   .     A
C1989  H2057   1.080   .     S
C1990  H2068   1.082   .     S
C1990  N2087   1.368   .     A
C1990  C1243   1.418   1_565 S
C1991  O2104   1.294   .     A
C1991  O2107   1.289   .     A
C1991  C1997   1.452   .     S
C1992  O2105   1.293   .     A
C1992  O2106   1.290   .     A
C1992  C1995   1.451   .     S
C1993  O2108   1.385   .     S
C1993  C2004   1.408   .     A
C1993  C1995   1.410   .     A
C1994  C2005   1.409   .     A
C1994  O2090   1.388   .     S
C1994  C1997   1.411   .     A
C1995  C1998   1.413   .     A
C1996  C2032   1.455   .     S
C1996  O2102   1.290   .     A
C1996  O2100   1.296   .     A
C1997  C1999   1.412   .     A
C1998  O2091   1.388   .     S
C1998  C2000   1.410   .     A
C1999  O2092   1.385   .     S
C1999  C2001   1.410   .     A
C2000  C2006   1.417   .     A
C2000  C2002   1.418   .     A
C2001  C2008   1.418   .     A
C2001  C2003   1.420   .     A
C2002  C2004   1.416   .     A
C2002  C887    1.415   1_556 S
C2003  C2005   1.417   .     A
C2004  C2018   1.411   .     A
C2005  C2007   1.413   .     A
C2006  O2093   1.377   .     S
C2006  C891    1.400   1_556 S
C2007  O2095   1.388   .     S
C2008  O2094   1.376   .     S
C2009  H2037   1.108   .     S
C2009  H2038   1.114   .     S
C2009  C2010   1.536   .     S
C2009  O2095   1.421   .     S
C2010  H2039   1.112   .     S
C2010  C2011   1.527   .     S
C2010  H2040   1.109   .     S
C2011  H2041   1.111   .     S
C2011  H1298   1.111   1_565 S
C2011  H1299   1.111   1_565 S
C2012  O2096   1.418   .     S
C2012  H2044   1.108   .     S
C2012  C2013   1.536   .     S
C2012  H929    1.112   1_556 S
C2013  H2047   1.111   .     S
C2013  C2014   1.525   .     S
C2013  H2048   1.110   .     S
C2014  H2051   1.110   .     S
C2014  H2049   1.111   .     S
C2014  H1306   1.110   1_565 S
C2015  C2016   1.539   .     S
C2015  H2052   1.109   .     S
C2015  H2053   1.113   .     S
C2015  O2097   1.421   .     S
C2016  C2017   1.524   .     S
C2017  H2056   1.111   .     S
C2017  H2059   1.109   .     S
C2018  O2096   1.386   .     S
C2018  C892    1.396   1_556 S
C2019  C2020   1.521   .     S
C2019  O2098   1.419   .     S
C2019  H2060   1.108   .     S
C2019  H2061   1.119   .     S
C2020  C2021   1.526   .     S
C2020  H2063   1.108   .     S
C2020  H2062   1.112   .     S
C2021  H2065   1.110   .     S
C2021  H2064   1.109   .     S
C2021  H2066   1.111   .     S
C2022  H2067   1.110   .     S
C2022  C2023   1.524   .     S
C2022  H2069   1.119   .     S
C2022  O2099   1.421   .     S
C2023  C2024   1.527   .     S
C2023  H2070   1.109   .     S
C2023  H2195   1.111   .     S
C2024  H2073   1.109   .     S
C2024  H2072   1.111   .     S
C2024  H2074   1.111   .     S
C2025  C2026   1.532   .     S
C2025  H2075   1.111   .     S
C2025  O2101   1.421   .     S
C2025  H2076   1.115   .     S
C2026  H2077   1.112   .     S
C2026  C2027   1.528   .     S
C2027  H2082   1.111   .     S
C2027  H2080   1.110   .     S
C2027  H2081   1.105   .     S
C2028  O2097   1.383   .     S
C2029  O2098   1.385   .     S
C2029  C2032   1.409   .     A
C2029  C2155   1.390   .     S
C2030  O2099   1.383   .     S
C2030  C2032   1.403   .     A
C2030  C2152   1.386   .     S
C2031  O2101   1.386   .     S
Cu2033 O2104   1.965   .     S
Cu2033 O2102   1.979   .     S
Cu2033 N2087   2.017   .     S
Cu2033 O2089   1.977   .     S
Cu2033 O2106   1.966   .     S
Cu2033 Cu2034  2.684   .     S
Cu2034 N2088   2.017   .     S
Cu2034 O2100   1.977   .     S
Cu2034 O2105   1.965   .     S
Cu2034 O2103   1.979   .     S
Cu2034 O2107   1.966   .     S
H2036  O2094   0.992   .     S
H2054  C2140   1.110   .     S
H2055  C2140   1.109   .     S
H2058  C2141   1.110   .     S
H2078  C2150   1.111   .     S
H2079  O2108   0.988   .     S
H2083  O2090   0.988   .     S
H2084  O2091   0.987   .     S
H2085  O2092   0.988   .     S
H2086  O2093   0.991   .     S
C2109  C2110   1.466   .     S
C2109  O2227   1.299   .     A
C2109  O2213   1.293   .     A
C2110  C2152   1.415   .     A
C2110  C2155   1.421   .     A
C2111  N2212   1.367   .     A
C2111  H2159   1.081   .     S
C2112  N2211   1.367   .     A
C2112  H2170   1.082   .     S
C2112  C1369   1.418   1_565 S
C2113  N2212   1.368   .     A
C2113  H2181   1.080   .     S
C2114  H2192   1.082   .     S
C2114  N2211   1.368   .     A
C2114  C1367   1.418   1_565 S
C2115  O2228   1.294   .     A
C2115  O2231   1.289   .     A
C2115  C2121   1.452   .     S
C2116  O2229   1.293   .     A
C2116  O2230   1.290   .     A
C2116  C2119   1.451   .     S
C2117  O2232   1.385   .     S
C2117  C2128   1.408   .     A
C2117  C2119   1.410   .     A
C2118  C2129   1.409   .     A
C2118  O2214   1.388   .     S
C2118  C2121   1.411   .     A
C2119  C2122   1.413   .     A
C2120  C2156   1.455   .     S
C2120  O2226   1.290   .     A
C2120  O2224   1.296   .     A
C2121  C2123   1.412   .     A
C2122  O2215   1.388   .     S
C2122  C2124   1.410   .     A
C2123  O2216   1.385   .     S
C2123  C2125   1.410   .     A
C2124  C2130   1.417   .     A
C2124  C2126   1.418   .     A
C2125  C2132   1.418   .     A
C2125  C2127   1.420   .     A
C2126  C2128   1.416   .     A
C2126  C1011   1.415   1_556 S
C2127  C2129   1.417   .     A
C2128  C2142   1.411   .     A
C2129  C2131   1.413   .     A
C2130  O2217   1.377   .     S
C2130  C1015   1.400   1_556 S
C2131  O2219   1.388   .     S
C2132  O2218   1.376   .     S
C2133  H2161   1.108   .     S
C2133  H2162   1.114   .     S
C2133  C2134   1.536   .     S
C2133  O2219   1.421   .     S
C2134  H2163   1.112   .     S
C2134  C2135   1.527   .     S
C2134  H2164   1.109   .     S
C2135  H2165   1.111   .     S
C2135  H1422   1.111   1_565 S
C2135  H1423   1.111   1_565 S
C2136  O2220   1.418   .     S
C2136  H2168   1.108   .     S
C2136  C2137   1.536   .     S
C2136  H1053   1.112   1_556 S
C2137  H2171   1.111   .     S
C2137  C2138   1.525   .     S
C2137  H2172   1.110   .     S
C2138  H2175   1.110   .     S
C2138  H2173   1.111   .     S
C2138  H1430   1.110   1_565 S
C2139  C2140   1.539   .     S
C2139  H2176   1.109   .     S
C2139  H2177   1.113   .     S
C2139  O2221   1.421   .     S
C2140  C2141   1.524   .     S
C2141  H2180   1.111   .     S
C2141  H2183   1.109   .     S
C2142  O2220   1.386   .     S
C2142  C1016   1.396   1_556 S
C2143  C2144   1.521   .     S
C2143  O2222   1.419   .     S
C2143  H2184   1.108   .     S
C2143  H2185   1.119   .     S
C2144  C2145   1.526   .     S
C2144  H2187   1.108   .     S
C2144  H2186   1.112   .     S
C2145  H2189   1.110   .     S
C2145  H2188   1.109   .     S
C2145  H2190   1.111   .     S
C2146  H2191   1.110   .     S
C2146  C2147   1.524   .     S
C2146  H2193   1.119   .     S
C2146  O2223   1.421   .     S
C2147  C2148   1.527   .     S
C2147  H2194   1.109   .     S
C2147  H1947   1.111   1_655 S
C2148  H2197   1.109   .     S
C2148  H2196   1.111   .     S
C2148  H2198   1.111   .     S
C2149  C2150   1.532   .     S
C2149  H2199   1.111   .     S
C2149  O2225   1.421   .     S
C2149  H2200   1.115   .     S
C2150  H2201   1.112   .     S
C2150  C2151   1.528   .     S
C2151  H2206   1.111   .     S
C2151  H2204   1.110   .     S
C2151  H2205   1.105   .     S
C2152  O2221   1.383   .     S
C2153  O2222   1.385   .     S
C2153  C2156   1.409   .     A
C2153  C1907   1.390   1_655 S
C2154  O2223   1.383   .     S
C2154  C2156   1.403   .     A
C2154  C1904   1.386   1_655 S
C2155  O2225   1.386   .     S
Cu2157 O2228   1.965   .     S
Cu2157 O2226   1.979   .     S
Cu2157 N2211   2.017   .     S
Cu2157 O2213   1.977   .     S
Cu2157 O2230   1.966   .     S
Cu2157 Cu2158  2.684   .     S
Cu2158 N2212   2.017   .     S
Cu2158 O2224   1.977   .     S
Cu2158 O2229   1.965   .     S
Cu2158 O2227   1.979   .     S
Cu2158 O2231   1.966   .     S
H2160  O2218   0.992   .     S
H2178  C1892   1.110   1_655 S
H2179  C1892   1.109   1_655 S
H2182  C1893   1.110   1_655 S
H2202  C1902   1.111   1_655 S
H2203  O2232   0.988   .     S
H2207  O2214   0.988   .     S
H2208  O2215   0.987   .     S
H2209  O2216   0.988   .     S
H2210  O2217   0.991   .     S
