data_str_m3_o5_o17_pcu_sym.5
_audit_creation_date              2020-01-03
_audit_creation_method            'Materials Studio'
_symmetry_space_group_name_H-M    'P1'
_symmetry_Int_Tables_number       1
_symmetry_cell_setting            triclinic
loop_
_symmetry_equiv_pos_as_xyz
  x,y,z
_cell_length_a                    29.9883
_cell_length_b                    26.8672
_cell_length_c                    24.2804
_cell_angle_alpha                 89.6003
_cell_angle_beta                  89.8820
_cell_angle_gamma                 89.5839
loop_
_atom_site_label
_atom_site_type_symbol
_atom_site_fract_x
_atom_site_fract_y
_atom_site_fract_z
_atom_site_U_iso_or_equiv
_atom_site_adp_type
_atom_site_occupancy
O1     O     0.25000   0.09512   0.21228   0.00000  Uiso   1.00
O2     O     0.25000   0.23822   0.12105   0.00000  Uiso   1.00
O3     O     0.25000   0.23822   0.21228   0.00000  Uiso   1.00
O4     O     0.25000   0.09512   0.12105   0.00000  Uiso   1.00
H5     H     0.46154   0.03769   0.19628   0.00000  Uiso   1.00
H6     H     0.03998   0.25723   0.06954   0.00000  Uiso   1.00
H7     H     0.46011   0.25602   0.06745   0.00000  Uiso   1.00
H8     H     0.04041   0.03675   0.19300   0.00000  Uiso   1.00
C9     C     0.24997   0.07264   0.16677   0.00000  Uiso   1.00
C10    C     0.24952   0.26070   0.16652   0.00000  Uiso   1.00
O11    O     0.18393   0.16667   0.21230   0.00000  Uiso   1.00
O12    O     0.31608   0.16667   0.12104   0.00000  Uiso   1.00
O13    O     0.31608   0.16667   0.21230   0.00000  Uiso   1.00
O14    O     0.18393   0.16667   0.12104   0.00000  Uiso   1.00
C15    C     0.16313   0.16450   0.16692   0.00000  Uiso   1.00
C16    C     0.33694   0.16451   0.16679   0.00000  Uiso   1.00
Zn17   Zn    0.25000   0.16667   0.22759   0.00000  Uiso   1.00
Zn18   Zn    0.25000   0.16667   0.10574   0.00000  Uiso   1.00
N19    N     0.25000   0.16667   0.02455   0.00000  Uiso   1.00
N20    N     0.25000   0.16667   0.30879   0.00000  Uiso   1.00
C21    C     0.40764   0.20170   0.13791   0.00000  Uiso   1.00
C22    C     0.09279   0.12053   0.18784   0.00000  Uiso   1.00
C23    C     0.40804   0.12154   0.18908   0.00000  Uiso   1.00
C24    C     0.09201   0.20244   0.14038   0.00000  Uiso   1.00
C25    C     0.38514   0.16329   0.16644   0.00000  Uiso   1.00
C26    C     0.11504   0.16311   0.16698   0.00000  Uiso   1.00
C27    C     0.45380   0.11644   0.17742   0.00000  Uiso   1.00
C28    C     0.04657   0.19696   0.12936   0.00000  Uiso   1.00
C29    C     0.45342   0.19640   0.12802   0.00000  Uiso   1.00
C30    C     0.04711   0.11595   0.17650   0.00000  Uiso   1.00
C31    C     0.47676   0.15594   0.15170   0.00000  Uiso   1.00
C32    C     0.02368   0.15597   0.15182   0.00000  Uiso   1.00
C33    C     0.47767   0.07245   0.18830   0.00000  Uiso   1.00
C34    C     0.02309   0.23057   0.09560   0.00000  Uiso   1.00
C35    C     0.47693   0.22994   0.09449   0.00000  Uiso   1.00
C36    C     0.02376   0.07199   0.18696   0.00000  Uiso   1.00
C37    C     0.24979   0.02171   0.16675   0.00000  Uiso   1.00
C38    C     0.24960   0.31164   0.16642   0.00000  Uiso   1.00
S39    S     0.37978   0.25969   0.12406   0.00000  Uiso   1.00
O40    O     0.35749   0.25724   0.06879   0.00000  Uiso   1.00
O41    O     0.34530   0.26947   0.16756   0.00000  Uiso   1.00
O42    O     0.41496   0.30801   0.12443   0.00000  Uiso   1.00
H43    H     0.43192   0.30348   0.15903   0.00000  Uiso   1.00
S44    S     0.12128   0.07584   0.23122   0.00000  Uiso   1.00
O45    O     0.15035   0.04407   0.19520   0.00000  Uiso   1.00
O46    O     0.15012   0.10121   0.27282   0.00000  Uiso   1.00
O47    O     0.08707   0.03863   0.26760   0.00000  Uiso   1.00
H48    H     0.07189   0.06095   0.29412   0.00000  Uiso   1.00
S49    S     0.38014   0.07944   0.23570   0.00000  Uiso   1.00
O50    O     0.34761   0.04918   0.20331   0.00000  Uiso   1.00
O51    O     0.41124   0.04479   0.26595   0.00000  Uiso   1.00
O52    O     0.35258   0.11152   0.28448   0.00000  Uiso   1.00
H53    H     0.33160   0.08739   0.30116   0.00000  Uiso   1.00
S54    S     0.11872   0.26135   0.13158   0.00000  Uiso   1.00
O55    O     0.14537   0.26109   0.07911   0.00000  Uiso   1.00
O56    O     0.08602   0.30399   0.12979   0.00000  Uiso   1.00
O57    O     0.15309   0.27076   0.18495   0.00000  Uiso   1.00
H58    H     0.13341   0.27151   0.21779   0.00000  Uiso   1.00
O59    O     0.75000   0.09512   0.21228   0.00000  Uiso   1.00
O60    O     0.75000   0.23822   0.12105   0.00000  Uiso   1.00
O61    O     0.75000   0.23822   0.21228   0.00000  Uiso   1.00
O62    O     0.75000   0.09512   0.12105   0.00000  Uiso   1.00
H63    H     0.96154   0.03769   0.19628   0.00000  Uiso   1.00
H64    H     0.53998   0.25723   0.06954   0.00000  Uiso   1.00
H65    H     0.96011   0.25602   0.06745   0.00000  Uiso   1.00
H66    H     0.54041   0.03675   0.19300   0.00000  Uiso   1.00
C67    C     0.74997   0.07264   0.16677   0.00000  Uiso   1.00
C68    C     0.74952   0.26070   0.16652   0.00000  Uiso   1.00
O69    O     0.68393   0.16667   0.21230   0.00000  Uiso   1.00
O70    O     0.81608   0.16667   0.12104   0.00000  Uiso   1.00
O71    O     0.81608   0.16667   0.21230   0.00000  Uiso   1.00
O72    O     0.68393   0.16667   0.12104   0.00000  Uiso   1.00
C73    C     0.66313   0.16450   0.16692   0.00000  Uiso   1.00
C74    C     0.83694   0.16451   0.16679   0.00000  Uiso   1.00
Zn75   Zn    0.75000   0.16667   0.22759   0.00000  Uiso   1.00
Zn76   Zn    0.75000   0.16667   0.10574   0.00000  Uiso   1.00
N77    N     0.75000   0.16667   0.02455   0.00000  Uiso   1.00
N78    N     0.75000   0.16667   0.30879   0.00000  Uiso   1.00
C79    C     0.90764   0.20170   0.13791   0.00000  Uiso   1.00
C80    C     0.59279   0.12053   0.18784   0.00000  Uiso   1.00
C81    C     0.90804   0.12154   0.18908   0.00000  Uiso   1.00
C82    C     0.59201   0.20244   0.14038   0.00000  Uiso   1.00
C83    C     0.88514   0.16329   0.16644   0.00000  Uiso   1.00
C84    C     0.61504   0.16311   0.16698   0.00000  Uiso   1.00
C85    C     0.95380   0.11644   0.17742   0.00000  Uiso   1.00
C86    C     0.54657   0.19696   0.12936   0.00000  Uiso   1.00
C87    C     0.95342   0.19640   0.12802   0.00000  Uiso   1.00
C88    C     0.54711   0.11595   0.17650   0.00000  Uiso   1.00
C89    C     0.97676   0.15594   0.15170   0.00000  Uiso   1.00
C90    C     0.52368   0.15597   0.15182   0.00000  Uiso   1.00
C91    C     0.97767   0.07245   0.18830   0.00000  Uiso   1.00
C92    C     0.52309   0.23057   0.09560   0.00000  Uiso   1.00
C93    C     0.97693   0.22994   0.09449   0.00000  Uiso   1.00
C94    C     0.52376   0.07199   0.18696   0.00000  Uiso   1.00
C95    C     0.74979   0.02171   0.16675   0.00000  Uiso   1.00
C96    C     0.74960   0.31164   0.16642   0.00000  Uiso   1.00
S97    S     0.87978   0.25969   0.12406   0.00000  Uiso   1.00
O98    O     0.85749   0.25724   0.06879   0.00000  Uiso   1.00
O99    O     0.84530   0.26947   0.16756   0.00000  Uiso   1.00
O100   O     0.91496   0.30801   0.12443   0.00000  Uiso   1.00
H101   H     0.93192   0.30348   0.15903   0.00000  Uiso   1.00
S102   S     0.62128   0.07584   0.23122   0.00000  Uiso   1.00
O103   O     0.65035   0.04407   0.19520   0.00000  Uiso   1.00
O104   O     0.65012   0.10121   0.27282   0.00000  Uiso   1.00
O105   O     0.58707   0.03863   0.26760   0.00000  Uiso   1.00
H106   H     0.57189   0.06095   0.29412   0.00000  Uiso   1.00
S107   S     0.88014   0.07944   0.23570   0.00000  Uiso   1.00
O108   O     0.84761   0.04918   0.20331   0.00000  Uiso   1.00
O109   O     0.91124   0.04479   0.26595   0.00000  Uiso   1.00
O110   O     0.85258   0.11152   0.28448   0.00000  Uiso   1.00
H111   H     0.83160   0.08739   0.30116   0.00000  Uiso   1.00
S112   S     0.61872   0.26135   0.13158   0.00000  Uiso   1.00
O113   O     0.64537   0.26109   0.07911   0.00000  Uiso   1.00
O114   O     0.58602   0.30399   0.12979   0.00000  Uiso   1.00
O115   O     0.65309   0.27076   0.18495   0.00000  Uiso   1.00
H116   H     0.63341   0.27151   0.21779   0.00000  Uiso   1.00
O117   O     0.25000   0.42845   0.21228   0.00000  Uiso   1.00
O118   O     0.25000   0.57155   0.12105   0.00000  Uiso   1.00
O119   O     0.25000   0.57155   0.21228   0.00000  Uiso   1.00
O120   O     0.25000   0.42845   0.12105   0.00000  Uiso   1.00
H121   H     0.46154   0.37102   0.19628   0.00000  Uiso   1.00
H122   H     0.03998   0.59056   0.06954   0.00000  Uiso   1.00
H123   H     0.46011   0.58935   0.06745   0.00000  Uiso   1.00
H124   H     0.04041   0.37008   0.19300   0.00000  Uiso   1.00
C125   C     0.24997   0.40597   0.16677   0.00000  Uiso   1.00
C126   C     0.24952   0.59403   0.16652   0.00000  Uiso   1.00
O127   O     0.18393   0.50000   0.21230   0.00000  Uiso   1.00
O128   O     0.31608   0.50000   0.12104   0.00000  Uiso   1.00
O129   O     0.31608   0.50000   0.21230   0.00000  Uiso   1.00
O130   O     0.18393   0.50000   0.12104   0.00000  Uiso   1.00
C131   C     0.16313   0.49784   0.16692   0.00000  Uiso   1.00
C132   C     0.33694   0.49785   0.16679   0.00000  Uiso   1.00
Zn133  Zn    0.25000   0.50000   0.22759   0.00000  Uiso   1.00
Zn134  Zn    0.25000   0.50000   0.10574   0.00000  Uiso   1.00
N135   N     0.25000   0.50000   0.02455   0.00000  Uiso   1.00
N136   N     0.25000   0.50000   0.30879   0.00000  Uiso   1.00
C137   C     0.40764   0.53504   0.13791   0.00000  Uiso   1.00
C138   C     0.09279   0.45386   0.18784   0.00000  Uiso   1.00
C139   C     0.40804   0.45487   0.18908   0.00000  Uiso   1.00
C140   C     0.09201   0.53578   0.14038   0.00000  Uiso   1.00
C141   C     0.38514   0.49663   0.16644   0.00000  Uiso   1.00
C142   C     0.11504   0.49644   0.16698   0.00000  Uiso   1.00
C143   C     0.45380   0.44977   0.17742   0.00000  Uiso   1.00
C144   C     0.04657   0.53030   0.12936   0.00000  Uiso   1.00
C145   C     0.45342   0.52973   0.12802   0.00000  Uiso   1.00
C146   C     0.04711   0.44928   0.17650   0.00000  Uiso   1.00
C147   C     0.47676   0.48928   0.15170   0.00000  Uiso   1.00
C148   C     0.02368   0.48930   0.15182   0.00000  Uiso   1.00
C149   C     0.47767   0.40578   0.18830   0.00000  Uiso   1.00
C150   C     0.02309   0.56390   0.09560   0.00000  Uiso   1.00
C151   C     0.47693   0.56327   0.09449   0.00000  Uiso   1.00
C152   C     0.02376   0.40532   0.18696   0.00000  Uiso   1.00
C153   C     0.24979   0.35505   0.16675   0.00000  Uiso   1.00
C154   C     0.24960   0.64498   0.16642   0.00000  Uiso   1.00
S155   S     0.37978   0.59302   0.12406   0.00000  Uiso   1.00
O156   O     0.35749   0.59058   0.06879   0.00000  Uiso   1.00
O157   O     0.34530   0.60280   0.16756   0.00000  Uiso   1.00
O158   O     0.41496   0.64134   0.12443   0.00000  Uiso   1.00
H159   H     0.43192   0.63682   0.15903   0.00000  Uiso   1.00
S160   S     0.12128   0.40917   0.23122   0.00000  Uiso   1.00
O161   O     0.15035   0.37740   0.19520   0.00000  Uiso   1.00
O162   O     0.15012   0.43454   0.27282   0.00000  Uiso   1.00
O163   O     0.08707   0.37196   0.26760   0.00000  Uiso   1.00
H164   H     0.07189   0.39429   0.29412   0.00000  Uiso   1.00
S165   S     0.38014   0.41277   0.23570   0.00000  Uiso   1.00
O166   O     0.34761   0.38252   0.20331   0.00000  Uiso   1.00
O167   O     0.41124   0.37812   0.26595   0.00000  Uiso   1.00
O168   O     0.35258   0.44486   0.28448   0.00000  Uiso   1.00
H169   H     0.33160   0.42072   0.30116   0.00000  Uiso   1.00
S170   S     0.11872   0.59469   0.13158   0.00000  Uiso   1.00
O171   O     0.14537   0.59442   0.07911   0.00000  Uiso   1.00
O172   O     0.08602   0.63733   0.12979   0.00000  Uiso   1.00
O173   O     0.15309   0.60409   0.18495   0.00000  Uiso   1.00
H174   H     0.13341   0.60484   0.21779   0.00000  Uiso   1.00
O175   O     0.75000   0.42845   0.21228   0.00000  Uiso   1.00
O176   O     0.75000   0.57155   0.12105   0.00000  Uiso   1.00
O177   O     0.75000   0.57155   0.21228   0.00000  Uiso   1.00
O178   O     0.75000   0.42845   0.12105   0.00000  Uiso   1.00
H179   H     0.96154   0.37102   0.19628   0.00000  Uiso   1.00
H180   H     0.53998   0.59056   0.06954   0.00000  Uiso   1.00
H181   H     0.96011   0.58935   0.06745   0.00000  Uiso   1.00
H182   H     0.54041   0.37008   0.19300   0.00000  Uiso   1.00
C183   C     0.74997   0.40597   0.16677   0.00000  Uiso   1.00
C184   C     0.74952   0.59403   0.16652   0.00000  Uiso   1.00
O185   O     0.68393   0.50000   0.21230   0.00000  Uiso   1.00
O186   O     0.81608   0.50000   0.12104   0.00000  Uiso   1.00
O187   O     0.81608   0.50000   0.21230   0.00000  Uiso   1.00
O188   O     0.68393   0.50000   0.12104   0.00000  Uiso   1.00
C189   C     0.66313   0.49784   0.16692   0.00000  Uiso   1.00
C190   C     0.83694   0.49785   0.16679   0.00000  Uiso   1.00
Zn191  Zn    0.75000   0.50000   0.22759   0.00000  Uiso   1.00
Zn192  Zn    0.75000   0.50000   0.10574   0.00000  Uiso   1.00
N193   N     0.75000   0.50000   0.02455   0.00000  Uiso   1.00
N194   N     0.75000   0.50000   0.30879   0.00000  Uiso   1.00
C195   C     0.90764   0.53504   0.13791   0.00000  Uiso   1.00
C196   C     0.59279   0.45386   0.18784   0.00000  Uiso   1.00
C197   C     0.90804   0.45487   0.18908   0.00000  Uiso   1.00
C198   C     0.59201   0.53578   0.14038   0.00000  Uiso   1.00
C199   C     0.88514   0.49663   0.16644   0.00000  Uiso   1.00
C200   C     0.61504   0.49644   0.16698   0.00000  Uiso   1.00
C201   C     0.95380   0.44977   0.17742   0.00000  Uiso   1.00
C202   C     0.54657   0.53030   0.12936   0.00000  Uiso   1.00
C203   C     0.95342   0.52973   0.12802   0.00000  Uiso   1.00
C204   C     0.54711   0.44928   0.17650   0.00000  Uiso   1.00
C205   C     0.97676   0.48928   0.15170   0.00000  Uiso   1.00
C206   C     0.52368   0.48930   0.15182   0.00000  Uiso   1.00
C207   C     0.97767   0.40578   0.18830   0.00000  Uiso   1.00
C208   C     0.52309   0.56390   0.09560   0.00000  Uiso   1.00
C209   C     0.97693   0.56327   0.09449   0.00000  Uiso   1.00
C210   C     0.52376   0.40532   0.18696   0.00000  Uiso   1.00
C211   C     0.74979   0.35505   0.16675   0.00000  Uiso   1.00
C212   C     0.74960   0.64498   0.16642   0.00000  Uiso   1.00
S213   S     0.87978   0.59302   0.12406   0.00000  Uiso   1.00
O214   O     0.85749   0.59058   0.06879   0.00000  Uiso   1.00
O215   O     0.84530   0.60280   0.16756   0.00000  Uiso   1.00
O216   O     0.91496   0.64134   0.12443   0.00000  Uiso   1.00
H217   H     0.93192   0.63682   0.15903   0.00000  Uiso   1.00
S218   S     0.62128   0.40917   0.23122   0.00000  Uiso   1.00
O219   O     0.65035   0.37740   0.19520   0.00000  Uiso   1.00
O220   O     0.65012   0.43454   0.27282   0.00000  Uiso   1.00
O221   O     0.58707   0.37196   0.26760   0.00000  Uiso   1.00
H222   H     0.57189   0.39429   0.29412   0.00000  Uiso   1.00
S223   S     0.88014   0.41277   0.23570   0.00000  Uiso   1.00
O224   O     0.84761   0.38252   0.20331   0.00000  Uiso   1.00
O225   O     0.91124   0.37812   0.26595   0.00000  Uiso   1.00
O226   O     0.85258   0.44486   0.28448   0.00000  Uiso   1.00
H227   H     0.83160   0.42072   0.30116   0.00000  Uiso   1.00
S228   S     0.61872   0.59469   0.13158   0.00000  Uiso   1.00
O229   O     0.64537   0.59442   0.07911   0.00000  Uiso   1.00
O230   O     0.58602   0.63733   0.12979   0.00000  Uiso   1.00
O231   O     0.65309   0.60409   0.18495   0.00000  Uiso   1.00
H232   H     0.63341   0.60484   0.21779   0.00000  Uiso   1.00
O233   O     0.25000   0.76178   0.21228   0.00000  Uiso   1.00
O234   O     0.25000   0.90488   0.12105   0.00000  Uiso   1.00
O235   O     0.25000   0.90488   0.21228   0.00000  Uiso   1.00
O236   O     0.25000   0.76178   0.12105   0.00000  Uiso   1.00
H237   H     0.46154   0.70435   0.19628   0.00000  Uiso   1.00
H238   H     0.03998   0.92389   0.06954   0.00000  Uiso   1.00
H239   H     0.46011   0.92269   0.06745   0.00000  Uiso   1.00
H240   H     0.04041   0.70342   0.19300   0.00000  Uiso   1.00
C241   C     0.24997   0.73931   0.16677   0.00000  Uiso   1.00
C242   C     0.24952   0.92736   0.16652   0.00000  Uiso   1.00
O243   O     0.18393   0.83333   0.21230   0.00000  Uiso   1.00
O244   O     0.31608   0.83333   0.12104   0.00000  Uiso   1.00
O245   O     0.31608   0.83333   0.21230   0.00000  Uiso   1.00
O246   O     0.18393   0.83333   0.12104   0.00000  Uiso   1.00
C247   C     0.16313   0.83117   0.16692   0.00000  Uiso   1.00
C248   C     0.33694   0.83118   0.16679   0.00000  Uiso   1.00
Zn249  Zn    0.25000   0.83333   0.22759   0.00000  Uiso   1.00
Zn250  Zn    0.25000   0.83333   0.10574   0.00000  Uiso   1.00
N251   N     0.25000   0.83333   0.02455   0.00000  Uiso   1.00
N252   N     0.25000   0.83333   0.30879   0.00000  Uiso   1.00
C253   C     0.40764   0.86837   0.13791   0.00000  Uiso   1.00
C254   C     0.09279   0.78720   0.18784   0.00000  Uiso   1.00
C255   C     0.40804   0.78820   0.18908   0.00000  Uiso   1.00
C256   C     0.09201   0.86911   0.14038   0.00000  Uiso   1.00
C257   C     0.38514   0.82996   0.16644   0.00000  Uiso   1.00
C258   C     0.11504   0.82977   0.16698   0.00000  Uiso   1.00
C259   C     0.45380   0.78311   0.17742   0.00000  Uiso   1.00
C260   C     0.04657   0.86363   0.12936   0.00000  Uiso   1.00
C261   C     0.45342   0.86307   0.12802   0.00000  Uiso   1.00
C262   C     0.04711   0.78261   0.17650   0.00000  Uiso   1.00
C263   C     0.47676   0.82261   0.15170   0.00000  Uiso   1.00
C264   C     0.02368   0.82264   0.15182   0.00000  Uiso   1.00
C265   C     0.47767   0.73912   0.18830   0.00000  Uiso   1.00
C266   C     0.02309   0.89724   0.09560   0.00000  Uiso   1.00
C267   C     0.47693   0.89660   0.09449   0.00000  Uiso   1.00
C268   C     0.02376   0.73865   0.18696   0.00000  Uiso   1.00
C269   C     0.24979   0.68838   0.16675   0.00000  Uiso   1.00
C270   C     0.24960   0.97831   0.16642   0.00000  Uiso   1.00
S271   S     0.37978   0.92636   0.12406   0.00000  Uiso   1.00
O272   O     0.35749   0.92391   0.06879   0.00000  Uiso   1.00
O273   O     0.34530   0.93614   0.16756   0.00000  Uiso   1.00
O274   O     0.41496   0.97468   0.12443   0.00000  Uiso   1.00
H275   H     0.43192   0.97015   0.15903   0.00000  Uiso   1.00
S276   S     0.12128   0.74250   0.23122   0.00000  Uiso   1.00
O277   O     0.15035   0.71073   0.19520   0.00000  Uiso   1.00
O278   O     0.15012   0.76787   0.27282   0.00000  Uiso   1.00
O279   O     0.08707   0.70530   0.26760   0.00000  Uiso   1.00
H280   H     0.07189   0.72762   0.29412   0.00000  Uiso   1.00
S281   S     0.38014   0.74610   0.23570   0.00000  Uiso   1.00
O282   O     0.34761   0.71585   0.20331   0.00000  Uiso   1.00
O283   O     0.41124   0.71145   0.26595   0.00000  Uiso   1.00
O284   O     0.35258   0.77819   0.28448   0.00000  Uiso   1.00
H285   H     0.33160   0.75406   0.30116   0.00000  Uiso   1.00
S286   S     0.11872   0.92802   0.13158   0.00000  Uiso   1.00
O287   O     0.14537   0.92776   0.07911   0.00000  Uiso   1.00
O288   O     0.08602   0.97066   0.12979   0.00000  Uiso   1.00
O289   O     0.15309   0.93743   0.18495   0.00000  Uiso   1.00
H290   H     0.13341   0.93817   0.21779   0.00000  Uiso   1.00
O291   O     0.75000   0.76178   0.21228   0.00000  Uiso   1.00
O292   O     0.75000   0.90488   0.12105   0.00000  Uiso   1.00
O293   O     0.75000   0.90488   0.21228   0.00000  Uiso   1.00
O294   O     0.75000   0.76178   0.12105   0.00000  Uiso   1.00
H295   H     0.96154   0.70435   0.19628   0.00000  Uiso   1.00
H296   H     0.53998   0.92389   0.06954   0.00000  Uiso   1.00
H297   H     0.96011   0.92269   0.06745   0.00000  Uiso   1.00
H298   H     0.54041   0.70342   0.19300   0.00000  Uiso   1.00
C299   C     0.74997   0.73931   0.16677   0.00000  Uiso   1.00
C300   C     0.74952   0.92736   0.16652   0.00000  Uiso   1.00
O301   O     0.68393   0.83333   0.21230   0.00000  Uiso   1.00
O302   O     0.81608   0.83333   0.12104   0.00000  Uiso   1.00
O303   O     0.81608   0.83333   0.21230   0.00000  Uiso   1.00
O304   O     0.68393   0.83333   0.12104   0.00000  Uiso   1.00
C305   C     0.66313   0.83117   0.16692   0.00000  Uiso   1.00
C306   C     0.83694   0.83118   0.16679   0.00000  Uiso   1.00
Zn307  Zn    0.75000   0.83333   0.22759   0.00000  Uiso   1.00
Zn308  Zn    0.75000   0.83333   0.10574   0.00000  Uiso   1.00
N309   N     0.75000   0.83333   0.02455   0.00000  Uiso   1.00
N310   N     0.75000   0.83333   0.30879   0.00000  Uiso   1.00
C311   C     0.90764   0.86837   0.13791   0.00000  Uiso   1.00
C312   C     0.59279   0.78720   0.18784   0.00000  Uiso   1.00
C313   C     0.90804   0.78820   0.18908   0.00000  Uiso   1.00
C314   C     0.59201   0.86911   0.14038   0.00000  Uiso   1.00
C315   C     0.88514   0.82996   0.16644   0.00000  Uiso   1.00
C316   C     0.61504   0.82977   0.16698   0.00000  Uiso   1.00
C317   C     0.95380   0.78311   0.17742   0.00000  Uiso   1.00
C318   C     0.54657   0.86363   0.12936   0.00000  Uiso   1.00
C319   C     0.95342   0.86307   0.12802   0.00000  Uiso   1.00
C320   C     0.54711   0.78261   0.17650   0.00000  Uiso   1.00
C321   C     0.97676   0.82261   0.15170   0.00000  Uiso   1.00
C322   C     0.52368   0.82264   0.15182   0.00000  Uiso   1.00
C323   C     0.97767   0.73912   0.18830   0.00000  Uiso   1.00
C324   C     0.52309   0.89724   0.09560   0.00000  Uiso   1.00
C325   C     0.97693   0.89660   0.09449   0.00000  Uiso   1.00
C326   C     0.52376   0.73865   0.18696   0.00000  Uiso   1.00
C327   C     0.74979   0.68838   0.16675   0.00000  Uiso   1.00
C328   C     0.74960   0.97831   0.16642   0.00000  Uiso   1.00
S329   S     0.87978   0.92636   0.12406   0.00000  Uiso   1.00
O330   O     0.85749   0.92391   0.06879   0.00000  Uiso   1.00
O331   O     0.84530   0.93614   0.16756   0.00000  Uiso   1.00
O332   O     0.91496   0.97468   0.12443   0.00000  Uiso   1.00
H333   H     0.93192   0.97015   0.15903   0.00000  Uiso   1.00
S334   S     0.62128   0.74250   0.23122   0.00000  Uiso   1.00
O335   O     0.65035   0.71073   0.19520   0.00000  Uiso   1.00
O336   O     0.65012   0.76787   0.27282   0.00000  Uiso   1.00
O337   O     0.58707   0.70530   0.26760   0.00000  Uiso   1.00
H338   H     0.57189   0.72762   0.29412   0.00000  Uiso   1.00
S339   S     0.88014   0.74610   0.23570   0.00000  Uiso   1.00
O340   O     0.84761   0.71585   0.20331   0.00000  Uiso   1.00
O341   O     0.91124   0.71145   0.26595   0.00000  Uiso   1.00
O342   O     0.85258   0.77819   0.28448   0.00000  Uiso   1.00
H343   H     0.83160   0.75406   0.30116   0.00000  Uiso   1.00
S344   S     0.61872   0.92802   0.13158   0.00000  Uiso   1.00
O345   O     0.64537   0.92776   0.07911   0.00000  Uiso   1.00
O346   O     0.58602   0.97066   0.12979   0.00000  Uiso   1.00
O347   O     0.65309   0.93743   0.18495   0.00000  Uiso   1.00
H348   H     0.63341   0.93817   0.21779   0.00000  Uiso   1.00
O349   O     0.25000   0.09512   0.54562   0.00000  Uiso   1.00
O350   O     0.25000   0.23822   0.45438   0.00000  Uiso   1.00
O351   O     0.25000   0.23822   0.54562   0.00000  Uiso   1.00
O352   O     0.25000   0.09512   0.45438   0.00000  Uiso   1.00
H353   H     0.46154   0.03769   0.52962   0.00000  Uiso   1.00
H354   H     0.03998   0.25723   0.40287   0.00000  Uiso   1.00
H355   H     0.46011   0.25602   0.40079   0.00000  Uiso   1.00
H356   H     0.04041   0.03675   0.52633   0.00000  Uiso   1.00
C357   C     0.24997   0.07264   0.50010   0.00000  Uiso   1.00
C358   C     0.24952   0.26070   0.49986   0.00000  Uiso   1.00
O359   O     0.18393   0.16667   0.54563   0.00000  Uiso   1.00
O360   O     0.31608   0.16667   0.45437   0.00000  Uiso   1.00
O361   O     0.31608   0.16667   0.54563   0.00000  Uiso   1.00
O362   O     0.18393   0.16667   0.45437   0.00000  Uiso   1.00
C363   C     0.16313   0.16450   0.50025   0.00000  Uiso   1.00
C364   C     0.33694   0.16451   0.50012   0.00000  Uiso   1.00
Zn365  Zn    0.25000   0.16667   0.56093   0.00000  Uiso   1.00
Zn366  Zn    0.25000   0.16667   0.43907   0.00000  Uiso   1.00
N367   N     0.25000   0.16667   0.35788   0.00000  Uiso   1.00
N368   N     0.25000   0.16667   0.64212   0.00000  Uiso   1.00
C369   C     0.40764   0.20170   0.47124   0.00000  Uiso   1.00
C370   C     0.09279   0.12053   0.52117   0.00000  Uiso   1.00
C371   C     0.40804   0.12154   0.52241   0.00000  Uiso   1.00
C372   C     0.09201   0.20244   0.47371   0.00000  Uiso   1.00
C373   C     0.38514   0.16329   0.49978   0.00000  Uiso   1.00
C374   C     0.11504   0.16311   0.50031   0.00000  Uiso   1.00
C375   C     0.45380   0.11644   0.51076   0.00000  Uiso   1.00
C376   C     0.04657   0.19696   0.46270   0.00000  Uiso   1.00
C377   C     0.45342   0.19640   0.46135   0.00000  Uiso   1.00
C378   C     0.04711   0.11595   0.50983   0.00000  Uiso   1.00
C379   C     0.47676   0.15594   0.48503   0.00000  Uiso   1.00
C380   C     0.02368   0.15597   0.48515   0.00000  Uiso   1.00
C381   C     0.47767   0.07245   0.52163   0.00000  Uiso   1.00
C382   C     0.02309   0.23057   0.42893   0.00000  Uiso   1.00
C383   C     0.47693   0.22994   0.42782   0.00000  Uiso   1.00
C384   C     0.02376   0.07199   0.52030   0.00000  Uiso   1.00
C385   C     0.24979   0.02171   0.50008   0.00000  Uiso   1.00
C386   C     0.24960   0.31164   0.49975   0.00000  Uiso   1.00
S387   S     0.37978   0.25969   0.45739   0.00000  Uiso   1.00
O388   O     0.35749   0.25724   0.40212   0.00000  Uiso   1.00
O389   O     0.34530   0.26947   0.50089   0.00000  Uiso   1.00
O390   O     0.41496   0.30801   0.45777   0.00000  Uiso   1.00
H391   H     0.43192   0.30348   0.49236   0.00000  Uiso   1.00
S392   S     0.12128   0.07584   0.56455   0.00000  Uiso   1.00
O393   O     0.15035   0.04407   0.52854   0.00000  Uiso   1.00
O394   O     0.15012   0.10121   0.60616   0.00000  Uiso   1.00
O395   O     0.08707   0.03863   0.60094   0.00000  Uiso   1.00
H396   H     0.07189   0.06095   0.62745   0.00000  Uiso   1.00
S397   S     0.38014   0.07944   0.56904   0.00000  Uiso   1.00
O398   O     0.34761   0.04918   0.53665   0.00000  Uiso   1.00
O399   O     0.41124   0.04479   0.59928   0.00000  Uiso   1.00
O400   O     0.35258   0.11152   0.61781   0.00000  Uiso   1.00
H401   H     0.33160   0.08739   0.63450   0.00000  Uiso   1.00
S402   S     0.11872   0.26135   0.46491   0.00000  Uiso   1.00
O403   O     0.14537   0.26109   0.41245   0.00000  Uiso   1.00
O404   O     0.08602   0.30399   0.46312   0.00000  Uiso   1.00
O405   O     0.15309   0.27076   0.51828   0.00000  Uiso   1.00
H406   H     0.13341   0.27151   0.55112   0.00000  Uiso   1.00
O407   O     0.75000   0.09512   0.54562   0.00000  Uiso   1.00
O408   O     0.75000   0.23822   0.45438   0.00000  Uiso   1.00
O409   O     0.75000   0.23822   0.54562   0.00000  Uiso   1.00
O410   O     0.75000   0.09512   0.45438   0.00000  Uiso   1.00
H411   H     0.96154   0.03769   0.52962   0.00000  Uiso   1.00
H412   H     0.53998   0.25723   0.40287   0.00000  Uiso   1.00
H413   H     0.96011   0.25602   0.40079   0.00000  Uiso   1.00
H414   H     0.54041   0.03675   0.52633   0.00000  Uiso   1.00
C415   C     0.74997   0.07264   0.50010   0.00000  Uiso   1.00
C416   C     0.74952   0.26070   0.49986   0.00000  Uiso   1.00
O417   O     0.68393   0.16667   0.54563   0.00000  Uiso   1.00
O418   O     0.81608   0.16667   0.45437   0.00000  Uiso   1.00
O419   O     0.81608   0.16667   0.54563   0.00000  Uiso   1.00
O420   O     0.68393   0.16667   0.45437   0.00000  Uiso   1.00
C421   C     0.66313   0.16450   0.50025   0.00000  Uiso   1.00
C422   C     0.83694   0.16451   0.50012   0.00000  Uiso   1.00
Zn423  Zn    0.75000   0.16667   0.56093   0.00000  Uiso   1.00
Zn424  Zn    0.75000   0.16667   0.43907   0.00000  Uiso   1.00
N425   N     0.75000   0.16667   0.35788   0.00000  Uiso   1.00
N426   N     0.75000   0.16667   0.64212   0.00000  Uiso   1.00
C427   C     0.90764   0.20170   0.47124   0.00000  Uiso   1.00
C428   C     0.59279   0.12053   0.52117   0.00000  Uiso   1.00
C429   C     0.90804   0.12154   0.52241   0.00000  Uiso   1.00
C430   C     0.59201   0.20244   0.47371   0.00000  Uiso   1.00
C431   C     0.88514   0.16329   0.49978   0.00000  Uiso   1.00
C432   C     0.61504   0.16311   0.50031   0.00000  Uiso   1.00
C433   C     0.95380   0.11644   0.51076   0.00000  Uiso   1.00
C434   C     0.54657   0.19696   0.46270   0.00000  Uiso   1.00
C435   C     0.95342   0.19640   0.46135   0.00000  Uiso   1.00
C436   C     0.54711   0.11595   0.50983   0.00000  Uiso   1.00
C437   C     0.97676   0.15594   0.48503   0.00000  Uiso   1.00
C438   C     0.52368   0.15597   0.48515   0.00000  Uiso   1.00
C439   C     0.97767   0.07245   0.52163   0.00000  Uiso   1.00
C440   C     0.52309   0.23057   0.42893   0.00000  Uiso   1.00
C441   C     0.97693   0.22994   0.42782   0.00000  Uiso   1.00
C442   C     0.52376   0.07199   0.52030   0.00000  Uiso   1.00
C443   C     0.74979   0.02171   0.50008   0.00000  Uiso   1.00
C444   C     0.74960   0.31164   0.49975   0.00000  Uiso   1.00
S445   S     0.87978   0.25969   0.45739   0.00000  Uiso   1.00
O446   O     0.85749   0.25724   0.40212   0.00000  Uiso   1.00
O447   O     0.84530   0.26947   0.50089   0.00000  Uiso   1.00
O448   O     0.91496   0.30801   0.45777   0.00000  Uiso   1.00
H449   H     0.93192   0.30348   0.49236   0.00000  Uiso   1.00
S450   S     0.62128   0.07584   0.56455   0.00000  Uiso   1.00
O451   O     0.65035   0.04407   0.52854   0.00000  Uiso   1.00
O452   O     0.65012   0.10121   0.60616   0.00000  Uiso   1.00
O453   O     0.58707   0.03863   0.60094   0.00000  Uiso   1.00
H454   H     0.57189   0.06095   0.62745   0.00000  Uiso   1.00
S455   S     0.88014   0.07944   0.56904   0.00000  Uiso   1.00
O456   O     0.84761   0.04918   0.53665   0.00000  Uiso   1.00
O457   O     0.91124   0.04479   0.59928   0.00000  Uiso   1.00
O458   O     0.85258   0.11152   0.61781   0.00000  Uiso   1.00
H459   H     0.83160   0.08739   0.63450   0.00000  Uiso   1.00
S460   S     0.61872   0.26135   0.46491   0.00000  Uiso   1.00
O461   O     0.64537   0.26109   0.41245   0.00000  Uiso   1.00
O462   O     0.58602   0.30399   0.46312   0.00000  Uiso   1.00
O463   O     0.65309   0.27076   0.51828   0.00000  Uiso   1.00
H464   H     0.63341   0.27151   0.55112   0.00000  Uiso   1.00
O465   O     0.25000   0.42845   0.54562   0.00000  Uiso   1.00
O466   O     0.25000   0.57155   0.45438   0.00000  Uiso   1.00
O467   O     0.25000   0.57155   0.54562   0.00000  Uiso   1.00
O468   O     0.25000   0.42845   0.45438   0.00000  Uiso   1.00
H469   H     0.46154   0.37102   0.52962   0.00000  Uiso   1.00
H470   H     0.03998   0.59056   0.40287   0.00000  Uiso   1.00
H471   H     0.46011   0.58935   0.40079   0.00000  Uiso   1.00
H472   H     0.04041   0.37008   0.52633   0.00000  Uiso   1.00
C473   C     0.24997   0.40597   0.50010   0.00000  Uiso   1.00
C474   C     0.24952   0.59403   0.49986   0.00000  Uiso   1.00
O475   O     0.18393   0.50000   0.54563   0.00000  Uiso   1.00
O476   O     0.31608   0.50000   0.45437   0.00000  Uiso   1.00
O477   O     0.31608   0.50000   0.54563   0.00000  Uiso   1.00
O478   O     0.18393   0.50000   0.45437   0.00000  Uiso   1.00
C479   C     0.16313   0.49784   0.50025   0.00000  Uiso   1.00
C480   C     0.33694   0.49785   0.50012   0.00000  Uiso   1.00
Zn481  Zn    0.25000   0.50000   0.56093   0.00000  Uiso   1.00
Zn482  Zn    0.25000   0.50000   0.43907   0.00000  Uiso   1.00
N483   N     0.25000   0.50000   0.35788   0.00000  Uiso   1.00
N484   N     0.25000   0.50000   0.64212   0.00000  Uiso   1.00
C485   C     0.40764   0.53504   0.47124   0.00000  Uiso   1.00
C486   C     0.09279   0.45386   0.52117   0.00000  Uiso   1.00
C487   C     0.40804   0.45487   0.52241   0.00000  Uiso   1.00
C488   C     0.09201   0.53578   0.47371   0.00000  Uiso   1.00
C489   C     0.38514   0.49663   0.49978   0.00000  Uiso   1.00
C490   C     0.11504   0.49644   0.50031   0.00000  Uiso   1.00
C491   C     0.45380   0.44977   0.51076   0.00000  Uiso   1.00
C492   C     0.04657   0.53030   0.46270   0.00000  Uiso   1.00
C493   C     0.45342   0.52973   0.46135   0.00000  Uiso   1.00
C494   C     0.04711   0.44928   0.50983   0.00000  Uiso   1.00
C495   C     0.47676   0.48928   0.48503   0.00000  Uiso   1.00
C496   C     0.02368   0.48930   0.48515   0.00000  Uiso   1.00
C497   C     0.47767   0.40578   0.52163   0.00000  Uiso   1.00
C498   C     0.02309   0.56390   0.42893   0.00000  Uiso   1.00
C499   C     0.47693   0.56327   0.42782   0.00000  Uiso   1.00
C500   C     0.02376   0.40532   0.52030   0.00000  Uiso   1.00
C501   C     0.24979   0.35505   0.50008   0.00000  Uiso   1.00
C502   C     0.24960   0.64498   0.49975   0.00000  Uiso   1.00
S503   S     0.37978   0.59302   0.45739   0.00000  Uiso   1.00
O504   O     0.35749   0.59058   0.40212   0.00000  Uiso   1.00
O505   O     0.34530   0.60280   0.50089   0.00000  Uiso   1.00
O506   O     0.41496   0.64134   0.45777   0.00000  Uiso   1.00
H507   H     0.43192   0.63682   0.49236   0.00000  Uiso   1.00
S508   S     0.12128   0.40917   0.56455   0.00000  Uiso   1.00
O509   O     0.15035   0.37740   0.52854   0.00000  Uiso   1.00
O510   O     0.15012   0.43454   0.60616   0.00000  Uiso   1.00
O511   O     0.08707   0.37196   0.60094   0.00000  Uiso   1.00
H512   H     0.07189   0.39429   0.62745   0.00000  Uiso   1.00
S513   S     0.38014   0.41277   0.56904   0.00000  Uiso   1.00
O514   O     0.34761   0.38252   0.53665   0.00000  Uiso   1.00
O515   O     0.41124   0.37812   0.59928   0.00000  Uiso   1.00
O516   O     0.35258   0.44486   0.61781   0.00000  Uiso   1.00
H517   H     0.33160   0.42072   0.63450   0.00000  Uiso   1.00
S518   S     0.11872   0.59469   0.46491   0.00000  Uiso   1.00
O519   O     0.14537   0.59442   0.41245   0.00000  Uiso   1.00
O520   O     0.08602   0.63733   0.46312   0.00000  Uiso   1.00
O521   O     0.15309   0.60409   0.51828   0.00000  Uiso   1.00
H522   H     0.13341   0.60484   0.55112   0.00000  Uiso   1.00
O523   O     0.75000   0.42845   0.54562   0.00000  Uiso   1.00
O524   O     0.75000   0.57155   0.45438   0.00000  Uiso   1.00
O525   O     0.75000   0.57155   0.54562   0.00000  Uiso   1.00
O526   O     0.75000   0.42845   0.45438   0.00000  Uiso   1.00
H527   H     0.96154   0.37102   0.52962   0.00000  Uiso   1.00
H528   H     0.53998   0.59056   0.40287   0.00000  Uiso   1.00
H529   H     0.96011   0.58935   0.40079   0.00000  Uiso   1.00
H530   H     0.54041   0.37008   0.52633   0.00000  Uiso   1.00
C531   C     0.74997   0.40597   0.50010   0.00000  Uiso   1.00
C532   C     0.74952   0.59403   0.49986   0.00000  Uiso   1.00
O533   O     0.68393   0.50000   0.54563   0.00000  Uiso   1.00
O534   O     0.81608   0.50000   0.45437   0.00000  Uiso   1.00
O535   O     0.81608   0.50000   0.54563   0.00000  Uiso   1.00
O536   O     0.68393   0.50000   0.45437   0.00000  Uiso   1.00
C537   C     0.66313   0.49784   0.50025   0.00000  Uiso   1.00
C538   C     0.83694   0.49785   0.50012   0.00000  Uiso   1.00
Zn539  Zn    0.75000   0.50000   0.56093   0.00000  Uiso   1.00
Zn540  Zn    0.75000   0.50000   0.43907   0.00000  Uiso   1.00
N541   N     0.75000   0.50000   0.35788   0.00000  Uiso   1.00
N542   N     0.75000   0.50000   0.64212   0.00000  Uiso   1.00
C543   C     0.90764   0.53504   0.47124   0.00000  Uiso   1.00
C544   C     0.59279   0.45386   0.52117   0.00000  Uiso   1.00
C545   C     0.90804   0.45487   0.52241   0.00000  Uiso   1.00
C546   C     0.59201   0.53578   0.47371   0.00000  Uiso   1.00
C547   C     0.88514   0.49663   0.49978   0.00000  Uiso   1.00
C548   C     0.61504   0.49644   0.50031   0.00000  Uiso   1.00
C549   C     0.95380   0.44977   0.51076   0.00000  Uiso   1.00
C550   C     0.54657   0.53030   0.46270   0.00000  Uiso   1.00
C551   C     0.95342   0.52973   0.46135   0.00000  Uiso   1.00
C552   C     0.54711   0.44928   0.50983   0.00000  Uiso   1.00
C553   C     0.97676   0.48928   0.48503   0.00000  Uiso   1.00
C554   C     0.52368   0.48930   0.48515   0.00000  Uiso   1.00
C555   C     0.97767   0.40578   0.52163   0.00000  Uiso   1.00
C556   C     0.52309   0.56390   0.42893   0.00000  Uiso   1.00
C557   C     0.97693   0.56327   0.42782   0.00000  Uiso   1.00
C558   C     0.52376   0.40532   0.52030   0.00000  Uiso   1.00
C559   C     0.74979   0.35505   0.50008   0.00000  Uiso   1.00
C560   C     0.74960   0.64498   0.49975   0.00000  Uiso   1.00
S561   S     0.87978   0.59302   0.45739   0.00000  Uiso   1.00
O562   O     0.85749   0.59058   0.40212   0.00000  Uiso   1.00
O563   O     0.84530   0.60280   0.50089   0.00000  Uiso   1.00
O564   O     0.91496   0.64134   0.45777   0.00000  Uiso   1.00
H565   H     0.93192   0.63682   0.49236   0.00000  Uiso   1.00
S566   S     0.62128   0.40917   0.56455   0.00000  Uiso   1.00
O567   O     0.65035   0.37740   0.52854   0.00000  Uiso   1.00
O568   O     0.65012   0.43454   0.60616   0.00000  Uiso   1.00
O569   O     0.58707   0.37196   0.60094   0.00000  Uiso   1.00
H570   H     0.57189   0.39429   0.62745   0.00000  Uiso   1.00
S571   S     0.88014   0.41277   0.56904   0.00000  Uiso   1.00
O572   O     0.84761   0.38252   0.53665   0.00000  Uiso   1.00
O573   O     0.91124   0.37812   0.59928   0.00000  Uiso   1.00
O574   O     0.85258   0.44486   0.61781   0.00000  Uiso   1.00
H575   H     0.83160   0.42072   0.63450   0.00000  Uiso   1.00
S576   S     0.61872   0.59469   0.46491   0.00000  Uiso   1.00
O577   O     0.64537   0.59442   0.41245   0.00000  Uiso   1.00
O578   O     0.58602   0.63733   0.46312   0.00000  Uiso   1.00
O579   O     0.65309   0.60409   0.51828   0.00000  Uiso   1.00
H580   H     0.63341   0.60484   0.55112   0.00000  Uiso   1.00
O581   O     0.25000   0.76178   0.54562   0.00000  Uiso   1.00
O582   O     0.25000   0.90488   0.45438   0.00000  Uiso   1.00
O583   O     0.25000   0.90488   0.54562   0.00000  Uiso   1.00
O584   O     0.25000   0.76178   0.45438   0.00000  Uiso   1.00
H585   H     0.46154   0.70435   0.52962   0.00000  Uiso   1.00
H586   H     0.03998   0.92389   0.40287   0.00000  Uiso   1.00
H587   H     0.46011   0.92269   0.40079   0.00000  Uiso   1.00
H588   H     0.04041   0.70342   0.52633   0.00000  Uiso   1.00
C589   C     0.24997   0.73931   0.50010   0.00000  Uiso   1.00
C590   C     0.24952   0.92736   0.49986   0.00000  Uiso   1.00
O591   O     0.18393   0.83333   0.54563   0.00000  Uiso   1.00
O592   O     0.31608   0.83333   0.45437   0.00000  Uiso   1.00
O593   O     0.31608   0.83333   0.54563   0.00000  Uiso   1.00
O594   O     0.18393   0.83333   0.45437   0.00000  Uiso   1.00
C595   C     0.16313   0.83117   0.50025   0.00000  Uiso   1.00
C596   C     0.33694   0.83118   0.50012   0.00000  Uiso   1.00
Zn597  Zn    0.25000   0.83333   0.56093   0.00000  Uiso   1.00
Zn598  Zn    0.25000   0.83333   0.43907   0.00000  Uiso   1.00
N599   N     0.25000   0.83333   0.35788   0.00000  Uiso   1.00
N600   N     0.25000   0.83333   0.64212   0.00000  Uiso   1.00
C601   C     0.40764   0.86837   0.47124   0.00000  Uiso   1.00
C602   C     0.09279   0.78720   0.52117   0.00000  Uiso   1.00
C603   C     0.40804   0.78820   0.52241   0.00000  Uiso   1.00
C604   C     0.09201   0.86911   0.47371   0.00000  Uiso   1.00
C605   C     0.38514   0.82996   0.49978   0.00000  Uiso   1.00
C606   C     0.11504   0.82977   0.50031   0.00000  Uiso   1.00
C607   C     0.45380   0.78311   0.51076   0.00000  Uiso   1.00
C608   C     0.04657   0.86363   0.46270   0.00000  Uiso   1.00
C609   C     0.45342   0.86307   0.46135   0.00000  Uiso   1.00
C610   C     0.04711   0.78261   0.50983   0.00000  Uiso   1.00
C611   C     0.47676   0.82261   0.48503   0.00000  Uiso   1.00
C612   C     0.02368   0.82264   0.48515   0.00000  Uiso   1.00
C613   C     0.47767   0.73912   0.52163   0.00000  Uiso   1.00
C614   C     0.02309   0.89724   0.42893   0.00000  Uiso   1.00
C615   C     0.47693   0.89660   0.42782   0.00000  Uiso   1.00
C616   C     0.02376   0.73865   0.52030   0.00000  Uiso   1.00
C617   C     0.24979   0.68838   0.50008   0.00000  Uiso   1.00
C618   C     0.24960   0.97831   0.49975   0.00000  Uiso   1.00
S619   S     0.37978   0.92636   0.45739   0.00000  Uiso   1.00
O620   O     0.35749   0.92391   0.40212   0.00000  Uiso   1.00
O621   O     0.34530   0.93614   0.50089   0.00000  Uiso   1.00
O622   O     0.41496   0.97468   0.45777   0.00000  Uiso   1.00
H623   H     0.43192   0.97015   0.49236   0.00000  Uiso   1.00
S624   S     0.12128   0.74250   0.56455   0.00000  Uiso   1.00
O625   O     0.15035   0.71073   0.52854   0.00000  Uiso   1.00
O626   O     0.15012   0.76787   0.60616   0.00000  Uiso   1.00
O627   O     0.08707   0.70530   0.60094   0.00000  Uiso   1.00
H628   H     0.07189   0.72762   0.62745   0.00000  Uiso   1.00
S629   S     0.38014   0.74610   0.56904   0.00000  Uiso   1.00
O630   O     0.34761   0.71585   0.53665   0.00000  Uiso   1.00
O631   O     0.41124   0.71145   0.59928   0.00000  Uiso   1.00
O632   O     0.35258   0.77819   0.61781   0.00000  Uiso   1.00
H633   H     0.33160   0.75406   0.63450   0.00000  Uiso   1.00
S634   S     0.11872   0.92802   0.46491   0.00000  Uiso   1.00
O635   O     0.14537   0.92776   0.41245   0.00000  Uiso   1.00
O636   O     0.08602   0.97066   0.46312   0.00000  Uiso   1.00
O637   O     0.15309   0.93743   0.51828   0.00000  Uiso   1.00
H638   H     0.13341   0.93817   0.55112   0.00000  Uiso   1.00
O639   O     0.75000   0.76178   0.54562   0.00000  Uiso   1.00
O640   O     0.75000   0.90488   0.45438   0.00000  Uiso   1.00
O641   O     0.75000   0.90488   0.54562   0.00000  Uiso   1.00
O642   O     0.75000   0.76178   0.45438   0.00000  Uiso   1.00
H643   H     0.96154   0.70435   0.52962   0.00000  Uiso   1.00
H644   H     0.53998   0.92389   0.40287   0.00000  Uiso   1.00
H645   H     0.96011   0.92269   0.40079   0.00000  Uiso   1.00
H646   H     0.54041   0.70342   0.52633   0.00000  Uiso   1.00
C647   C     0.74997   0.73931   0.50010   0.00000  Uiso   1.00
C648   C     0.74952   0.92736   0.49986   0.00000  Uiso   1.00
O649   O     0.68393   0.83333   0.54563   0.00000  Uiso   1.00
O650   O     0.81608   0.83333   0.45437   0.00000  Uiso   1.00
O651   O     0.81608   0.83333   0.54563   0.00000  Uiso   1.00
O652   O     0.68393   0.83333   0.45437   0.00000  Uiso   1.00
C653   C     0.66313   0.83117   0.50025   0.00000  Uiso   1.00
C654   C     0.83694   0.83118   0.50012   0.00000  Uiso   1.00
Zn655  Zn    0.75000   0.83333   0.56093   0.00000  Uiso   1.00
Zn656  Zn    0.75000   0.83333   0.43907   0.00000  Uiso   1.00
N657   N     0.75000   0.83333   0.35788   0.00000  Uiso   1.00
N658   N     0.75000   0.83333   0.64212   0.00000  Uiso   1.00
C659   C     0.90764   0.86837   0.47124   0.00000  Uiso   1.00
C660   C     0.59279   0.78720   0.52117   0.00000  Uiso   1.00
C661   C     0.90804   0.78820   0.52241   0.00000  Uiso   1.00
C662   C     0.59201   0.86911   0.47371   0.00000  Uiso   1.00
C663   C     0.88514   0.82996   0.49978   0.00000  Uiso   1.00
C664   C     0.61504   0.82977   0.50031   0.00000  Uiso   1.00
C665   C     0.95380   0.78311   0.51076   0.00000  Uiso   1.00
C666   C     0.54657   0.86363   0.46270   0.00000  Uiso   1.00
C667   C     0.95342   0.86307   0.46135   0.00000  Uiso   1.00
C668   C     0.54711   0.78261   0.50983   0.00000  Uiso   1.00
C669   C     0.97676   0.82261   0.48503   0.00000  Uiso   1.00
C670   C     0.52368   0.82264   0.48515   0.00000  Uiso   1.00
C671   C     0.97767   0.73912   0.52163   0.00000  Uiso   1.00
C672   C     0.52309   0.89724   0.42893   0.00000  Uiso   1.00
C673   C     0.97693   0.89660   0.42782   0.00000  Uiso   1.00
C674   C     0.52376   0.73865   0.52030   0.00000  Uiso   1.00
C675   C     0.74979   0.68838   0.50008   0.00000  Uiso   1.00
C676   C     0.74960   0.97831   0.49975   0.00000  Uiso   1.00
S677   S     0.87978   0.92636   0.45739   0.00000  Uiso   1.00
O678   O     0.85749   0.92391   0.40212   0.00000  Uiso   1.00
O679   O     0.84530   0.93614   0.50089   0.00000  Uiso   1.00
O680   O     0.91496   0.97468   0.45777   0.00000  Uiso   1.00
H681   H     0.93192   0.97015   0.49236   0.00000  Uiso   1.00
S682   S     0.62128   0.74250   0.56455   0.00000  Uiso   1.00
O683   O     0.65035   0.71073   0.52854   0.00000  Uiso   1.00
O684   O     0.65012   0.76787   0.60616   0.00000  Uiso   1.00
O685   O     0.58707   0.70530   0.60094   0.00000  Uiso   1.00
H686   H     0.57189   0.72762   0.62745   0.00000  Uiso   1.00
S687   S     0.88014   0.74610   0.56904   0.00000  Uiso   1.00
O688   O     0.84761   0.71585   0.53665   0.00000  Uiso   1.00
O689   O     0.91124   0.71145   0.59928   0.00000  Uiso   1.00
O690   O     0.85258   0.77819   0.61781   0.00000  Uiso   1.00
H691   H     0.83160   0.75406   0.63450   0.00000  Uiso   1.00
S692   S     0.61872   0.92802   0.46491   0.00000  Uiso   1.00
O693   O     0.64537   0.92776   0.41245   0.00000  Uiso   1.00
O694   O     0.58602   0.97066   0.46312   0.00000  Uiso   1.00
O695   O     0.65309   0.93743   0.51828   0.00000  Uiso   1.00
H696   H     0.63341   0.93817   0.55112   0.00000  Uiso   1.00
O697   O     0.25000   0.09512   0.87895   0.00000  Uiso   1.00
O698   O     0.25000   0.23822   0.78772   0.00000  Uiso   1.00
O699   O     0.25000   0.23822   0.87895   0.00000  Uiso   1.00
O700   O     0.25000   0.09512   0.78772   0.00000  Uiso   1.00
H701   H     0.46154   0.03769   0.86295   0.00000  Uiso   1.00
H702   H     0.03998   0.25723   0.73620   0.00000  Uiso   1.00
H703   H     0.46011   0.25602   0.73412   0.00000  Uiso   1.00
H704   H     0.04041   0.03675   0.85967   0.00000  Uiso   1.00
C705   C     0.24997   0.07264   0.83343   0.00000  Uiso   1.00
C706   C     0.24952   0.26070   0.83319   0.00000  Uiso   1.00
O707   O     0.18393   0.16667   0.87896   0.00000  Uiso   1.00
O708   O     0.31608   0.16667   0.78770   0.00000  Uiso   1.00
O709   O     0.31608   0.16667   0.87896   0.00000  Uiso   1.00
O710   O     0.18393   0.16667   0.78770   0.00000  Uiso   1.00
C711   C     0.16313   0.16450   0.83358   0.00000  Uiso   1.00
C712   C     0.33694   0.16451   0.83346   0.00000  Uiso   1.00
Zn713  Zn    0.25000   0.16667   0.89426   0.00000  Uiso   1.00
Zn714  Zn    0.25000   0.16667   0.77241   0.00000  Uiso   1.00
N715   N     0.25000   0.16667   0.69121   0.00000  Uiso   1.00
N716   N     0.25000   0.16667   0.97545   0.00000  Uiso   1.00
C717   C     0.40764   0.20170   0.80457   0.00000  Uiso   1.00
C718   C     0.09279   0.12053   0.85450   0.00000  Uiso   1.00
C719   C     0.40804   0.12154   0.85575   0.00000  Uiso   1.00
C720   C     0.09201   0.20244   0.80704   0.00000  Uiso   1.00
C721   C     0.38514   0.16329   0.83311   0.00000  Uiso   1.00
C722   C     0.11504   0.16311   0.83364   0.00000  Uiso   1.00
C723   C     0.45380   0.11644   0.84409   0.00000  Uiso   1.00
C724   C     0.04657   0.19696   0.79603   0.00000  Uiso   1.00
C725   C     0.45342   0.19640   0.79468   0.00000  Uiso   1.00
C726   C     0.04711   0.11595   0.84316   0.00000  Uiso   1.00
C727   C     0.47676   0.15594   0.81836   0.00000  Uiso   1.00
C728   C     0.02368   0.15597   0.81848   0.00000  Uiso   1.00
C729   C     0.47767   0.07245   0.85496   0.00000  Uiso   1.00
C730   C     0.02309   0.23057   0.76227   0.00000  Uiso   1.00
C731   C     0.47693   0.22994   0.76116   0.00000  Uiso   1.00
C732   C     0.02376   0.07199   0.85363   0.00000  Uiso   1.00
C733   C     0.24979   0.02171   0.83342   0.00000  Uiso   1.00
C734   C     0.24960   0.31164   0.83308   0.00000  Uiso   1.00
S735   S     0.37978   0.25969   0.79072   0.00000  Uiso   1.00
O736   O     0.35749   0.25724   0.73546   0.00000  Uiso   1.00
O737   O     0.34530   0.26947   0.83422   0.00000  Uiso   1.00
O738   O     0.41496   0.30801   0.79110   0.00000  Uiso   1.00
H739   H     0.43192   0.30348   0.82570   0.00000  Uiso   1.00
S740   S     0.12128   0.07584   0.89788   0.00000  Uiso   1.00
O741   O     0.15035   0.04407   0.86187   0.00000  Uiso   1.00
O742   O     0.15012   0.10121   0.93949   0.00000  Uiso   1.00
O743   O     0.08707   0.03863   0.93427   0.00000  Uiso   1.00
H744   H     0.07189   0.06095   0.96078   0.00000  Uiso   1.00
S745   S     0.38014   0.07944   0.90237   0.00000  Uiso   1.00
O746   O     0.34761   0.04918   0.86998   0.00000  Uiso   1.00
O747   O     0.41124   0.04479   0.93261   0.00000  Uiso   1.00
O748   O     0.35258   0.11152   0.95114   0.00000  Uiso   1.00
H749   H     0.33160   0.08739   0.96783   0.00000  Uiso   1.00
S750   S     0.11872   0.26135   0.79824   0.00000  Uiso   1.00
O751   O     0.14537   0.26109   0.74578   0.00000  Uiso   1.00
O752   O     0.08602   0.30399   0.79646   0.00000  Uiso   1.00
O753   O     0.15309   0.27076   0.85162   0.00000  Uiso   1.00
H754   H     0.13341   0.27151   0.88445   0.00000  Uiso   1.00
O755   O     0.75000   0.09512   0.87895   0.00000  Uiso   1.00
O756   O     0.75000   0.23822   0.78772   0.00000  Uiso   1.00
O757   O     0.75000   0.23822   0.87895   0.00000  Uiso   1.00
O758   O     0.75000   0.09512   0.78772   0.00000  Uiso   1.00
H759   H     0.96154   0.03769   0.86295   0.00000  Uiso   1.00
H760   H     0.53998   0.25723   0.73620   0.00000  Uiso   1.00
H761   H     0.96011   0.25602   0.73412   0.00000  Uiso   1.00
H762   H     0.54041   0.03675   0.85967   0.00000  Uiso   1.00
C763   C     0.74997   0.07264   0.83343   0.00000  Uiso   1.00
C764   C     0.74952   0.26070   0.83319   0.00000  Uiso   1.00
O765   O     0.68393   0.16667   0.87896   0.00000  Uiso   1.00
O766   O     0.81608   0.16667   0.78770   0.00000  Uiso   1.00
O767   O     0.81608   0.16667   0.87896   0.00000  Uiso   1.00
O768   O     0.68393   0.16667   0.78770   0.00000  Uiso   1.00
C769   C     0.66313   0.16450   0.83358   0.00000  Uiso   1.00
C770   C     0.83694   0.16451   0.83346   0.00000  Uiso   1.00
Zn771  Zn    0.75000   0.16667   0.89426   0.00000  Uiso   1.00
Zn772  Zn    0.75000   0.16667   0.77241   0.00000  Uiso   1.00
N773   N     0.75000   0.16667   0.69121   0.00000  Uiso   1.00
N774   N     0.75000   0.16667   0.97545   0.00000  Uiso   1.00
C775   C     0.90764   0.20170   0.80457   0.00000  Uiso   1.00
C776   C     0.59279   0.12053   0.85450   0.00000  Uiso   1.00
C777   C     0.90804   0.12154   0.85575   0.00000  Uiso   1.00
C778   C     0.59201   0.20244   0.80704   0.00000  Uiso   1.00
C779   C     0.88514   0.16329   0.83311   0.00000  Uiso   1.00
C780   C     0.61504   0.16311   0.83364   0.00000  Uiso   1.00
C781   C     0.95380   0.11644   0.84409   0.00000  Uiso   1.00
C782   C     0.54657   0.19696   0.79603   0.00000  Uiso   1.00
C783   C     0.95342   0.19640   0.79468   0.00000  Uiso   1.00
C784   C     0.54711   0.11595   0.84316   0.00000  Uiso   1.00
C785   C     0.97676   0.15594   0.81836   0.00000  Uiso   1.00
C786   C     0.52368   0.15597   0.81848   0.00000  Uiso   1.00
C787   C     0.97767   0.07245   0.85496   0.00000  Uiso   1.00
C788   C     0.52309   0.23057   0.76227   0.00000  Uiso   1.00
C789   C     0.97693   0.22994   0.76116   0.00000  Uiso   1.00
C790   C     0.52376   0.07199   0.85363   0.00000  Uiso   1.00
C791   C     0.74979   0.02171   0.83342   0.00000  Uiso   1.00
C792   C     0.74960   0.31164   0.83308   0.00000  Uiso   1.00
S793   S     0.87978   0.25969   0.79072   0.00000  Uiso   1.00
O794   O     0.85749   0.25724   0.73546   0.00000  Uiso   1.00
O795   O     0.84530   0.26947   0.83422   0.00000  Uiso   1.00
O796   O     0.91496   0.30801   0.79110   0.00000  Uiso   1.00
H797   H     0.93192   0.30348   0.82570   0.00000  Uiso   1.00
S798   S     0.62128   0.07584   0.89788   0.00000  Uiso   1.00
O799   O     0.65035   0.04407   0.86187   0.00000  Uiso   1.00
O800   O     0.65012   0.10121   0.93949   0.00000  Uiso   1.00
O801   O     0.58707   0.03863   0.93427   0.00000  Uiso   1.00
H802   H     0.57189   0.06095   0.96078   0.00000  Uiso   1.00
S803   S     0.88014   0.07944   0.90237   0.00000  Uiso   1.00
O804   O     0.84761   0.04918   0.86998   0.00000  Uiso   1.00
O805   O     0.91124   0.04479   0.93261   0.00000  Uiso   1.00
O806   O     0.85258   0.11152   0.95114   0.00000  Uiso   1.00
H807   H     0.83160   0.08739   0.96783   0.00000  Uiso   1.00
S808   S     0.61872   0.26135   0.79824   0.00000  Uiso   1.00
O809   O     0.64537   0.26109   0.74578   0.00000  Uiso   1.00
O810   O     0.58602   0.30399   0.79646   0.00000  Uiso   1.00
O811   O     0.65309   0.27076   0.85162   0.00000  Uiso   1.00
H812   H     0.63341   0.27151   0.88445   0.00000  Uiso   1.00
O813   O     0.25000   0.42845   0.87895   0.00000  Uiso   1.00
O814   O     0.25000   0.57155   0.78772   0.00000  Uiso   1.00
O815   O     0.25000   0.57155   0.87895   0.00000  Uiso   1.00
O816   O     0.25000   0.42845   0.78772   0.00000  Uiso   1.00
H817   H     0.46154   0.37102   0.86295   0.00000  Uiso   1.00
H818   H     0.03998   0.59056   0.73620   0.00000  Uiso   1.00
H819   H     0.46011   0.58935   0.73412   0.00000  Uiso   1.00
H820   H     0.04041   0.37008   0.85967   0.00000  Uiso   1.00
C821   C     0.24997   0.40597   0.83343   0.00000  Uiso   1.00
C822   C     0.24952   0.59403   0.83319   0.00000  Uiso   1.00
O823   O     0.18393   0.50000   0.87896   0.00000  Uiso   1.00
O824   O     0.31608   0.50000   0.78770   0.00000  Uiso   1.00
O825   O     0.31608   0.50000   0.87896   0.00000  Uiso   1.00
O826   O     0.18393   0.50000   0.78770   0.00000  Uiso   1.00
C827   C     0.16313   0.49784   0.83358   0.00000  Uiso   1.00
C828   C     0.33694   0.49785   0.83346   0.00000  Uiso   1.00
Zn829  Zn    0.25000   0.50000   0.89426   0.00000  Uiso   1.00
Zn830  Zn    0.25000   0.50000   0.77241   0.00000  Uiso   1.00
N831   N     0.25000   0.50000   0.69121   0.00000  Uiso   1.00
N832   N     0.25000   0.50000   0.97545   0.00000  Uiso   1.00
C833   C     0.40764   0.53504   0.80457   0.00000  Uiso   1.00
C834   C     0.09279   0.45386   0.85450   0.00000  Uiso   1.00
C835   C     0.40804   0.45487   0.85575   0.00000  Uiso   1.00
C836   C     0.09201   0.53578   0.80704   0.00000  Uiso   1.00
C837   C     0.38514   0.49663   0.83311   0.00000  Uiso   1.00
C838   C     0.11504   0.49644   0.83364   0.00000  Uiso   1.00
C839   C     0.45380   0.44977   0.84409   0.00000  Uiso   1.00
C840   C     0.04657   0.53030   0.79603   0.00000  Uiso   1.00
C841   C     0.45342   0.52973   0.79468   0.00000  Uiso   1.00
C842   C     0.04711   0.44928   0.84316   0.00000  Uiso   1.00
C843   C     0.47676   0.48928   0.81836   0.00000  Uiso   1.00
C844   C     0.02368   0.48930   0.81848   0.00000  Uiso   1.00
C845   C     0.47767   0.40578   0.85496   0.00000  Uiso   1.00
C846   C     0.02309   0.56390   0.76227   0.00000  Uiso   1.00
C847   C     0.47693   0.56327   0.76116   0.00000  Uiso   1.00
C848   C     0.02376   0.40532   0.85363   0.00000  Uiso   1.00
C849   C     0.24979   0.35505   0.83342   0.00000  Uiso   1.00
C850   C     0.24960   0.64498   0.83308   0.00000  Uiso   1.00
S851   S     0.37978   0.59302   0.79072   0.00000  Uiso   1.00
O852   O     0.35749   0.59058   0.73546   0.00000  Uiso   1.00
O853   O     0.34530   0.60280   0.83422   0.00000  Uiso   1.00
O854   O     0.41496   0.64134   0.79110   0.00000  Uiso   1.00
H855   H     0.43192   0.63682   0.82570   0.00000  Uiso   1.00
S856   S     0.12128   0.40917   0.89788   0.00000  Uiso   1.00
O857   O     0.15035   0.37740   0.86187   0.00000  Uiso   1.00
O858   O     0.15012   0.43454   0.93949   0.00000  Uiso   1.00
O859   O     0.08707   0.37196   0.93427   0.00000  Uiso   1.00
H860   H     0.07189   0.39429   0.96078   0.00000  Uiso   1.00
S861   S     0.38014   0.41277   0.90237   0.00000  Uiso   1.00
O862   O     0.34761   0.38252   0.86998   0.00000  Uiso   1.00
O863   O     0.41124   0.37812   0.93261   0.00000  Uiso   1.00
O864   O     0.35258   0.44486   0.95114   0.00000  Uiso   1.00
H865   H     0.33160   0.42072   0.96783   0.00000  Uiso   1.00
S866   S     0.11872   0.59469   0.79824   0.00000  Uiso   1.00
O867   O     0.14537   0.59442   0.74578   0.00000  Uiso   1.00
O868   O     0.08602   0.63733   0.79646   0.00000  Uiso   1.00
O869   O     0.15309   0.60409   0.85162   0.00000  Uiso   1.00
H870   H     0.13341   0.60484   0.88445   0.00000  Uiso   1.00
O871   O     0.75000   0.42845   0.87895   0.00000  Uiso   1.00
O872   O     0.75000   0.57155   0.78772   0.00000  Uiso   1.00
O873   O     0.75000   0.57155   0.87895   0.00000  Uiso   1.00
O874   O     0.75000   0.42845   0.78772   0.00000  Uiso   1.00
H875   H     0.96154   0.37102   0.86295   0.00000  Uiso   1.00
H876   H     0.53998   0.59056   0.73620   0.00000  Uiso   1.00
H877   H     0.96011   0.58935   0.73412   0.00000  Uiso   1.00
H878   H     0.54041   0.37008   0.85967   0.00000  Uiso   1.00
C879   C     0.74997   0.40597   0.83343   0.00000  Uiso   1.00
C880   C     0.74952   0.59403   0.83319   0.00000  Uiso   1.00
O881   O     0.68393   0.50000   0.87896   0.00000  Uiso   1.00
O882   O     0.81608   0.50000   0.78770   0.00000  Uiso   1.00
O883   O     0.81608   0.50000   0.87896   0.00000  Uiso   1.00
O884   O     0.68393   0.50000   0.78770   0.00000  Uiso   1.00
C885   C     0.66313   0.49784   0.83358   0.00000  Uiso   1.00
C886   C     0.83694   0.49785   0.83346   0.00000  Uiso   1.00
Zn887  Zn    0.75000   0.50000   0.89426   0.00000  Uiso   1.00
Zn888  Zn    0.75000   0.50000   0.77241   0.00000  Uiso   1.00
N889   N     0.75000   0.50000   0.69121   0.00000  Uiso   1.00
N890   N     0.75000   0.50000   0.97545   0.00000  Uiso   1.00
C891   C     0.90764   0.53504   0.80457   0.00000  Uiso   1.00
C892   C     0.59279   0.45386   0.85450   0.00000  Uiso   1.00
C893   C     0.90804   0.45487   0.85575   0.00000  Uiso   1.00
C894   C     0.59201   0.53578   0.80704   0.00000  Uiso   1.00
C895   C     0.88514   0.49663   0.83311   0.00000  Uiso   1.00
C896   C     0.61504   0.49644   0.83364   0.00000  Uiso   1.00
C897   C     0.95380   0.44977   0.84409   0.00000  Uiso   1.00
C898   C     0.54657   0.53030   0.79603   0.00000  Uiso   1.00
C899   C     0.95342   0.52973   0.79468   0.00000  Uiso   1.00
C900   C     0.54711   0.44928   0.84316   0.00000  Uiso   1.00
C901   C     0.97676   0.48928   0.81836   0.00000  Uiso   1.00
C902   C     0.52368   0.48930   0.81848   0.00000  Uiso   1.00
C903   C     0.97767   0.40578   0.85496   0.00000  Uiso   1.00
C904   C     0.52309   0.56390   0.76227   0.00000  Uiso   1.00
C905   C     0.97693   0.56327   0.76116   0.00000  Uiso   1.00
C906   C     0.52376   0.40532   0.85363   0.00000  Uiso   1.00
C907   C     0.74979   0.35505   0.83342   0.00000  Uiso   1.00
C908   C     0.74960   0.64498   0.83308   0.00000  Uiso   1.00
S909   S     0.87978   0.59302   0.79072   0.00000  Uiso   1.00
O910   O     0.85749   0.59058   0.73546   0.00000  Uiso   1.00
O911   O     0.84530   0.60280   0.83422   0.00000  Uiso   1.00
O912   O     0.91496   0.64134   0.79110   0.00000  Uiso   1.00
H913   H     0.93192   0.63682   0.82570   0.00000  Uiso   1.00
S914   S     0.62128   0.40917   0.89788   0.00000  Uiso   1.00
O915   O     0.65035   0.37740   0.86187   0.00000  Uiso   1.00
O916   O     0.65012   0.43454   0.93949   0.00000  Uiso   1.00
O917   O     0.58707   0.37196   0.93427   0.00000  Uiso   1.00
H918   H     0.57189   0.39429   0.96078   0.00000  Uiso   1.00
S919   S     0.88014   0.41277   0.90237   0.00000  Uiso   1.00
O920   O     0.84761   0.38252   0.86998   0.00000  Uiso   1.00
O921   O     0.91124   0.37812   0.93261   0.00000  Uiso   1.00
O922   O     0.85258   0.44486   0.95114   0.00000  Uiso   1.00
H923   H     0.83160   0.42072   0.96783   0.00000  Uiso   1.00
S924   S     0.61872   0.59469   0.79824   0.00000  Uiso   1.00
O925   O     0.64537   0.59442   0.74578   0.00000  Uiso   1.00
O926   O     0.58602   0.63733   0.79646   0.00000  Uiso   1.00
O927   O     0.65309   0.60409   0.85162   0.00000  Uiso   1.00
H928   H     0.63341   0.60484   0.88445   0.00000  Uiso   1.00
O929   O     0.25000   0.76178   0.87895   0.00000  Uiso   1.00
O930   O     0.25000   0.90488   0.78772   0.00000  Uiso   1.00
O931   O     0.25000   0.90488   0.87895   0.00000  Uiso   1.00
O932   O     0.25000   0.76178   0.78772   0.00000  Uiso   1.00
H933   H     0.46154   0.70435   0.86295   0.00000  Uiso   1.00
H934   H     0.03998   0.92389   0.73620   0.00000  Uiso   1.00
H935   H     0.46011   0.92269   0.73412   0.00000  Uiso   1.00
H936   H     0.04041   0.70342   0.85967   0.00000  Uiso   1.00
C937   C     0.24997   0.73931   0.83343   0.00000  Uiso   1.00
C938   C     0.24952   0.92736   0.83319   0.00000  Uiso   1.00
O939   O     0.18393   0.83333   0.87896   0.00000  Uiso   1.00
O940   O     0.31608   0.83333   0.78770   0.00000  Uiso   1.00
O941   O     0.31608   0.83333   0.87896   0.00000  Uiso   1.00
O942   O     0.18393   0.83333   0.78770   0.00000  Uiso   1.00
C943   C     0.16313   0.83117   0.83358   0.00000  Uiso   1.00
C944   C     0.33694   0.83118   0.83346   0.00000  Uiso   1.00
Zn945  Zn    0.25000   0.83333   0.89426   0.00000  Uiso   1.00
Zn946  Zn    0.25000   0.83333   0.77241   0.00000  Uiso   1.00
N947   N     0.25000   0.83333   0.69121   0.00000  Uiso   1.00
N948   N     0.25000   0.83333   0.97545   0.00000  Uiso   1.00
C949   C     0.40764   0.86837   0.80457   0.00000  Uiso   1.00
C950   C     0.09279   0.78720   0.85450   0.00000  Uiso   1.00
C951   C     0.40804   0.78820   0.85575   0.00000  Uiso   1.00
C952   C     0.09201   0.86911   0.80704   0.00000  Uiso   1.00
C953   C     0.38514   0.82996   0.83311   0.00000  Uiso   1.00
C954   C     0.11504   0.82977   0.83364   0.00000  Uiso   1.00
C955   C     0.45380   0.78311   0.84409   0.00000  Uiso   1.00
C956   C     0.04657   0.86363   0.79603   0.00000  Uiso   1.00
C957   C     0.45342   0.86307   0.79468   0.00000  Uiso   1.00
C958   C     0.04711   0.78261   0.84316   0.00000  Uiso   1.00
C959   C     0.47676   0.82261   0.81836   0.00000  Uiso   1.00
C960   C     0.02368   0.82264   0.81848   0.00000  Uiso   1.00
C961   C     0.47767   0.73912   0.85496   0.00000  Uiso   1.00
C962   C     0.02309   0.89724   0.76227   0.00000  Uiso   1.00
C963   C     0.47693   0.89660   0.76116   0.00000  Uiso   1.00
C964   C     0.02376   0.73865   0.85363   0.00000  Uiso   1.00
C965   C     0.24979   0.68838   0.83342   0.00000  Uiso   1.00
C966   C     0.24960   0.97831   0.83308   0.00000  Uiso   1.00
S967   S     0.37978   0.92636   0.79072   0.00000  Uiso   1.00
O968   O     0.35749   0.92391   0.73546   0.00000  Uiso   1.00
O969   O     0.34530   0.93614   0.83422   0.00000  Uiso   1.00
O970   O     0.41496   0.97468   0.79110   0.00000  Uiso   1.00
H971   H     0.43192   0.97015   0.82570   0.00000  Uiso   1.00
S972   S     0.12128   0.74250   0.89788   0.00000  Uiso   1.00
O973   O     0.15035   0.71073   0.86187   0.00000  Uiso   1.00
O974   O     0.15012   0.76787   0.93949   0.00000  Uiso   1.00
O975   O     0.08707   0.70530   0.93427   0.00000  Uiso   1.00
H976   H     0.07189   0.72762   0.96078   0.00000  Uiso   1.00
S977   S     0.38014   0.74610   0.90237   0.00000  Uiso   1.00
O978   O     0.34761   0.71585   0.86998   0.00000  Uiso   1.00
O979   O     0.41124   0.71145   0.93261   0.00000  Uiso   1.00
O980   O     0.35258   0.77819   0.95114   0.00000  Uiso   1.00
H981   H     0.33160   0.75406   0.96783   0.00000  Uiso   1.00
S982   S     0.11872   0.92802   0.79824   0.00000  Uiso   1.00
O983   O     0.14537   0.92776   0.74578   0.00000  Uiso   1.00
O984   O     0.08602   0.97066   0.79646   0.00000  Uiso   1.00
O985   O     0.15309   0.93743   0.85162   0.00000  Uiso   1.00
H986   H     0.13341   0.93817   0.88445   0.00000  Uiso   1.00
O987   O     0.75000   0.76178   0.87895   0.00000  Uiso   1.00
O988   O     0.75000   0.90488   0.78772   0.00000  Uiso   1.00
O989   O     0.75000   0.90488   0.87895   0.00000  Uiso   1.00
O990   O     0.75000   0.76178   0.78772   0.00000  Uiso   1.00
H991   H     0.96154   0.70435   0.86295   0.00000  Uiso   1.00
H992   H     0.53998   0.92389   0.73620   0.00000  Uiso   1.00
H993   H     0.96011   0.92269   0.73412   0.00000  Uiso   1.00
H994   H     0.54041   0.70342   0.85967   0.00000  Uiso   1.00
C995   C     0.74997   0.73931   0.83343   0.00000  Uiso   1.00
C996   C     0.74952   0.92736   0.83319   0.00000  Uiso   1.00
O997   O     0.68393   0.83333   0.87896   0.00000  Uiso   1.00
O998   O     0.81608   0.83333   0.78770   0.00000  Uiso   1.00
O999   O     0.81608   0.83333   0.87896   0.00000  Uiso   1.00
O1000  O     0.68393   0.83333   0.78770   0.00000  Uiso   1.00
C1001  C     0.66313   0.83117   0.83358   0.00000  Uiso   1.00
C1002  C     0.83694   0.83118   0.83346   0.00000  Uiso   1.00
Zn1003 Zn    0.75000   0.83333   0.89426   0.00000  Uiso   1.00
Zn1004 Zn    0.75000   0.83333   0.77241   0.00000  Uiso   1.00
N1005  N     0.75000   0.83333   0.69121   0.00000  Uiso   1.00
N1006  N     0.75000   0.83333   0.97545   0.00000  Uiso   1.00
C1007  C     0.90764   0.86837   0.80457   0.00000  Uiso   1.00
C1008  C     0.59279   0.78720   0.85450   0.00000  Uiso   1.00
C1009  C     0.90804   0.78820   0.85575   0.00000  Uiso   1.00
C1010  C     0.59201   0.86911   0.80704   0.00000  Uiso   1.00
C1011  C     0.88514   0.82996   0.83311   0.00000  Uiso   1.00
C1012  C     0.61504   0.82977   0.83364   0.00000  Uiso   1.00
C1013  C     0.95380   0.78311   0.84409   0.00000  Uiso   1.00
C1014  C     0.54657   0.86363   0.79603   0.00000  Uiso   1.00
C1015  C     0.95342   0.86307   0.79468   0.00000  Uiso   1.00
C1016  C     0.54711   0.78261   0.84316   0.00000  Uiso   1.00
C1017  C     0.97676   0.82261   0.81836   0.00000  Uiso   1.00
C1018  C     0.52368   0.82264   0.81848   0.00000  Uiso   1.00
C1019  C     0.97767   0.73912   0.85496   0.00000  Uiso   1.00
C1020  C     0.52309   0.89724   0.76227   0.00000  Uiso   1.00
C1021  C     0.97693   0.89660   0.76116   0.00000  Uiso   1.00
C1022  C     0.52376   0.73865   0.85363   0.00000  Uiso   1.00
C1023  C     0.74979   0.68838   0.83342   0.00000  Uiso   1.00
C1024  C     0.74960   0.97831   0.83308   0.00000  Uiso   1.00
S1025  S     0.87978   0.92636   0.79072   0.00000  Uiso   1.00
O1026  O     0.85749   0.92391   0.73546   0.00000  Uiso   1.00
O1027  O     0.84530   0.93614   0.83422   0.00000  Uiso   1.00
O1028  O     0.91496   0.97468   0.79110   0.00000  Uiso   1.00
H1029  H     0.93192   0.97015   0.82570   0.00000  Uiso   1.00
S1030  S     0.62128   0.74250   0.89788   0.00000  Uiso   1.00
O1031  O     0.65035   0.71073   0.86187   0.00000  Uiso   1.00
O1032  O     0.65012   0.76787   0.93949   0.00000  Uiso   1.00
O1033  O     0.58707   0.70530   0.93427   0.00000  Uiso   1.00
H1034  H     0.57189   0.72762   0.96078   0.00000  Uiso   1.00
S1035  S     0.88014   0.74610   0.90237   0.00000  Uiso   1.00
O1036  O     0.84761   0.71585   0.86998   0.00000  Uiso   1.00
O1037  O     0.91124   0.71145   0.93261   0.00000  Uiso   1.00
O1038  O     0.85258   0.77819   0.95114   0.00000  Uiso   1.00
H1039  H     0.83160   0.75406   0.96783   0.00000  Uiso   1.00
S1040  S     0.61872   0.92802   0.79824   0.00000  Uiso   1.00
O1041  O     0.64537   0.92776   0.74578   0.00000  Uiso   1.00
O1042  O     0.58602   0.97066   0.79646   0.00000  Uiso   1.00
O1043  O     0.65309   0.93743   0.85162   0.00000  Uiso   1.00
H1044  H     0.63341   0.93817   0.88445   0.00000  Uiso   1.00
loop_
_geom_bond_atom_site_label_1
_geom_bond_atom_site_label_2
_geom_bond_distance
_geom_bond_site_symmetry_2
_ccdc_geom_bond_type
O1     Zn17    1.961   .     S
O1     C9      1.263   .     A
O2     Zn18    1.961   .     S
O2     C10     1.262   .     A
O3     C10     1.261   .     A
O3     Zn17    1.955   .     S
O4     Zn18    1.955   .     S
O4     C9      1.260   .     A
H5     C33     1.071   .     S
H6     C34     1.080   .     S
H7     C35     1.080   .     S
H8     C36     1.076   .     S
C9     C37     1.368   .     S
C10    C38     1.369   .     S
O11    C15     1.269   .     A
O11    Zn17    2.017   .     S
O12    C16     1.277   .     A
O12    Zn18    2.017   .     S
O13    Zn17    2.015   .     S
O13    C16     1.270   .     A
O14    Zn18    2.015   .     S
O14    C15     1.277   .     A
C15    C26     1.443   .     S
C16    C25     1.446   .     S
Zn17   N20     1.971   .     S
Zn18   N19     1.971   .     S
N19    N716    1.192   1_554 S
N20    N367    1.192   .     S
C21    S39     1.793   .     S
C21    C25     1.414   .     A
C21    C29     1.399   .     A
C22    S44     1.803   .     S
C22    C26     1.418   .     A
C22    C30     1.404   .     A
C23    C27     1.406   .     A
C23    C25     1.419   .     A
C23    S49     1.804   .     S
C24    S54     1.790   .     S
C24    C28     1.398   .     A
C24    C26     1.412   .     A
C27    C33     1.401   .     A
C27    C31     1.411   .     A
C28    C34     1.402   .     A
C28    C32     1.408   .     A
C29    C31     1.408   .     A
C29    C35     1.403   .     A
C30    C36     1.399   .     A
C30    C32     1.411   .     A
C31    C90     1.407   .     S
C32    C89     1.407   1_455 S
C33    C94     1.382   .     S
C34    C93     1.385   1_455 S
C35    C92     1.385   .     S
C36    C91     1.382   1_455 S
C37    C270    1.166   1_545 S
C38    C153    1.166   .     S
S39    O42     1.679   .     S
S39    O40     1.502   .     D
S39    O41     1.500   .     D
O42    H43     0.989   .     S
S44    O47     1.683   .     S
S44    O45     1.500   .     D
S44    O46     1.502   .     D
O47    H48     0.991   .     S
S49    O52     1.682   .     S
S49    O50     1.501   .     D
S49    O51     1.502   .     D
O52    H53     0.991   .     S
S54    O56     1.503   .     D
S54    O55     1.502   .     D
S54    O57     1.679   .     S
O57    H58     0.991   .     S
O59    Zn75    1.961   .     S
O59    C67     1.263   .     A
O60    Zn76    1.961   .     S
O60    C68     1.262   .     A
O61    C68     1.261   .     A
O61    Zn75    1.955   .     S
O62    Zn76    1.955   .     S
O62    C67     1.260   .     A
H63    C91     1.071   .     S
H64    C92     1.080   .     S
H65    C93     1.080   .     S
H66    C94     1.076   .     S
C67    C95     1.368   .     S
C68    C96     1.369   .     S
O69    C73     1.269   .     A
O69    Zn75    2.017   .     S
O70    C74     1.277   .     A
O70    Zn76    2.017   .     S
O71    Zn75    2.015   .     S
O71    C74     1.270   .     A
O72    Zn76    2.015   .     S
O72    C73     1.277   .     A
C73    C84     1.443   .     S
C74    C83     1.446   .     S
Zn75   N78     1.971   .     S
Zn76   N77     1.971   .     S
N77    N774    1.192   1_554 S
N78    N425    1.192   .     S
C79    S97     1.793   .     S
C79    C83     1.414   .     A
C79    C87     1.399   .     A
C80    S102    1.803   .     S
C80    C84     1.418   .     A
C80    C88     1.404   .     A
C81    C85     1.406   .     A
C81    C83     1.419   .     A
C81    S107    1.804   .     S
C82    S112    1.790   .     S
C82    C86     1.398   .     A
C82    C84     1.412   .     A
C85    C91     1.401   .     A
C85    C89     1.411   .     A
C86    C92     1.402   .     A
C86    C90     1.408   .     A
C87    C89     1.408   .     A
C87    C93     1.403   .     A
C88    C94     1.399   .     A
C88    C90     1.411   .     A
C89    C32     1.407   1_655 S
C91    C36     1.382   1_655 S
C93    C34     1.385   1_655 S
C95    C328    1.166   1_545 S
C96    C211    1.166   .     S
S97    O100    1.679   .     S
S97    O98     1.502   .     D
S97    O99     1.500   .     D
O100   H101    0.989   .     S
S102   O105    1.683   .     S
S102   O103    1.500   .     D
S102   O104    1.502   .     D
O105   H106    0.991   .     S
S107   O110    1.682   .     S
S107   O108    1.501   .     D
S107   O109    1.502   .     D
O110   H111    0.991   .     S
S112   O114    1.503   .     D
S112   O113    1.502   .     D
S112   O115    1.679   .     S
O115   H116    0.991   .     S
O117   Zn133   1.961   .     S
O117   C125    1.263   .     A
O118   Zn134   1.961   .     S
O118   C126    1.262   .     A
O119   C126    1.261   .     A
O119   Zn133   1.955   .     S
O120   Zn134   1.955   .     S
O120   C125    1.260   .     A
H121   C149    1.071   .     S
H122   C150    1.080   .     S
H123   C151    1.080   .     S
H124   C152    1.076   .     S
C125   C153    1.368   .     S
C126   C154    1.369   .     S
O127   C131    1.269   .     A
O127   Zn133   2.017   .     S
O128   C132    1.277   .     A
O128   Zn134   2.017   .     S
O129   Zn133   2.015   .     S
O129   C132    1.270   .     A
O130   Zn134   2.015   .     S
O130   C131    1.277   .     A
C131   C142    1.443   .     S
C132   C141    1.446   .     S
Zn133  N136    1.971   .     S
Zn134  N135    1.971   .     S
N135   N832    1.192   1_554 S
N136   N483    1.192   .     S
C137   S155    1.793   .     S
C137   C141    1.414   .     A
C137   C145    1.399   .     A
C138   S160    1.803   .     S
C138   C142    1.418   .     A
C138   C146    1.404   .     A
C139   C143    1.406   .     A
C139   C141    1.419   .     A
C139   S165    1.804   .     S
C140   S170    1.790   .     S
C140   C144    1.398   .     A
C140   C142    1.412   .     A
C143   C149    1.401   .     A
C143   C147    1.411   .     A
C144   C150    1.402   .     A
C144   C148    1.408   .     A
C145   C147    1.408   .     A
C145   C151    1.403   .     A
C146   C152    1.399   .     A
C146   C148    1.411   .     A
C147   C206    1.407   .     S
C148   C205    1.407   1_455 S
C149   C210    1.382   .     S
C150   C209    1.385   1_455 S
C151   C208    1.385   .     S
C152   C207    1.382   1_455 S
C154   C269    1.166   .     S
S155   O158    1.679   .     S
S155   O156    1.502   .     D
S155   O157    1.500   .     D
O158   H159    0.989   .     S
S160   O163    1.683   .     S
S160   O161    1.500   .     D
S160   O162    1.502   .     D
O163   H164    0.991   .     S
S165   O168    1.682   .     S
S165   O166    1.501   .     D
S165   O167    1.502   .     D
O168   H169    0.991   .     S
S170   O172    1.503   .     D
S170   O171    1.502   .     D
S170   O173    1.679   .     S
O173   H174    0.991   .     S
O175   Zn191   1.961   .     S
O175   C183    1.263   .     A
O176   Zn192   1.961   .     S
O176   C184    1.262   .     A
O177   C184    1.261   .     A
O177   Zn191   1.955   .     S
O178   Zn192   1.955   .     S
O178   C183    1.260   .     A
H179   C207    1.071   .     S
H180   C208    1.080   .     S
H181   C209    1.080   .     S
H182   C210    1.076   .     S
C183   C211    1.368   .     S
C184   C212    1.369   .     S
O185   C189    1.269   .     A
O185   Zn191   2.017   .     S
O186   C190    1.277   .     A
O186   Zn192   2.017   .     S
O187   Zn191   2.015   .     S
O187   C190    1.270   .     A
O188   Zn192   2.015   .     S
O188   C189    1.277   .     A
C189   C200    1.443   .     S
C190   C199    1.446   .     S
Zn191  N194    1.971   .     S
Zn192  N193    1.971   .     S
N193   N890    1.192   1_554 S
N194   N541    1.192   .     S
C195   S213    1.793   .     S
C195   C199    1.414   .     A
C195   C203    1.399   .     A
C196   S218    1.803   .     S
C196   C200    1.418   .     A
C196   C204    1.404   .     A
C197   C201    1.406   .     A
C197   C199    1.419   .     A
C197   S223    1.804   .     S
C198   S228    1.790   .     S
C198   C202    1.398   .     A
C198   C200    1.412   .     A
C201   C207    1.401   .     A
C201   C205    1.411   .     A
C202   C208    1.402   .     A
C202   C206    1.408   .     A
C203   C205    1.408   .     A
C203   C209    1.403   .     A
C204   C210    1.399   .     A
C204   C206    1.411   .     A
C205   C148    1.407   1_655 S
C207   C152    1.382   1_655 S
C209   C150    1.385   1_655 S
C212   C327    1.166   .     S
S213   O216    1.679   .     S
S213   O214    1.502   .     D
S213   O215    1.500   .     D
O216   H217    0.989   .     S
S218   O221    1.683   .     S
S218   O219    1.500   .     D
S218   O220    1.502   .     D
O221   H222    0.991   .     S
S223   O226    1.682   .     S
S223   O224    1.501   .     D
S223   O225    1.502   .     D
O226   H227    0.991   .     S
S228   O230    1.503   .     D
S228   O229    1.502   .     D
S228   O231    1.679   .     S
O231   H232    0.991   .     S
O233   Zn249   1.961   .     S
O233   C241    1.263   .     A
O234   Zn250   1.961   .     S
O234   C242    1.262   .     A
O235   C242    1.261   .     A
O235   Zn249   1.955   .     S
O236   Zn250   1.955   .     S
O236   C241    1.260   .     A
H237   C265    1.071   .     S
H238   C266    1.080   .     S
H239   C267    1.080   .     S
H240   C268    1.076   .     S
C241   C269    1.368   .     S
C242   C270    1.369   .     S
O243   C247    1.269   .     A
O243   Zn249   2.017   .     S
O244   C248    1.277   .     A
O244   Zn250   2.017   .     S
O245   Zn249   2.015   .     S
O245   C248    1.270   .     A
O246   Zn250   2.015   .     S
O246   C247    1.277   .     A
C247   C258    1.443   .     S
C248   C257    1.446   .     S
Zn249  N252    1.971   .     S
Zn250  N251    1.971   .     S
N251   N948    1.192   1_554 S
N252   N599    1.192   .     S
C253   S271    1.793   .     S
C253   C257    1.414   .     A
C253   C261    1.399   .     A
C254   S276    1.803   .     S
C254   C258    1.418   .     A
C254   C262    1.404   .     A
C255   C259    1.406   .     A
C255   C257    1.419   .     A
C255   S281    1.804   .     S
C256   S286    1.790   .     S
C256   C260    1.398   .     A
C256   C258    1.412   .     A
C259   C265    1.401   .     A
C259   C263    1.411   .     A
C260   C266    1.402   .     A
C260   C264    1.408   .     A
C261   C263    1.408   .     A
C261   C267    1.403   .     A
C262   C268    1.399   .     A
C262   C264    1.411   .     A
C263   C322    1.407   .     S
C264   C321    1.407   1_455 S
C265   C326    1.382   .     S
C266   C325    1.385   1_455 S
C267   C324    1.385   .     S
C268   C323    1.382   1_455 S
C270   C37     1.166   1_565 S
S271   O274    1.679   .     S
S271   O272    1.502   .     D
S271   O273    1.500   .     D
O274   H275    0.989   .     S
S276   O279    1.683   .     S
S276   O277    1.500   .     D
S276   O278    1.502   .     D
O279   H280    0.991   .     S
S281   O284    1.682   .     S
S281   O282    1.501   .     D
S281   O283    1.502   .     D
O284   H285    0.991   .     S
S286   O288    1.503   .     D
S286   O287    1.502   .     D
S286   O289    1.679   .     S
O289   H290    0.991   .     S
O291   Zn307   1.961   .     S
O291   C299    1.263   .     A
O292   Zn308   1.961   .     S
O292   C300    1.262   .     A
O293   C300    1.261   .     A
O293   Zn307   1.955   .     S
O294   Zn308   1.955   .     S
O294   C299    1.260   .     A
H295   C323    1.071   .     S
H296   C324    1.080   .     S
H297   C325    1.080   .     S
H298   C326    1.076   .     S
C299   C327    1.368   .     S
C300   C328    1.369   .     S
O301   C305    1.269   .     A
O301   Zn307   2.017   .     S
O302   C306    1.277   .     A
O302   Zn308   2.017   .     S
O303   Zn307   2.015   .     S
O303   C306    1.270   .     A
O304   Zn308   2.015   .     S
O304   C305    1.277   .     A
C305   C316    1.443   .     S
C306   C315    1.446   .     S
Zn307  N310    1.971   .     S
Zn308  N309    1.971   .     S
N309   N1006   1.192   1_554 S
N310   N657    1.192   .     S
C311   S329    1.793   .     S
C311   C315    1.414   .     A
C311   C319    1.399   .     A
C312   S334    1.803   .     S
C312   C316    1.418   .     A
C312   C320    1.404   .     A
C313   C317    1.406   .     A
C313   C315    1.419   .     A
C313   S339    1.804   .     S
C314   S344    1.790   .     S
C314   C318    1.398   .     A
C314   C316    1.412   .     A
C317   C323    1.401   .     A
C317   C321    1.411   .     A
C318   C324    1.402   .     A
C318   C322    1.408   .     A
C319   C321    1.408   .     A
C319   C325    1.403   .     A
C320   C326    1.399   .     A
C320   C322    1.411   .     A
C321   C264    1.407   1_655 S
C323   C268    1.382   1_655 S
C325   C266    1.385   1_655 S
C328   C95     1.166   1_565 S
S329   O332    1.679   .     S
S329   O330    1.502   .     D
S329   O331    1.500   .     D
O332   H333    0.989   .     S
S334   O337    1.683   .     S
S334   O335    1.500   .     D
S334   O336    1.502   .     D
O337   H338    0.991   .     S
S339   O342    1.682   .     S
S339   O340    1.501   .     D
S339   O341    1.502   .     D
O342   H343    0.991   .     S
S344   O346    1.503   .     D
S344   O345    1.502   .     D
S344   O347    1.679   .     S
O347   H348    0.991   .     S
O349   Zn365   1.961   .     S
O349   C357    1.263   .     A
O350   Zn366   1.961   .     S
O350   C358    1.262   .     A
O351   C358    1.261   .     A
O351   Zn365   1.955   .     S
O352   Zn366   1.955   .     S
O352   C357    1.260   .     A
H353   C381    1.071   .     S
H354   C382    1.080   .     S
H355   C383    1.080   .     S
H356   C384    1.076   .     S
C357   C385    1.368   .     S
C358   C386    1.369   .     S
O359   C363    1.269   .     A
O359   Zn365   2.017   .     S
O360   C364    1.277   .     A
O360   Zn366   2.017   .     S
O361   Zn365   2.015   .     S
O361   C364    1.270   .     A
O362   Zn366   2.015   .     S
O362   C363    1.277   .     A
C363   C374    1.443   .     S
C364   C373    1.446   .     S
Zn365  N368    1.971   .     S
Zn366  N367    1.971   .     S
N368   N715    1.192   .     S
C369   S387    1.793   .     S
C369   C373    1.414   .     A
C369   C377    1.399   .     A
C370   S392    1.803   .     S
C370   C374    1.418   .     A
C370   C378    1.404   .     A
C371   C375    1.406   .     A
C371   C373    1.419   .     A
C371   S397    1.804   .     S
C372   S402    1.790   .     S
C372   C376    1.398   .     A
C372   C374    1.412   .     A
C375   C381    1.401   .     A
C375   C379    1.411   .     A
C376   C382    1.402   .     A
C376   C380    1.408   .     A
C377   C379    1.408   .     A
C377   C383    1.403   .     A
C378   C384    1.399   .     A
C378   C380    1.411   .     A
C379   C438    1.407   .     S
C380   C437    1.407   1_455 S
C381   C442    1.382   .     S
C382   C441    1.385   1_455 S
C383   C440    1.385   .     S
C384   C439    1.382   1_455 S
C385   C618    1.166   1_545 S
C386   C501    1.166   .     S
S387   O390    1.679   .     S
S387   O388    1.502   .     D
S387   O389    1.500   .     D
O390   H391    0.989   .     S
S392   O395    1.683   .     S
S392   O393    1.500   .     D
S392   O394    1.502   .     D
O395   H396    0.991   .     S
S397   O400    1.682   .     S
S397   O398    1.501   .     D
S397   O399    1.502   .     D
O400   H401    0.991   .     S
S402   O404    1.503   .     D
S402   O403    1.502   .     D
S402   O405    1.679   .     S
O405   H406    0.991   .     S
O407   Zn423   1.961   .     S
O407   C415    1.263   .     A
O408   Zn424   1.961   .     S
O408   C416    1.262   .     A
O409   C416    1.261   .     A
O409   Zn423   1.955   .     S
O410   Zn424   1.955   .     S
O410   C415    1.260   .     A
H411   C439    1.071   .     S
H412   C440    1.080   .     S
H413   C441    1.080   .     S
H414   C442    1.076   .     S
C415   C443    1.368   .     S
C416   C444    1.369   .     S
O417   C421    1.269   .     A
O417   Zn423   2.017   .     S
O418   C422    1.277   .     A
O418   Zn424   2.017   .     S
O419   Zn423   2.015   .     S
O419   C422    1.270   .     A
O420   Zn424   2.015   .     S
O420   C421    1.277   .     A
C421   C432    1.443   .     S
C422   C431    1.446   .     S
Zn423  N426    1.971   .     S
Zn424  N425    1.971   .     S
N426   N773    1.192   .     S
C427   S445    1.793   .     S
C427   C431    1.414   .     A
C427   C435    1.399   .     A
C428   S450    1.803   .     S
C428   C432    1.418   .     A
C428   C436    1.404   .     A
C429   C433    1.406   .     A
C429   C431    1.419   .     A
C429   S455    1.804   .     S
C430   S460    1.790   .     S
C430   C434    1.398   .     A
C430   C432    1.412   .     A
C433   C439    1.401   .     A
C433   C437    1.411   .     A
C434   C440    1.402   .     A
C434   C438    1.408   .     A
C435   C437    1.408   .     A
C435   C441    1.403   .     A
C436   C442    1.399   .     A
C436   C438    1.411   .     A
C437   C380    1.407   1_655 S
C439   C384    1.382   1_655 S
C441   C382    1.385   1_655 S
C443   C676    1.166   1_545 S
C444   C559    1.166   .     S
S445   O448    1.679   .     S
S445   O446    1.502   .     D
S445   O447    1.500   .     D
O448   H449    0.989   .     S
S450   O453    1.683   .     S
S450   O451    1.500   .     D
S450   O452    1.502   .     D
O453   H454    0.991   .     S
S455   O458    1.682   .     S
S455   O456    1.501   .     D
S455   O457    1.502   .     D
O458   H459    0.991   .     S
S460   O462    1.503   .     D
S460   O461    1.502   .     D
S460   O463    1.679   .     S
O463   H464    0.991   .     S
O465   Zn481   1.961   .     S
O465   C473    1.263   .     A
O466   Zn482   1.961   .     S
O466   C474    1.262   .     A
O467   C474    1.261   .     A
O467   Zn481   1.955   .     S
O468   Zn482   1.955   .     S
O468   C473    1.260   .     A
H469   C497    1.071   .     S
H470   C498    1.080   .     S
H471   C499    1.080   .     S
H472   C500    1.076   .     S
C473   C501    1.368   .     S
C474   C502    1.369   .     S
O475   C479    1.269   .     A
O475   Zn481   2.017   .     S
O476   C480    1.277   .     A
O476   Zn482   2.017   .     S
O477   Zn481   2.015   .     S
O477   C480    1.270   .     A
O478   Zn482   2.015   .     S
O478   C479    1.277   .     A
C479   C490    1.443   .     S
C480   C489    1.446   .     S
Zn481  N484    1.971   .     S
Zn482  N483    1.971   .     S
N484   N831    1.192   .     S
C485   S503    1.793   .     S
C485   C489    1.414   .     A
C485   C493    1.399   .     A
C486   S508    1.803   .     S
C486   C490    1.418   .     A
C486   C494    1.404   .     A
C487   C491    1.406   .     A
C487   C489    1.419   .     A
C487   S513    1.804   .     S
C488   S518    1.790   .     S
C488   C492    1.398   .     A
C488   C490    1.412   .     A
C491   C497    1.401   .     A
C491   C495    1.411   .     A
C492   C498    1.402   .     A
C492   C496    1.408   .     A
C493   C495    1.408   .     A
C493   C499    1.403   .     A
C494   C500    1.399   .     A
C494   C496    1.411   .     A
C495   C554    1.407   .     S
C496   C553    1.407   1_455 S
C497   C558    1.382   .     S
C498   C557    1.385   1_455 S
C499   C556    1.385   .     S
C500   C555    1.382   1_455 S
C502   C617    1.166   .     S
S503   O506    1.679   .     S
S503   O504    1.502   .     D
S503   O505    1.500   .     D
O506   H507    0.989   .     S
S508   O511    1.683   .     S
S508   O509    1.500   .     D
S508   O510    1.502   .     D
O511   H512    0.991   .     S
S513   O516    1.682   .     S
S513   O514    1.501   .     D
S513   O515    1.502   .     D
O516   H517    0.991   .     S
S518   O520    1.503   .     D
S518   O519    1.502   .     D
S518   O521    1.679   .     S
O521   H522    0.991   .     S
O523   Zn539   1.961   .     S
O523   C531    1.263   .     A
O524   Zn540   1.961   .     S
O524   C532    1.262   .     A
O525   C532    1.261   .     A
O525   Zn539   1.955   .     S
O526   Zn540   1.955   .     S
O526   C531    1.260   .     A
H527   C555    1.071   .     S
H528   C556    1.080   .     S
H529   C557    1.080   .     S
H530   C558    1.076   .     S
C531   C559    1.368   .     S
C532   C560    1.369   .     S
O533   C537    1.269   .     A
O533   Zn539   2.017   .     S
O534   C538    1.277   .     A
O534   Zn540   2.017   .     S
O535   Zn539   2.015   .     S
O535   C538    1.270   .     A
O536   Zn540   2.015   .     S
O536   C537    1.277   .     A
C537   C548    1.443   .     S
C538   C547    1.446   .     S
Zn539  N542    1.971   .     S
Zn540  N541    1.971   .     S
N542   N889    1.192   .     S
C543   S561    1.793   .     S
C543   C547    1.414   .     A
C543   C551    1.399   .     A
C544   S566    1.803   .     S
C544   C548    1.418   .     A
C544   C552    1.404   .     A
C545   C549    1.406   .     A
C545   C547    1.419   .     A
C545   S571    1.804   .     S
C546   S576    1.790   .     S
C546   C550    1.398   .     A
C546   C548    1.412   .     A
C549   C555    1.401   .     A
C549   C553    1.411   .     A
C550   C556    1.402   .     A
C550   C554    1.408   .     A
C551   C553    1.408   .     A
C551   C557    1.403   .     A
C552   C558    1.399   .     A
C552   C554    1.411   .     A
C553   C496    1.407   1_655 S
C555   C500    1.382   1_655 S
C557   C498    1.385   1_655 S
C560   C675    1.166   .     S
S561   O564    1.679   .     S
S561   O562    1.502   .     D
S561   O563    1.500   .     D
O564   H565    0.989   .     S
S566   O569    1.683   .     S
S566   O567    1.500   .     D
S566   O568    1.502   .     D
O569   H570    0.991   .     S
S571   O574    1.682   .     S
S571   O572    1.501   .     D
S571   O573    1.502   .     D
O574   H575    0.991   .     S
S576   O578    1.503   .     D
S576   O577    1.502   .     D
S576   O579    1.679   .     S
O579   H580    0.991   .     S
O581   Zn597   1.961   .     S
O581   C589    1.263   .     A
O582   Zn598   1.961   .     S
O582   C590    1.262   .     A
O583   C590    1.261   .     A
O583   Zn597   1.955   .     S
O584   Zn598   1.955   .     S
O584   C589    1.260   .     A
H585   C613    1.071   .     S
H586   C614    1.080   .     S
H587   C615    1.080   .     S
H588   C616    1.076   .     S
C589   C617    1.368   .     S
C590   C618    1.369   .     S
O591   C595    1.269   .     A
O591   Zn597   2.017   .     S
O592   C596    1.277   .     A
O592   Zn598   2.017   .     S
O593   Zn597   2.015   .     S
O593   C596    1.270   .     A
O594   Zn598   2.015   .     S
O594   C595    1.277   .     A
C595   C606    1.443   .     S
C596   C605    1.446   .     S
Zn597  N600    1.971   .     S
Zn598  N599    1.971   .     S
N600   N947    1.192   .     S
C601   S619    1.793   .     S
C601   C605    1.414   .     A
C601   C609    1.399   .     A
C602   S624    1.803   .     S
C602   C606    1.418   .     A
C602   C610    1.404   .     A
C603   C607    1.406   .     A
C603   C605    1.419   .     A
C603   S629    1.804   .     S
C604   S634    1.790   .     S
C604   C608    1.398   .     A
C604   C606    1.412   .     A
C607   C613    1.401   .     A
C607   C611    1.411   .     A
C608   C614    1.402   .     A
C608   C612    1.408   .     A
C609   C611    1.408   .     A
C609   C615    1.403   .     A
C610   C616    1.399   .     A
C610   C612    1.411   .     A
C611   C670    1.407   .     S
C612   C669    1.407   1_455 S
C613   C674    1.382   .     S
C614   C673    1.385   1_455 S
C615   C672    1.385   .     S
C616   C671    1.382   1_455 S
C618   C385    1.166   1_565 S
S619   O622    1.679   .     S
S619   O620    1.502   .     D
S619   O621    1.500   .     D
O622   H623    0.989   .     S
S624   O627    1.683   .     S
S624   O625    1.500   .     D
S624   O626    1.502   .     D
O627   H628    0.991   .     S
S629   O632    1.682   .     S
S629   O630    1.501   .     D
S629   O631    1.502   .     D
O632   H633    0.991   .     S
S634   O636    1.503   .     D
S634   O635    1.502   .     D
S634   O637    1.679   .     S
O637   H638    0.991   .     S
O639   Zn655   1.961   .     S
O639   C647    1.263   .     A
O640   Zn656   1.961   .     S
O640   C648    1.262   .     A
O641   C648    1.261   .     A
O641   Zn655   1.955   .     S
O642   Zn656   1.955   .     S
O642   C647    1.260   .     A
H643   C671    1.071   .     S
H644   C672    1.080   .     S
H645   C673    1.080   .     S
H646   C674    1.076   .     S
C647   C675    1.368   .     S
C648   C676    1.369   .     S
O649   C653    1.269   .     A
O649   Zn655   2.017   .     S
O650   C654    1.277   .     A
O650   Zn656   2.017   .     S
O651   Zn655   2.015   .     S
O651   C654    1.270   .     A
O652   Zn656   2.015   .     S
O652   C653    1.277   .     A
C653   C664    1.443   .     S
C654   C663    1.446   .     S
Zn655  N658    1.971   .     S
Zn656  N657    1.971   .     S
N658   N1005   1.192   .     S
C659   S677    1.793   .     S
C659   C663    1.414   .     A
C659   C667    1.399   .     A
C660   S682    1.803   .     S
C660   C664    1.418   .     A
C660   C668    1.404   .     A
C661   C665    1.406   .     A
C661   C663    1.419   .     A
C661   S687    1.804   .     S
C662   S692    1.790   .     S
C662   C666    1.398   .     A
C662   C664    1.412   .     A
C665   C671    1.401   .     A
C665   C669    1.411   .     A
C666   C672    1.402   .     A
C666   C670    1.408   .     A
C667   C669    1.408   .     A
C667   C673    1.403   .     A
C668   C674    1.399   .     A
C668   C670    1.411   .     A
C669   C612    1.407   1_655 S
C671   C616    1.382   1_655 S
C673   C614    1.385   1_655 S
C676   C443    1.166   1_565 S
S677   O680    1.679   .     S
S677   O678    1.502   .     D
S677   O679    1.500   .     D
O680   H681    0.989   .     S
S682   O685    1.683   .     S
S682   O683    1.500   .     D
S682   O684    1.502   .     D
O685   H686    0.991   .     S
S687   O690    1.682   .     S
S687   O688    1.501   .     D
S687   O689    1.502   .     D
O690   H691    0.991   .     S
S692   O694    1.503   .     D
S692   O693    1.502   .     D
S692   O695    1.679   .     S
O695   H696    0.991   .     S
O697   Zn713   1.961   .     S
O697   C705    1.263   .     A
O698   Zn714   1.961   .     S
O698   C706    1.262   .     A
O699   C706    1.261   .     A
O699   Zn713   1.955   .     S
O700   Zn714   1.955   .     S
O700   C705    1.260   .     A
H701   C729    1.071   .     S
H702   C730    1.080   .     S
H703   C731    1.080   .     S
H704   C732    1.076   .     S
C705   C733    1.368   .     S
C706   C734    1.369   .     S
O707   C711    1.269   .     A
O707   Zn713   2.017   .     S
O708   C712    1.277   .     A
O708   Zn714   2.017   .     S
O709   Zn713   2.015   .     S
O709   C712    1.270   .     A
O710   Zn714   2.015   .     S
O710   C711    1.277   .     A
C711   C722    1.443   .     S
C712   C721    1.446   .     S
Zn713  N716    1.971   .     S
Zn714  N715    1.971   .     S
N716   N19     1.192   1_556 S
C717   S735    1.793   .     S
C717   C721    1.414   .     A
C717   C725    1.399   .     A
C718   S740    1.803   .     S
C718   C722    1.418   .     A
C718   C726    1.404   .     A
C719   C723    1.406   .     A
C719   C721    1.419   .     A
C719   S745    1.804   .     S
C720   S750    1.790   .     S
C720   C724    1.398   .     A
C720   C722    1.412   .     A
C723   C729    1.401   .     A
C723   C727    1.411   .     A
C724   C730    1.402   .     A
C724   C728    1.408   .     A
C725   C727    1.408   .     A
C725   C731    1.403   .     A
C726   C732    1.399   .     A
C726   C728    1.411   .     A
C727   C786    1.407   .     S
C728   C785    1.407   1_455 S
C729   C790    1.382   .     S
C730   C789    1.385   1_455 S
C731   C788    1.385   .     S
C732   C787    1.382   1_455 S
C733   C966    1.166   1_545 S
C734   C849    1.166   .     S
S735   O738    1.679   .     S
S735   O736    1.502   .     D
S735   O737    1.500   .     D
O738   H739    0.989   .     S
S740   O743    1.683   .     S
S740   O741    1.500   .     D
S740   O742    1.502   .     D
O743   H744    0.991   .     S
S745   O748    1.682   .     S
S745   O746    1.501   .     D
S745   O747    1.502   .     D
O748   H749    0.991   .     S
S750   O752    1.503   .     D
S750   O751    1.502   .     D
S750   O753    1.679   .     S
O753   H754    0.991   .     S
O755   Zn771   1.961   .     S
O755   C763    1.263   .     A
O756   Zn772   1.961   .     S
O756   C764    1.262   .     A
O757   C764    1.261   .     A
O757   Zn771   1.955   .     S
O758   Zn772   1.955   .     S
O758   C763    1.260   .     A
H759   C787    1.071   .     S
H760   C788    1.080   .     S
H761   C789    1.080   .     S
H762   C790    1.076   .     S
C763   C791    1.368   .     S
C764   C792    1.369   .     S
O765   C769    1.269   .     A
O765   Zn771   2.017   .     S
O766   C770    1.277   .     A
O766   Zn772   2.017   .     S
O767   Zn771   2.015   .     S
O767   C770    1.270   .     A
O768   Zn772   2.015   .     S
O768   C769    1.277   .     A
C769   C780    1.443   .     S
C770   C779    1.446   .     S
Zn771  N774    1.971   .     S
Zn772  N773    1.971   .     S
N774   N77     1.192   1_556 S
C775   S793    1.793   .     S
C775   C779    1.414   .     A
C775   C783    1.399   .     A
C776   S798    1.803   .     S
C776   C780    1.418   .     A
C776   C784    1.404   .     A
C777   C781    1.406   .     A
C777   C779    1.419   .     A
C777   S803    1.804   .     S
C778   S808    1.790   .     S
C778   C782    1.398   .     A
C778   C780    1.412   .     A
C781   C787    1.401   .     A
C781   C785    1.411   .     A
C782   C788    1.402   .     A
C782   C786    1.408   .     A
C783   C785    1.408   .     A
C783   C789    1.403   .     A
C784   C790    1.399   .     A
C784   C786    1.411   .     A
C785   C728    1.407   1_655 S
C787   C732    1.382   1_655 S
C789   C730    1.385   1_655 S
C791   C1024   1.166   1_545 S
C792   C907    1.166   .     S
S793   O796    1.679   .     S
S793   O794    1.502   .     D
S793   O795    1.500   .     D
O796   H797    0.989   .     S
S798   O801    1.683   .     S
S798   O799    1.500   .     D
S798   O800    1.502   .     D
O801   H802    0.991   .     S
S803   O806    1.682   .     S
S803   O804    1.501   .     D
S803   O805    1.502   .     D
O806   H807    0.991   .     S
S808   O810    1.503   .     D
S808   O809    1.502   .     D
S808   O811    1.679   .     S
O811   H812    0.991   .     S
O813   Zn829   1.961   .     S
O813   C821    1.263   .     A
O814   Zn830   1.961   .     S
O814   C822    1.262   .     A
O815   C822    1.261   .     A
O815   Zn829   1.955   .     S
O816   Zn830   1.955   .     S
O816   C821    1.260   .     A
H817   C845    1.071   .     S
H818   C846    1.080   .     S
H819   C847    1.080   .     S
H820   C848    1.076   .     S
C821   C849    1.368   .     S
C822   C850    1.369   .     S
O823   C827    1.269   .     A
O823   Zn829   2.017   .     S
O824   C828    1.277   .     A
O824   Zn830   2.017   .     S
O825   Zn829   2.015   .     S
O825   C828    1.270   .     A
O826   Zn830   2.015   .     S
O826   C827    1.277   .     A
C827   C838    1.443   .     S
C828   C837    1.446   .     S
Zn829  N832    1.971   .     S
Zn830  N831    1.971   .     S
N832   N135    1.192   1_556 S
C833   S851    1.793   .     S
C833   C837    1.414   .     A
C833   C841    1.399   .     A
C834   S856    1.803   .     S
C834   C838    1.418   .     A
C834   C842    1.404   .     A
C835   C839    1.406   .     A
C835   C837    1.419   .     A
C835   S861    1.804   .     S
C836   S866    1.790   .     S
C836   C840    1.398   .     A
C836   C838    1.412   .     A
C839   C845    1.401   .     A
C839   C843    1.411   .     A
C840   C846    1.402   .     A
C840   C844    1.408   .     A
C841   C843    1.408   .     A
C841   C847    1.403   .     A
C842   C848    1.399   .     A
C842   C844    1.411   .     A
C843   C902    1.407   .     S
C844   C901    1.407   1_455 S
C845   C906    1.382   .     S
C846   C905    1.385   1_455 S
C847   C904    1.385   .     S
C848   C903    1.382   1_455 S
C850   C965    1.166   .     S
S851   O854    1.679   .     S
S851   O852    1.502   .     D
S851   O853    1.500   .     D
O854   H855    0.989   .     S
S856   O859    1.683   .     S
S856   O857    1.500   .     D
S856   O858    1.502   .     D
O859   H860    0.991   .     S
S861   O864    1.682   .     S
S861   O862    1.501   .     D
S861   O863    1.502   .     D
O864   H865    0.991   .     S
S866   O868    1.503   .     D
S866   O867    1.502   .     D
S866   O869    1.679   .     S
O869   H870    0.991   .     S
O871   Zn887   1.961   .     S
O871   C879    1.263   .     A
O872   Zn888   1.961   .     S
O872   C880    1.262   .     A
O873   C880    1.261   .     A
O873   Zn887   1.955   .     S
O874   Zn888   1.955   .     S
O874   C879    1.260   .     A
H875   C903    1.071   .     S
H876   C904    1.080   .     S
H877   C905    1.080   .     S
H878   C906    1.076   .     S
C879   C907    1.368   .     S
C880   C908    1.369   .     S
O881   C885    1.269   .     A
O881   Zn887   2.017   .     S
O882   C886    1.277   .     A
O882   Zn888   2.017   .     S
O883   Zn887   2.015   .     S
O883   C886    1.270   .     A
O884   Zn888   2.015   .     S
O884   C885    1.277   .     A
C885   C896    1.443   .     S
C886   C895    1.446   .     S
Zn887  N890    1.971   .     S
Zn888  N889    1.971   .     S
N890   N193    1.192   1_556 S
C891   S909    1.793   .     S
C891   C895    1.414   .     A
C891   C899    1.399   .     A
C892   S914    1.803   .     S
C892   C896    1.418   .     A
C892   C900    1.404   .     A
C893   C897    1.406   .     A
C893   C895    1.419   .     A
C893   S919    1.804   .     S
C894   S924    1.790   .     S
C894   C898    1.398   .     A
C894   C896    1.412   .     A
C897   C903    1.401   .     A
C897   C901    1.411   .     A
C898   C904    1.402   .     A
C898   C902    1.408   .     A
C899   C901    1.408   .     A
C899   C905    1.403   .     A
C900   C906    1.399   .     A
C900   C902    1.411   .     A
C901   C844    1.407   1_655 S
C903   C848    1.382   1_655 S
C905   C846    1.385   1_655 S
C908   C1023   1.166   .     S
S909   O912    1.679   .     S
S909   O910    1.502   .     D
S909   O911    1.500   .     D
O912   H913    0.989   .     S
S914   O917    1.683   .     S
S914   O915    1.500   .     D
S914   O916    1.502   .     D
O917   H918    0.991   .     S
S919   O922    1.682   .     S
S919   O920    1.501   .     D
S919   O921    1.502   .     D
O922   H923    0.991   .     S
S924   O926    1.503   .     D
S924   O925    1.502   .     D
S924   O927    1.679   .     S
O927   H928    0.991   .     S
O929   Zn945   1.961   .     S
O929   C937    1.263   .     A
O930   Zn946   1.961   .     S
O930   C938    1.262   .     A
O931   C938    1.261   .     A
O931   Zn945   1.955   .     S
O932   Zn946   1.955   .     S
O932   C937    1.260   .     A
H933   C961    1.071   .     S
H934   C962    1.080   .     S
H935   C963    1.080   .     S
H936   C964    1.076   .     S
C937   C965    1.368   .     S
C938   C966    1.369   .     S
O939   C943    1.269   .     A
O939   Zn945   2.017   .     S
O940   C944    1.277   .     A
O940   Zn946   2.017   .     S
O941   Zn945   2.015   .     S
O941   C944    1.270   .     A
O942   Zn946   2.015   .     S
O942   C943    1.277   .     A
C943   C954    1.443   .     S
C944   C953    1.446   .     S
Zn945  N948    1.971   .     S
Zn946  N947    1.971   .     S
N948   N251    1.192   1_556 S
C949   S967    1.793   .     S
C949   C953    1.414   .     A
C949   C957    1.399   .     A
C950   S972    1.803   .     S
C950   C954    1.418   .     A
C950   C958    1.404   .     A
C951   C955    1.406   .     A
C951   C953    1.419   .     A
C951   S977    1.804   .     S
C952   S982    1.790   .     S
C952   C956    1.398   .     A
C952   C954    1.412   .     A
C955   C961    1.401   .     A
C955   C959    1.411   .     A
C956   C962    1.402   .     A
C956   C960    1.408   .     A
C957   C959    1.408   .     A
C957   C963    1.403   .     A
C958   C964    1.399   .     A
C958   C960    1.411   .     A
C959   C1018   1.407   .     S
C960   C1017   1.407   1_455 S
C961   C1022   1.382   .     S
C962   C1021   1.385   1_455 S
C963   C1020   1.385   .     S
C964   C1019   1.382   1_455 S
C966   C733    1.166   1_565 S
S967   O970    1.679   .     S
S967   O968    1.502   .     D
S967   O969    1.500   .     D
O970   H971    0.989   .     S
S972   O975    1.683   .     S
S972   O973    1.500   .     D
S972   O974    1.502   .     D
O975   H976    0.991   .     S
S977   O980    1.682   .     S
S977   O978    1.501   .     D
S977   O979    1.502   .     D
O980   H981    0.991   .     S
S982   O984    1.503   .     D
S982   O983    1.502   .     D
S982   O985    1.679   .     S
O985   H986    0.991   .     S
O987   Zn1003  1.961   .     S
O987   C995    1.263   .     A
O988   Zn1004  1.961   .     S
O988   C996    1.262   .     A
O989   C996    1.261   .     A
O989   Zn1003  1.955   .     S
O990   Zn1004  1.955   .     S
O990   C995    1.260   .     A
H991   C1019   1.071   .     S
H992   C1020   1.080   .     S
H993   C1021   1.080   .     S
H994   C1022   1.076   .     S
C995   C1023   1.368   .     S
C996   C1024   1.369   .     S
O997   C1001   1.269   .     A
O997   Zn1003  2.017   .     S
O998   C1002   1.277   .     A
O998   Zn1004  2.017   .     S
O999   Zn1003  2.015   .     S
O999   C1002   1.270   .     A
O1000  Zn1004  2.015   .     S
O1000  C1001   1.277   .     A
C1001  C1012   1.443   .     S
C1002  C1011   1.446   .     S
Zn1003 N1006   1.971   .     S
Zn1004 N1005   1.971   .     S
N1006  N309    1.192   1_556 S
C1007  S1025   1.793   .     S
C1007  C1011   1.414   .     A
C1007  C1015   1.399   .     A
C1008  S1030   1.803   .     S
C1008  C1012   1.418   .     A
C1008  C1016   1.404   .     A
C1009  C1013   1.406   .     A
C1009  C1011   1.419   .     A
C1009  S1035   1.804   .     S
C1010  S1040   1.790   .     S
C1010  C1014   1.398   .     A
C1010  C1012   1.412   .     A
C1013  C1019   1.401   .     A
C1013  C1017   1.411   .     A
C1014  C1020   1.402   .     A
C1014  C1018   1.408   .     A
C1015  C1017   1.408   .     A
C1015  C1021   1.403   .     A
C1016  C1022   1.399   .     A
C1016  C1018   1.411   .     A
C1017  C960    1.407   1_655 S
C1019  C964    1.382   1_655 S
C1021  C962    1.385   1_655 S
C1024  C791    1.166   1_565 S
S1025  O1028   1.679   .     S
S1025  O1026   1.502   .     D
S1025  O1027   1.500   .     D
O1028  H1029   0.989   .     S
S1030  O1033   1.683   .     S
S1030  O1031   1.500   .     D
S1030  O1032   1.502   .     D
O1033  H1034   0.991   .     S
S1035  O1038   1.682   .     S
S1035  O1036   1.501   .     D
S1035  O1037   1.502   .     D
O1038  H1039   0.991   .     S
S1040  O1042   1.503   .     D
S1040  O1041   1.502   .     D
S1040  O1043   1.679   .     S
O1043  H1044   0.991   .     S
