data_str_m1_o5_o17_pcu_sym.15
_audit_creation_date              2020-01-03
_audit_creation_method            'Materials Studio'
_symmetry_space_group_name_H-M    'P1'
_symmetry_Int_Tables_number       1
_symmetry_cell_setting            triclinic
loop_
_symmetry_equiv_pos_as_xyz
  x,y,z
_cell_length_a                    31.7653
_cell_length_b                    31.7653
_cell_length_c                    34.6341
_cell_angle_alpha                 90.0002
_cell_angle_beta                  90.0001
_cell_angle_gamma                 89.9993
loop_
_atom_site_label
_atom_site_type_symbol
_atom_site_fract_x
_atom_site_fract_y
_atom_site_fract_z
_atom_site_U_iso_or_equiv
_atom_site_adp_type
_atom_site_occupancy
C1     C     0.25000  -0.00000   0.35582   0.00000  Uiso   1.00
C2     C     0.33000   0.41999   0.75000   0.00000  Uiso   1.00
C3     C     0.43685   0.29479   0.01938   0.00000  Uiso   1.00
C4     C     0.23452   0.07587   0.97975   0.00000  Uiso   1.00
C5     C     0.26526   0.42421   0.02026   0.00000  Uiso   1.00
C6     C     0.43871   0.29709   0.97910   0.00000  Uiso   1.00
C7     C     0.06305   0.20499   0.01936   0.00000  Uiso   1.00
C8     C     0.05737   0.30172   0.39664   0.00000  Uiso   1.00
C9     C     0.47051   0.17907   0.60445   0.00000  Uiso   1.00
C10    C     0.18264   0.46274   0.39634   0.00000  Uiso   1.00
C11    C     0.32653   0.49597   0.60458   0.00000  Uiso   1.00
C12    C     0.44263   0.19828   0.39664   0.00000  Uiso   1.00
C13    C     0.42000   0.16998   0.25001   0.00000  Uiso   1.00
C14    C     0.02949   0.32093   0.60445   0.00000  Uiso   1.00
C15    C     0.31736   0.03726   0.39634   0.00000  Uiso   1.00
C16    C     0.17347   0.00403   0.60458   0.00000  Uiso   1.00
C17    C     0.25466   0.07650   0.89546   0.00000  Uiso   1.00
C18    C     0.28692   0.43246   0.10366   0.00000  Uiso   1.00
C19    C     0.42891   0.27910   0.89552   0.00000  Uiso   1.00
C20    C     0.05199   0.19286   0.10339   0.00000  Uiso   1.00
C21    C     0.24534   0.42350   0.89544   0.00000  Uiso   1.00
C22    C     0.21309   0.06755   0.10367   0.00000  Uiso   1.00
C23    C     0.07108   0.22090   0.89554   0.00000  Uiso   1.00
C24    C     0.08000   0.33001   0.74999   0.00000  Uiso   1.00
C25    C     0.44810   0.30719   0.10333   0.00000  Uiso   1.00
C26    C     0.43758   0.14961   0.46241   0.00000  Uiso   1.00
C27    C     0.07924   0.33683   0.53993   0.00000  Uiso   1.00
C28    C     0.36633   0.01685   0.46029   0.00000  Uiso   1.00
C29    C     0.13569   0.47041   0.53925   0.00000  Uiso   1.00
C30    C     0.06242   0.35039   0.46241   0.00000  Uiso   1.00
C31    C     0.42076   0.16317   0.53993   0.00000  Uiso   1.00
C32    C     0.13367   0.48315   0.46029   0.00000  Uiso   1.00
C33    C     0.36431   0.02959   0.53926   0.00000  Uiso   1.00
C34    C     0.27883   0.38550   0.96072   0.00000  Uiso   1.00
C35    C     0.33000   0.41998   0.24999   0.00000  Uiso   1.00
C36    C     0.23361   0.11641   0.03969   0.00000  Uiso   1.00
C37    C     0.08733   0.17129   0.96007   0.00000  Uiso   1.00
C38    C     0.39911   0.31152   0.03767   0.00000  Uiso   1.00
C39    C     0.22101   0.11444   0.96071   0.00000  Uiso   1.00
C40    C     0.26631   0.38358   0.03971   0.00000  Uiso   1.00
C41    C     0.41244   0.32846   0.96014   0.00000  Uiso   1.00
C42    C     0.10072   0.18810   0.03761   0.00000  Uiso   1.00
C43    C     0.17000   0.08001   0.75000   0.00000  Uiso   1.00
C44    C     0.08000   0.33001   0.25001   0.00000  Uiso   1.00
C45    C     0.42000   0.16999   0.74999   0.00000  Uiso   1.00
C46    C     0.16999   0.42000   0.75000   0.00000  Uiso   1.00
C47    C     0.33002   0.08000   0.25001   0.00000  Uiso   1.00
C48    C     0.41999   0.33000   0.75001   0.00000  Uiso   1.00
C49    C     0.25000  -0.00000   0.64426   0.00000  Uiso   1.00
C50    C     0.08002   0.17000   0.24999   0.00000  Uiso   1.00
C51    C     0.33001   0.08000   0.75000   0.00000  Uiso   1.00
C52    C     0.16999   0.42000   0.25001   0.00000  Uiso   1.00
C53    C     0.08001   0.17000   0.75001   0.00000  Uiso   1.00
C54    C     0.41999   0.33000   0.24999   0.00000  Uiso   1.00
C55    C     0.13832   0.38835   0.25003   0.00000  Uiso   1.00
C56    C     0.36167   0.11166   0.74999   0.00000  Uiso   1.00
C57    C     0.11168   0.13835   0.24997   0.00000  Uiso   1.00
C58    C     0.38833   0.36166   0.75001   0.00000  Uiso   1.00
C59    C     0.36168   0.11165   0.25003   0.00000  Uiso   1.00
C60    C     0.00000   0.25000   0.35594   0.00000  Uiso   1.00
C61    C     0.13833   0.38834   0.74999   0.00000  Uiso   1.00
C62    C     0.38832   0.36165   0.24997   0.00000  Uiso   1.00
C63    C     0.11167   0.13834   0.75001   0.00000  Uiso   1.00
C64    C     0.13834   0.11167   0.75001   0.00000  Uiso   1.00
C65    C     0.36165   0.38832   0.24997   0.00000  Uiso   1.00
C66    C     0.11166   0.36167   0.74999   0.00000  Uiso   1.00
C67    C     0.38835   0.13832   0.25003   0.00000  Uiso   1.00
C68    C     0.36166   0.38833   0.75001   0.00000  Uiso   1.00
C69    C     0.13835   0.11168   0.24997   0.00000  Uiso   1.00
C70    C     0.38834   0.13833   0.74999   0.00000  Uiso   1.00
C71    C     0.00000   0.25000   0.64434   0.00000  Uiso   1.00
C72    C     0.11165   0.36168   0.25003   0.00000  Uiso   1.00
C73    C     0.02657   0.27781   0.41868   0.00000  Uiso   1.00
C74    C     0.48139   0.21651   0.58239   0.00000  Uiso   1.00
C75    C     0.21481   0.48485   0.41827   0.00000  Uiso   1.00
C76    C     0.28830   0.00169   0.58208   0.00000  Uiso   1.00
C77    C     0.47343   0.22219   0.41868   0.00000  Uiso   1.00
C78    C     0.01861   0.28349   0.58239   0.00000  Uiso   1.00
C79    C     0.28519   0.01515   0.41827   0.00000  Uiso   1.00
C80    C     0.21170   0.49831   0.58208   0.00000  Uiso   1.00
C81    C     0.24859   0.03830   0.91793   0.00000  Uiso   1.00
C82    C     0.00000   0.25000   0.85566   0.00000  Uiso   1.00
C83    C     0.26496   0.46474   0.08173   0.00000  Uiso   1.00
C84    C     0.46638   0.26839   0.91761   0.00000  Uiso   1.00
C85    C     0.02794   0.22354   0.08133   0.00000  Uiso   1.00
C86    C     0.25138   0.46168   0.91793   0.00000  Uiso   1.00
C87    C     0.23502   0.03526   0.08173   0.00000  Uiso   1.00
C88    C     0.03358   0.23156   0.91762   0.00000  Uiso   1.00
C89    C     0.47207   0.27641   0.08133   0.00000  Uiso   1.00
C90    C     0.00000   0.25000   0.39856   0.00000  Uiso   1.00
C91    C     0.00000   0.25000   0.60221   0.00000  Uiso   1.00
C92    C     0.25000  -0.00000   0.39824   0.00000  Uiso   1.00
C93    C     0.00000   0.25000   0.14406   0.00000  Uiso   1.00
C94    C     0.25000  -0.00000   0.60194   0.00000  Uiso   1.00
C95    C     0.25000  -0.00000   0.89806   0.00000  Uiso   1.00
C96    C     0.25000   0.00000   0.10176   0.00000  Uiso   1.00
C97    C     0.49999   0.24999   0.89779   0.00000  Uiso   1.00
C98    C     0.00001   0.24999   0.10145   0.00000  Uiso   1.00
C99    C     0.47609   0.21916   0.45952   0.00000  Uiso   1.00
C100   C     0.02266   0.28162   0.54167   0.00000  Uiso   1.00
C101   C     0.28752   0.01020   0.45901   0.00000  Uiso   1.00
C102   C     0.21149   0.49375   0.54123   0.00000  Uiso   1.00
C103   C     0.02391   0.28084   0.45952   0.00000  Uiso   1.00
C104   C     0.25000   0.00000   0.85574   0.00000  Uiso   1.00
C105   C     0.47734   0.21838   0.54167   0.00000  Uiso   1.00
C106   C     0.21248   0.48980   0.45901   0.00000  Uiso   1.00
C107   C     0.28851   0.00625   0.54123   0.00000  Uiso   1.00
C108   C     0.25597   0.46144   0.95877   0.00000  Uiso   1.00
C109   C     0.23997   0.03757   0.04099   0.00000  Uiso   1.00
C110   C     0.03174   0.22749   0.95834   0.00000  Uiso   1.00
C111   C     0.46900   0.27366   0.04049   0.00000  Uiso   1.00
C112   C     0.24398   0.03854   0.95877   0.00000  Uiso   1.00
C113   C     0.25999   0.46242   0.04100   0.00000  Uiso   1.00
C114   C     0.46818   0.27240   0.95834   0.00000  Uiso   1.00
C115   C     0.25000   0.00000   0.14418   0.00000  Uiso   1.00
C116   C     0.03096   0.22621   0.04049   0.00000  Uiso   1.00
C117   C     0.00000   0.25000   0.48002   0.00000  Uiso   1.00
C118   C     0.00000   0.25000   0.52108   0.00000  Uiso   1.00
C119   C     0.25000  -0.00000   0.47961   0.00000  Uiso   1.00
C120   C     0.25000  -0.00000   0.52068   0.00000  Uiso   1.00
C121   C     0.24998   0.49999   0.97932   0.00000  Uiso   1.00
C122   C     0.24998   0.49999   0.02039   0.00000  Uiso   1.00
C123   C     0.49996   0.24994   0.97893   0.00000  Uiso   1.00
C124   C     0.49997   0.24994   0.01999   0.00000  Uiso   1.00
C125   C     0.45467   0.18720   0.48065   0.00000  Uiso   1.00
C126   C     0.17000   0.08001   0.24999   0.00000  Uiso   1.00
C127   C     0.04761   0.31088   0.52094   0.00000  Uiso   1.00
C128   C     0.32570   0.01567   0.47974   0.00000  Uiso   1.00
C129   C     0.17420   0.48412   0.52024   0.00000  Uiso   1.00
C130   C     0.04533   0.31280   0.48065   0.00000  Uiso   1.00
C131   C     0.45239   0.18912   0.52094   0.00000  Uiso   1.00
C132   C     0.17430   0.48433   0.47974   0.00000  Uiso   1.00
C133   C     0.32580   0.01588   0.52024   0.00000  Uiso   1.00
C134   C     0.26539   0.42410   0.97975   0.00000  Uiso   1.00
C135   C     0.23468   0.07577   0.02026   0.00000  Uiso   1.00
C136   C     0.06116   0.20273   0.97907   0.00000  Uiso   1.00
N137   N     0.08187   0.32041   0.37876   0.00000  Uiso   1.00
N138   N     0.30452   0.40708   0.12142   0.00000  Uiso   1.00
N139   N     0.39923   0.28730   0.87763   0.00000  Uiso   1.00
N140   N     0.07080   0.16846   0.12127   0.00000  Uiso   1.00
N141   N     0.24028   0.39341   0.87715   0.00000  Uiso   1.00
N142   N     0.19549   0.09293   0.12143   0.00000  Uiso   1.00
N143   N     0.10078   0.21272   0.87768   0.00000  Uiso   1.00
N144   N     0.42935   0.33167   0.12118   0.00000  Uiso   1.00
N145   N     0.42401   0.11943   0.44839   0.00000  Uiso   1.00
N146   N     0.10467   0.35738   0.55468   0.00000  Uiso   1.00
N147   N     0.39885   0.01757   0.44521   0.00000  Uiso   1.00
N148   N     0.46217   0.14940   0.62230   0.00000  Uiso   1.00
N149   N     0.10487   0.45934   0.55392   0.00000  Uiso   1.00
N150   N     0.07599   0.38057   0.44839   0.00000  Uiso   1.00
N151   N     0.39533   0.14262   0.55468   0.00000  Uiso   1.00
N152   N     0.10115   0.48243   0.44521   0.00000  Uiso   1.00
N153   N     0.39513   0.04066   0.55392   0.00000  Uiso   1.00
N154   N     0.28968   0.35461   0.94604   0.00000  Uiso   1.00
N155   N     0.23297   0.14894   0.05477   0.00000  Uiso   1.00
N156   N     0.10807   0.14601   0.94532   0.00000  Uiso   1.00
N157   N     0.36882   0.32478   0.05173   0.00000  Uiso   1.00
N158   N     0.21010   0.14531   0.94602   0.00000  Uiso   1.00
N159   N     0.15735   0.44500   0.37859   0.00000  Uiso   1.00
N160   N     0.26694   0.35106   0.05480   0.00000  Uiso   1.00
N161   N     0.39161   0.35370   0.94542   0.00000  Uiso   1.00
N162   N     0.13098   0.17469   0.05163   0.00000  Uiso   1.00
N163   N     0.35665   0.49117   0.62288   0.00000  Uiso   1.00
N164   N     0.41813   0.17959   0.37875   0.00000  Uiso   1.00
N165   N     0.03783   0.35060   0.62231   0.00000  Uiso   1.00
N166   N     0.34265   0.05500   0.37859   0.00000  Uiso   1.00
N167   N     0.14335   0.00883   0.62288   0.00000  Uiso   1.00
N168   N     0.25973   0.10660   0.87719   0.00000  Uiso   1.00
O169   O     0.25000  -0.00000   0.25000   0.00000  Uiso   1.00
O170   O     0.25000   0.46538   0.66251   0.00000  Uiso   1.00
O171   O     0.46539   0.25000   0.33749   0.00000  Uiso   1.00
O172   O     0.03462   0.25000   0.66251   0.00000  Uiso   1.00
O173   O     0.00000   0.21538   0.83749   0.00000  Uiso   1.00
O174   O     0.00000   0.28461   0.16251   0.00000  Uiso   1.00
O175   O     0.28462  -0.00000   0.83749   0.00000  Uiso   1.00
O176   O     0.21539  -0.00000   0.16251   0.00000  Uiso   1.00
O177   O     0.00000   0.28461   0.83749   0.00000  Uiso   1.00
O178   O     0.00000   0.21538   0.16251   0.00000  Uiso   1.00
O179   O     0.21539  -0.00000   0.83749   0.00000  Uiso   1.00
O180   O     0.25000  -0.00000   0.75000   0.00000  Uiso   1.00
O181   O     0.28462  -0.00000   0.16251   0.00000  Uiso   1.00
O182   O     0.20127   0.08332   0.27298   0.00000  Uiso   1.00
O183   O     0.29874   0.41668   0.72702   0.00000  Uiso   1.00
O184   O     0.41668   0.20126   0.27298   0.00000  Uiso   1.00
O185   O     0.08332   0.29873   0.72702   0.00000  Uiso   1.00
O186   O     0.29874   0.41668   0.27298   0.00000  Uiso   1.00
O187   O     0.20127   0.08332   0.72702   0.00000  Uiso   1.00
O188   O     0.08332   0.29873   0.27298   0.00000  Uiso   1.00
O189   O     0.41668   0.20126   0.72702   0.00000  Uiso   1.00
O190   O     0.20127   0.41668   0.72702   0.00000  Uiso   1.00
O191   O     0.00000   0.25000   0.25000   0.00000  Uiso   1.00
O192   O     0.29874   0.08332   0.27298   0.00000  Uiso   1.00
O193   O     0.41668   0.29873   0.72702   0.00000  Uiso   1.00
O194   O     0.08332   0.20126   0.27298   0.00000  Uiso   1.00
O195   O     0.29874   0.08332   0.72702   0.00000  Uiso   1.00
O196   O     0.20127   0.41668   0.27298   0.00000  Uiso   1.00
O197   O     0.08332   0.20126   0.72702   0.00000  Uiso   1.00
O198   O     0.41668   0.29873   0.27298   0.00000  Uiso   1.00
O199   O     0.45127   0.33332   0.77298   0.00000  Uiso   1.00
O200   O     0.04874   0.16668   0.22702   0.00000  Uiso   1.00
O201   O     0.16668   0.45126   0.77298   0.00000  Uiso   1.00
O202   O     0.00000   0.25000   0.75000   0.00000  Uiso   1.00
O203   O     0.33332   0.04873   0.22702   0.00000  Uiso   1.00
O204   O     0.04874   0.16668   0.77298   0.00000  Uiso   1.00
O205   O     0.45127   0.33332   0.22702   0.00000  Uiso   1.00
O206   O     0.33332   0.04873   0.77298   0.00000  Uiso   1.00
O207   O     0.16668   0.45126   0.22702   0.00000  Uiso   1.00
O208   O     0.45127   0.16668   0.22702   0.00000  Uiso   1.00
O209   O     0.04874   0.33332   0.77298   0.00000  Uiso   1.00
O210   O     0.16668   0.04873   0.22702   0.00000  Uiso   1.00
O211   O     0.33332   0.45126   0.77298   0.00000  Uiso   1.00
O212   O     0.04874   0.33332   0.22702   0.00000  Uiso   1.00
O213   O     0.25000   0.46538   0.33749   0.00000  Uiso   1.00
O214   O     0.45127   0.16668   0.77298   0.00000  Uiso   1.00
O215   O     0.33332   0.45126   0.22702   0.00000  Uiso   1.00
O216   O     0.16668   0.04873   0.77298   0.00000  Uiso   1.00
O217   O     0.25000   0.03461   0.66251   0.00000  Uiso   1.00
O218   O     0.03462   0.25000   0.33749   0.00000  Uiso   1.00
O219   O     0.46539   0.25000   0.66251   0.00000  Uiso   1.00
O220   O     0.25000   0.03461   0.33749   0.00000  Uiso   1.00
Zn221  Zn    0.20053  -0.00000   0.21730   0.00000  Uiso   1.00
Zn222  Zn    0.04948   0.25000   0.28270   0.00000  Uiso   1.00
Zn223  Zn    0.25000   0.45052   0.71730   0.00000  Uiso   1.00
Zn224  Zn    0.25000   0.04947   0.28270   0.00000  Uiso   1.00
Zn225  Zn    0.04948   0.25000   0.71730   0.00000  Uiso   1.00
Zn226  Zn    0.45053   0.25000   0.28270   0.00000  Uiso   1.00
Zn227  Zn    0.25000   0.04947   0.71730   0.00000  Uiso   1.00
Zn228  Zn    0.25000   0.45052   0.28270   0.00000  Uiso   1.00
Zn229  Zn    0.29948  -0.00000   0.78270   0.00000  Uiso   1.00
Zn230  Zn    0.00000   0.20052   0.21730   0.00000  Uiso   1.00
Zn231  Zn    0.00000   0.29947   0.78270   0.00000  Uiso   1.00
Zn232  Zn    0.29948  -0.00000   0.21730   0.00000  Uiso   1.00
Zn233  Zn    0.20053  -0.00000   0.78270   0.00000  Uiso   1.00
Zn234  Zn    0.00000   0.29947   0.21730   0.00000  Uiso   1.00
Zn235  Zn    0.00000   0.20052   0.78270   0.00000  Uiso   1.00
Zn236  Zn    0.45053   0.25000   0.71730   0.00000  Uiso   1.00
C237   C     0.75000  -0.00000   0.35582   0.00000  Uiso   1.00
C238   C     0.83000   0.41999   0.75000   0.00000  Uiso   1.00
C239   C     0.93685   0.29479   0.01938   0.00000  Uiso   1.00
C240   C     0.73452   0.07587   0.97975   0.00000  Uiso   1.00
C241   C     0.76526   0.42421   0.02026   0.00000  Uiso   1.00
C242   C     0.93871   0.29709   0.97910   0.00000  Uiso   1.00
C243   C     0.56305   0.20499   0.01936   0.00000  Uiso   1.00
C244   C     0.55737   0.30172   0.39664   0.00000  Uiso   1.00
C245   C     0.97051   0.17907   0.60445   0.00000  Uiso   1.00
C246   C     0.68264   0.46274   0.39634   0.00000  Uiso   1.00
C247   C     0.82653   0.49597   0.60458   0.00000  Uiso   1.00
C248   C     0.94263   0.19828   0.39664   0.00000  Uiso   1.00
C249   C     0.92000   0.16998   0.25001   0.00000  Uiso   1.00
C250   C     0.52949   0.32093   0.60445   0.00000  Uiso   1.00
C251   C     0.81736   0.03726   0.39634   0.00000  Uiso   1.00
C252   C     0.67347   0.00403   0.60458   0.00000  Uiso   1.00
C253   C     0.75466   0.07650   0.89546   0.00000  Uiso   1.00
C254   C     0.78692   0.43246   0.10366   0.00000  Uiso   1.00
C255   C     0.92891   0.27910   0.89552   0.00000  Uiso   1.00
C256   C     0.55199   0.19286   0.10339   0.00000  Uiso   1.00
C257   C     0.74534   0.42350   0.89544   0.00000  Uiso   1.00
C258   C     0.71309   0.06755   0.10367   0.00000  Uiso   1.00
C259   C     0.57108   0.22090   0.89554   0.00000  Uiso   1.00
C260   C     0.58000   0.33001   0.74999   0.00000  Uiso   1.00
C261   C     0.94810   0.30719   0.10333   0.00000  Uiso   1.00
C262   C     0.93758   0.14961   0.46241   0.00000  Uiso   1.00
C263   C     0.57924   0.33683   0.53993   0.00000  Uiso   1.00
C264   C     0.86633   0.01685   0.46029   0.00000  Uiso   1.00
C265   C     0.63569   0.47041   0.53925   0.00000  Uiso   1.00
C266   C     0.56242   0.35039   0.46241   0.00000  Uiso   1.00
C267   C     0.92076   0.16317   0.53993   0.00000  Uiso   1.00
C268   C     0.63367   0.48315   0.46029   0.00000  Uiso   1.00
C269   C     0.86431   0.02959   0.53926   0.00000  Uiso   1.00
C270   C     0.77883   0.38550   0.96072   0.00000  Uiso   1.00
C271   C     0.83000   0.41998   0.24999   0.00000  Uiso   1.00
C272   C     0.73361   0.11641   0.03969   0.00000  Uiso   1.00
C273   C     0.58733   0.17129   0.96007   0.00000  Uiso   1.00
C274   C     0.89911   0.31152   0.03767   0.00000  Uiso   1.00
C275   C     0.72101   0.11444   0.96071   0.00000  Uiso   1.00
C276   C     0.76631   0.38358   0.03971   0.00000  Uiso   1.00
C277   C     0.91244   0.32846   0.96014   0.00000  Uiso   1.00
C278   C     0.60072   0.18810   0.03761   0.00000  Uiso   1.00
C279   C     0.67000   0.08001   0.75000   0.00000  Uiso   1.00
C280   C     0.58000   0.33001   0.25001   0.00000  Uiso   1.00
C281   C     0.92000   0.16999   0.74999   0.00000  Uiso   1.00
C282   C     0.66999   0.42000   0.75000   0.00000  Uiso   1.00
C283   C     0.83002   0.08000   0.25001   0.00000  Uiso   1.00
C284   C     0.91999   0.33000   0.75001   0.00000  Uiso   1.00
C285   C     0.75000  -0.00000   0.64426   0.00000  Uiso   1.00
C286   C     0.58002   0.17000   0.24999   0.00000  Uiso   1.00
C287   C     0.83001   0.08000   0.75000   0.00000  Uiso   1.00
C288   C     0.66999   0.42000   0.25001   0.00000  Uiso   1.00
C289   C     0.58001   0.17000   0.75001   0.00000  Uiso   1.00
C290   C     0.91999   0.33000   0.24999   0.00000  Uiso   1.00
C291   C     0.63832   0.38835   0.25003   0.00000  Uiso   1.00
C292   C     0.86167   0.11166   0.74999   0.00000  Uiso   1.00
C293   C     0.61168   0.13835   0.24997   0.00000  Uiso   1.00
C294   C     0.88833   0.36166   0.75001   0.00000  Uiso   1.00
C295   C     0.86168   0.11165   0.25003   0.00000  Uiso   1.00
C296   C     0.50000   0.25000   0.35594   0.00000  Uiso   1.00
C297   C     0.63833   0.38834   0.74999   0.00000  Uiso   1.00
C298   C     0.88832   0.36165   0.24997   0.00000  Uiso   1.00
C299   C     0.61167   0.13834   0.75001   0.00000  Uiso   1.00
C300   C     0.63834   0.11167   0.75001   0.00000  Uiso   1.00
C301   C     0.86165   0.38832   0.24997   0.00000  Uiso   1.00
C302   C     0.61166   0.36167   0.74999   0.00000  Uiso   1.00
C303   C     0.88835   0.13832   0.25003   0.00000  Uiso   1.00
C304   C     0.86166   0.38833   0.75001   0.00000  Uiso   1.00
C305   C     0.63835   0.11168   0.24997   0.00000  Uiso   1.00
C306   C     0.88834   0.13833   0.74999   0.00000  Uiso   1.00
C307   C     0.50000   0.25000   0.64434   0.00000  Uiso   1.00
C308   C     0.61165   0.36168   0.25003   0.00000  Uiso   1.00
C309   C     0.52657   0.27781   0.41868   0.00000  Uiso   1.00
C310   C     0.98139   0.21651   0.58239   0.00000  Uiso   1.00
C311   C     0.71481   0.48485   0.41827   0.00000  Uiso   1.00
C312   C     0.78830   0.00169   0.58208   0.00000  Uiso   1.00
C313   C     0.97343   0.22219   0.41868   0.00000  Uiso   1.00
C314   C     0.51861   0.28349   0.58239   0.00000  Uiso   1.00
C315   C     0.78519   0.01515   0.41827   0.00000  Uiso   1.00
C316   C     0.71170   0.49831   0.58208   0.00000  Uiso   1.00
C317   C     0.74859   0.03830   0.91793   0.00000  Uiso   1.00
C318   C     0.50000   0.25000   0.85566   0.00000  Uiso   1.00
C319   C     0.76496   0.46474   0.08173   0.00000  Uiso   1.00
C320   C     0.96638   0.26839   0.91761   0.00000  Uiso   1.00
C321   C     0.52794   0.22354   0.08133   0.00000  Uiso   1.00
C322   C     0.75138   0.46168   0.91793   0.00000  Uiso   1.00
C323   C     0.73502   0.03526   0.08173   0.00000  Uiso   1.00
C324   C     0.53358   0.23156   0.91762   0.00000  Uiso   1.00
C325   C     0.97207   0.27641   0.08133   0.00000  Uiso   1.00
C326   C     0.50000   0.25000   0.39856   0.00000  Uiso   1.00
C327   C     0.50000   0.25000   0.60221   0.00000  Uiso   1.00
C328   C     0.75000  -0.00000   0.39824   0.00000  Uiso   1.00
C329   C     0.50000   0.25000   0.14406   0.00000  Uiso   1.00
C330   C     0.75000  -0.00000   0.60194   0.00000  Uiso   1.00
C331   C     0.75000  -0.00000   0.89806   0.00000  Uiso   1.00
C332   C     0.75000   0.00000   0.10176   0.00000  Uiso   1.00
C333   C     0.99999   0.24999   0.89779   0.00000  Uiso   1.00
C334   C     0.50001   0.24999   0.10145   0.00000  Uiso   1.00
C335   C     0.97609   0.21916   0.45952   0.00000  Uiso   1.00
C336   C     0.52266   0.28162   0.54167   0.00000  Uiso   1.00
C337   C     0.78752   0.01020   0.45901   0.00000  Uiso   1.00
C338   C     0.71149   0.49375   0.54123   0.00000  Uiso   1.00
C339   C     0.52391   0.28084   0.45952   0.00000  Uiso   1.00
C340   C     0.75000   0.00000   0.85574   0.00000  Uiso   1.00
C341   C     0.97734   0.21838   0.54167   0.00000  Uiso   1.00
C342   C     0.71248   0.48980   0.45901   0.00000  Uiso   1.00
C343   C     0.78851   0.00625   0.54123   0.00000  Uiso   1.00
C344   C     0.75597   0.46144   0.95877   0.00000  Uiso   1.00
C345   C     0.73997   0.03757   0.04099   0.00000  Uiso   1.00
C346   C     0.53174   0.22749   0.95834   0.00000  Uiso   1.00
C347   C     0.96900   0.27366   0.04049   0.00000  Uiso   1.00
C348   C     0.74398   0.03854   0.95877   0.00000  Uiso   1.00
C349   C     0.75999   0.46242   0.04100   0.00000  Uiso   1.00
C350   C     0.96818   0.27240   0.95834   0.00000  Uiso   1.00
C351   C     0.75000   0.00000   0.14418   0.00000  Uiso   1.00
C352   C     0.53096   0.22621   0.04049   0.00000  Uiso   1.00
C353   C     0.50000   0.25000   0.48002   0.00000  Uiso   1.00
C354   C     0.50000   0.25000   0.52108   0.00000  Uiso   1.00
C355   C     0.75000  -0.00000   0.47961   0.00000  Uiso   1.00
C356   C     0.75000  -0.00000   0.52068   0.00000  Uiso   1.00
C357   C     0.74998   0.49999   0.97932   0.00000  Uiso   1.00
C358   C     0.74998   0.49999   0.02039   0.00000  Uiso   1.00
C359   C     0.99996   0.24994   0.97893   0.00000  Uiso   1.00
C360   C     0.99997   0.24994   0.01999   0.00000  Uiso   1.00
C361   C     0.95467   0.18720   0.48065   0.00000  Uiso   1.00
C362   C     0.67000   0.08001   0.24999   0.00000  Uiso   1.00
C363   C     0.54761   0.31088   0.52094   0.00000  Uiso   1.00
C364   C     0.82570   0.01567   0.47974   0.00000  Uiso   1.00
C365   C     0.67420   0.48412   0.52024   0.00000  Uiso   1.00
C366   C     0.54533   0.31280   0.48065   0.00000  Uiso   1.00
C367   C     0.95239   0.18912   0.52094   0.00000  Uiso   1.00
C368   C     0.67430   0.48433   0.47974   0.00000  Uiso   1.00
C369   C     0.82580   0.01588   0.52024   0.00000  Uiso   1.00
C370   C     0.76539   0.42410   0.97975   0.00000  Uiso   1.00
C371   C     0.73468   0.07577   0.02026   0.00000  Uiso   1.00
C372   C     0.56116   0.20273   0.97907   0.00000  Uiso   1.00
N373   N     0.58187   0.32041   0.37876   0.00000  Uiso   1.00
N374   N     0.80452   0.40708   0.12142   0.00000  Uiso   1.00
N375   N     0.89923   0.28730   0.87763   0.00000  Uiso   1.00
N376   N     0.57080   0.16846   0.12127   0.00000  Uiso   1.00
N377   N     0.74028   0.39341   0.87715   0.00000  Uiso   1.00
N378   N     0.69549   0.09293   0.12143   0.00000  Uiso   1.00
N379   N     0.60078   0.21272   0.87768   0.00000  Uiso   1.00
N380   N     0.92935   0.33167   0.12118   0.00000  Uiso   1.00
N381   N     0.92401   0.11943   0.44839   0.00000  Uiso   1.00
N382   N     0.60467   0.35738   0.55468   0.00000  Uiso   1.00
N383   N     0.89885   0.01757   0.44521   0.00000  Uiso   1.00
N384   N     0.96217   0.14940   0.62230   0.00000  Uiso   1.00
N385   N     0.60487   0.45934   0.55392   0.00000  Uiso   1.00
N386   N     0.57599   0.38057   0.44839   0.00000  Uiso   1.00
N387   N     0.89533   0.14262   0.55468   0.00000  Uiso   1.00
N388   N     0.60115   0.48243   0.44521   0.00000  Uiso   1.00
N389   N     0.89513   0.04066   0.55392   0.00000  Uiso   1.00
N390   N     0.78968   0.35461   0.94604   0.00000  Uiso   1.00
N391   N     0.73297   0.14894   0.05477   0.00000  Uiso   1.00
N392   N     0.60807   0.14601   0.94532   0.00000  Uiso   1.00
N393   N     0.86882   0.32478   0.05173   0.00000  Uiso   1.00
N394   N     0.71010   0.14531   0.94602   0.00000  Uiso   1.00
N395   N     0.65735   0.44500   0.37859   0.00000  Uiso   1.00
N396   N     0.76694   0.35106   0.05480   0.00000  Uiso   1.00
N397   N     0.89161   0.35370   0.94542   0.00000  Uiso   1.00
N398   N     0.63098   0.17469   0.05163   0.00000  Uiso   1.00
N399   N     0.85665   0.49117   0.62288   0.00000  Uiso   1.00
N400   N     0.91813   0.17959   0.37875   0.00000  Uiso   1.00
N401   N     0.53783   0.35060   0.62231   0.00000  Uiso   1.00
N402   N     0.84265   0.05500   0.37859   0.00000  Uiso   1.00
N403   N     0.64335   0.00883   0.62288   0.00000  Uiso   1.00
N404   N     0.75973   0.10660   0.87719   0.00000  Uiso   1.00
O405   O     0.75000  -0.00000   0.25000   0.00000  Uiso   1.00
O406   O     0.75000   0.46538   0.66251   0.00000  Uiso   1.00
O407   O     0.96539   0.25000   0.33749   0.00000  Uiso   1.00
O408   O     0.53462   0.25000   0.66251   0.00000  Uiso   1.00
O409   O     0.50000   0.21538   0.83749   0.00000  Uiso   1.00
O410   O     0.50000   0.28461   0.16251   0.00000  Uiso   1.00
O411   O     0.78462  -0.00000   0.83749   0.00000  Uiso   1.00
O412   O     0.71539  -0.00000   0.16251   0.00000  Uiso   1.00
O413   O     0.50000   0.28461   0.83749   0.00000  Uiso   1.00
O414   O     0.50000   0.21538   0.16251   0.00000  Uiso   1.00
O415   O     0.71539  -0.00000   0.83749   0.00000  Uiso   1.00
O416   O     0.75000  -0.00000   0.75000   0.00000  Uiso   1.00
O417   O     0.78462  -0.00000   0.16251   0.00000  Uiso   1.00
O418   O     0.70127   0.08332   0.27298   0.00000  Uiso   1.00
O419   O     0.79874   0.41668   0.72702   0.00000  Uiso   1.00
O420   O     0.91668   0.20126   0.27298   0.00000  Uiso   1.00
O421   O     0.58332   0.29873   0.72702   0.00000  Uiso   1.00
O422   O     0.79874   0.41668   0.27298   0.00000  Uiso   1.00
O423   O     0.70127   0.08332   0.72702   0.00000  Uiso   1.00
O424   O     0.58332   0.29873   0.27298   0.00000  Uiso   1.00
O425   O     0.91668   0.20126   0.72702   0.00000  Uiso   1.00
O426   O     0.70127   0.41668   0.72702   0.00000  Uiso   1.00
O427   O     0.50000   0.25000   0.25000   0.00000  Uiso   1.00
O428   O     0.79874   0.08332   0.27298   0.00000  Uiso   1.00
O429   O     0.91668   0.29873   0.72702   0.00000  Uiso   1.00
O430   O     0.58332   0.20126   0.27298   0.00000  Uiso   1.00
O431   O     0.79874   0.08332   0.72702   0.00000  Uiso   1.00
O432   O     0.70127   0.41668   0.27298   0.00000  Uiso   1.00
O433   O     0.58332   0.20126   0.72702   0.00000  Uiso   1.00
O434   O     0.91668   0.29873   0.27298   0.00000  Uiso   1.00
O435   O     0.95127   0.33332   0.77298   0.00000  Uiso   1.00
O436   O     0.54874   0.16668   0.22702   0.00000  Uiso   1.00
O437   O     0.66668   0.45126   0.77298   0.00000  Uiso   1.00
O438   O     0.50000   0.25000   0.75000   0.00000  Uiso   1.00
O439   O     0.83332   0.04873   0.22702   0.00000  Uiso   1.00
O440   O     0.54874   0.16668   0.77298   0.00000  Uiso   1.00
O441   O     0.95127   0.33332   0.22702   0.00000  Uiso   1.00
O442   O     0.83332   0.04873   0.77298   0.00000  Uiso   1.00
O443   O     0.66668   0.45126   0.22702   0.00000  Uiso   1.00
O444   O     0.95127   0.16668   0.22702   0.00000  Uiso   1.00
O445   O     0.54874   0.33332   0.77298   0.00000  Uiso   1.00
O446   O     0.66668   0.04873   0.22702   0.00000  Uiso   1.00
O447   O     0.83332   0.45126   0.77298   0.00000  Uiso   1.00
O448   O     0.54874   0.33332   0.22702   0.00000  Uiso   1.00
O449   O     0.75000   0.46538   0.33749   0.00000  Uiso   1.00
O450   O     0.95127   0.16668   0.77298   0.00000  Uiso   1.00
O451   O     0.83332   0.45126   0.22702   0.00000  Uiso   1.00
O452   O     0.66668   0.04873   0.77298   0.00000  Uiso   1.00
O453   O     0.75000   0.03461   0.66251   0.00000  Uiso   1.00
O454   O     0.53462   0.25000   0.33749   0.00000  Uiso   1.00
O455   O     0.96539   0.25000   0.66251   0.00000  Uiso   1.00
O456   O     0.75000   0.03461   0.33749   0.00000  Uiso   1.00
Zn457  Zn    0.70053  -0.00000   0.21730   0.00000  Uiso   1.00
Zn458  Zn    0.54948   0.25000   0.28270   0.00000  Uiso   1.00
Zn459  Zn    0.75000   0.45052   0.71730   0.00000  Uiso   1.00
Zn460  Zn    0.75000   0.04947   0.28270   0.00000  Uiso   1.00
Zn461  Zn    0.54948   0.25000   0.71730   0.00000  Uiso   1.00
Zn462  Zn    0.95053   0.25000   0.28270   0.00000  Uiso   1.00
Zn463  Zn    0.75000   0.04947   0.71730   0.00000  Uiso   1.00
Zn464  Zn    0.75000   0.45052   0.28270   0.00000  Uiso   1.00
Zn465  Zn    0.79948  -0.00000   0.78270   0.00000  Uiso   1.00
Zn466  Zn    0.50000   0.20052   0.21730   0.00000  Uiso   1.00
Zn467  Zn    0.50000   0.29947   0.78270   0.00000  Uiso   1.00
Zn468  Zn    0.79948  -0.00000   0.21730   0.00000  Uiso   1.00
Zn469  Zn    0.70053  -0.00000   0.78270   0.00000  Uiso   1.00
Zn470  Zn    0.50000   0.29947   0.21730   0.00000  Uiso   1.00
Zn471  Zn    0.50000   0.20052   0.78270   0.00000  Uiso   1.00
Zn472  Zn    0.95053   0.25000   0.71730   0.00000  Uiso   1.00
C473   C     0.25000   0.50000   0.35582   0.00000  Uiso   1.00
C474   C     0.33000   0.91999   0.75000   0.00000  Uiso   1.00
C475   C     0.43685   0.79479   0.01938   0.00000  Uiso   1.00
C476   C     0.23452   0.57587   0.97975   0.00000  Uiso   1.00
C477   C     0.26526   0.92421   0.02026   0.00000  Uiso   1.00
C478   C     0.43871   0.79709   0.97910   0.00000  Uiso   1.00
C479   C     0.06305   0.70499   0.01936   0.00000  Uiso   1.00
C480   C     0.05737   0.80172   0.39664   0.00000  Uiso   1.00
C481   C     0.47051   0.67907   0.60445   0.00000  Uiso   1.00
C482   C     0.18264   0.96274   0.39634   0.00000  Uiso   1.00
C483   C     0.32653   0.99597   0.60458   0.00000  Uiso   1.00
C484   C     0.44263   0.69828   0.39664   0.00000  Uiso   1.00
C485   C     0.42000   0.66998   0.25001   0.00000  Uiso   1.00
C486   C     0.02949   0.82093   0.60445   0.00000  Uiso   1.00
C487   C     0.31736   0.53726   0.39634   0.00000  Uiso   1.00
C488   C     0.17347   0.50403   0.60458   0.00000  Uiso   1.00
C489   C     0.25466   0.57650   0.89546   0.00000  Uiso   1.00
C490   C     0.28692   0.93246   0.10366   0.00000  Uiso   1.00
C491   C     0.42891   0.77910   0.89552   0.00000  Uiso   1.00
C492   C     0.05199   0.69286   0.10339   0.00000  Uiso   1.00
C493   C     0.24534   0.92350   0.89544   0.00000  Uiso   1.00
C494   C     0.21309   0.56755   0.10367   0.00000  Uiso   1.00
C495   C     0.07108   0.72090   0.89554   0.00000  Uiso   1.00
C496   C     0.08000   0.83001   0.74999   0.00000  Uiso   1.00
C497   C     0.44810   0.80719   0.10333   0.00000  Uiso   1.00
C498   C     0.43758   0.64961   0.46241   0.00000  Uiso   1.00
C499   C     0.07924   0.83683   0.53993   0.00000  Uiso   1.00
C500   C     0.36633   0.51685   0.46029   0.00000  Uiso   1.00
C501   C     0.13569   0.97041   0.53925   0.00000  Uiso   1.00
C502   C     0.06242   0.85039   0.46241   0.00000  Uiso   1.00
C503   C     0.42076   0.66317   0.53993   0.00000  Uiso   1.00
C504   C     0.13367   0.98315   0.46029   0.00000  Uiso   1.00
C505   C     0.36431   0.52959   0.53926   0.00000  Uiso   1.00
C506   C     0.27883   0.88550   0.96072   0.00000  Uiso   1.00
C507   C     0.33000   0.91998   0.24999   0.00000  Uiso   1.00
C508   C     0.23361   0.61641   0.03969   0.00000  Uiso   1.00
C509   C     0.08733   0.67129   0.96007   0.00000  Uiso   1.00
C510   C     0.39911   0.81152   0.03767   0.00000  Uiso   1.00
C511   C     0.22101   0.61444   0.96071   0.00000  Uiso   1.00
C512   C     0.26631   0.88358   0.03971   0.00000  Uiso   1.00
C513   C     0.41244   0.82846   0.96014   0.00000  Uiso   1.00
C514   C     0.10072   0.68810   0.03761   0.00000  Uiso   1.00
C515   C     0.17000   0.58001   0.75000   0.00000  Uiso   1.00
C516   C     0.08000   0.83001   0.25001   0.00000  Uiso   1.00
C517   C     0.42000   0.66999   0.74999   0.00000  Uiso   1.00
C518   C     0.16999   0.92000   0.75000   0.00000  Uiso   1.00
C519   C     0.33002   0.58000   0.25001   0.00000  Uiso   1.00
C520   C     0.41999   0.83000   0.75001   0.00000  Uiso   1.00
C521   C     0.25000   0.50000   0.64426   0.00000  Uiso   1.00
C522   C     0.08002   0.67000   0.24999   0.00000  Uiso   1.00
C523   C     0.33001   0.58000   0.75000   0.00000  Uiso   1.00
C524   C     0.16999   0.92000   0.25001   0.00000  Uiso   1.00
C525   C     0.08001   0.67000   0.75001   0.00000  Uiso   1.00
C526   C     0.41999   0.83000   0.24999   0.00000  Uiso   1.00
C527   C     0.13832   0.88835   0.25003   0.00000  Uiso   1.00
C528   C     0.36167   0.61166   0.74999   0.00000  Uiso   1.00
C529   C     0.11168   0.63835   0.24997   0.00000  Uiso   1.00
C530   C     0.38833   0.86166   0.75001   0.00000  Uiso   1.00
C531   C     0.36168   0.61165   0.25003   0.00000  Uiso   1.00
C532   C     0.00000   0.75000   0.35594   0.00000  Uiso   1.00
C533   C     0.13833   0.88834   0.74999   0.00000  Uiso   1.00
C534   C     0.38832   0.86165   0.24997   0.00000  Uiso   1.00
C535   C     0.11167   0.63834   0.75001   0.00000  Uiso   1.00
C536   C     0.13834   0.61167   0.75001   0.00000  Uiso   1.00
C537   C     0.36165   0.88832   0.24997   0.00000  Uiso   1.00
C538   C     0.11166   0.86167   0.74999   0.00000  Uiso   1.00
C539   C     0.38835   0.63832   0.25003   0.00000  Uiso   1.00
C540   C     0.36166   0.88833   0.75001   0.00000  Uiso   1.00
C541   C     0.13835   0.61168   0.24997   0.00000  Uiso   1.00
C542   C     0.38834   0.63833   0.74999   0.00000  Uiso   1.00
C543   C     0.00000   0.75000   0.64434   0.00000  Uiso   1.00
C544   C     0.11165   0.86168   0.25003   0.00000  Uiso   1.00
C545   C     0.02657   0.77781   0.41868   0.00000  Uiso   1.00
C546   C     0.48139   0.71651   0.58239   0.00000  Uiso   1.00
C547   C     0.21481   0.98485   0.41827   0.00000  Uiso   1.00
C548   C     0.28830   0.50169   0.58208   0.00000  Uiso   1.00
C549   C     0.47343   0.72219   0.41868   0.00000  Uiso   1.00
C550   C     0.01861   0.78349   0.58239   0.00000  Uiso   1.00
C551   C     0.28519   0.51515   0.41827   0.00000  Uiso   1.00
C552   C     0.21170   0.99831   0.58208   0.00000  Uiso   1.00
C553   C     0.24859   0.53830   0.91793   0.00000  Uiso   1.00
C554   C     0.00000   0.75000   0.85566   0.00000  Uiso   1.00
C555   C     0.26496   0.96474   0.08173   0.00000  Uiso   1.00
C556   C     0.46638   0.76839   0.91761   0.00000  Uiso   1.00
C557   C     0.02794   0.72354   0.08133   0.00000  Uiso   1.00
C558   C     0.25138   0.96168   0.91793   0.00000  Uiso   1.00
C559   C     0.23502   0.53526   0.08173   0.00000  Uiso   1.00
C560   C     0.03358   0.73156   0.91762   0.00000  Uiso   1.00
C561   C     0.47207   0.77641   0.08133   0.00000  Uiso   1.00
C562   C     0.00000   0.75000   0.39856   0.00000  Uiso   1.00
C563   C     0.00000   0.75000   0.60221   0.00000  Uiso   1.00
C564   C     0.25000   0.50000   0.39824   0.00000  Uiso   1.00
C565   C     0.00000   0.75000   0.14406   0.00000  Uiso   1.00
C566   C     0.25000   0.50000   0.60194   0.00000  Uiso   1.00
C567   C     0.25000   0.50000   0.89806   0.00000  Uiso   1.00
C568   C     0.25000   0.50000   0.10176   0.00000  Uiso   1.00
C569   C     0.49999   0.74999   0.89779   0.00000  Uiso   1.00
C570   C     0.00001   0.74999   0.10145   0.00000  Uiso   1.00
C571   C     0.47609   0.71916   0.45952   0.00000  Uiso   1.00
C572   C     0.02266   0.78162   0.54167   0.00000  Uiso   1.00
C573   C     0.28752   0.51020   0.45901   0.00000  Uiso   1.00
C574   C     0.21149   0.99375   0.54123   0.00000  Uiso   1.00
C575   C     0.02391   0.78084   0.45952   0.00000  Uiso   1.00
C576   C     0.25000   0.50000   0.85574   0.00000  Uiso   1.00
C577   C     0.47734   0.71838   0.54167   0.00000  Uiso   1.00
C578   C     0.21248   0.98980   0.45901   0.00000  Uiso   1.00
C579   C     0.28851   0.50625   0.54123   0.00000  Uiso   1.00
C580   C     0.25597   0.96144   0.95877   0.00000  Uiso   1.00
C581   C     0.23997   0.53757   0.04099   0.00000  Uiso   1.00
C582   C     0.03174   0.72749   0.95834   0.00000  Uiso   1.00
C583   C     0.46900   0.77366   0.04049   0.00000  Uiso   1.00
C584   C     0.24398   0.53854   0.95877   0.00000  Uiso   1.00
C585   C     0.25999   0.96242   0.04100   0.00000  Uiso   1.00
C586   C     0.46818   0.77240   0.95834   0.00000  Uiso   1.00
C587   C     0.25000   0.50000   0.14418   0.00000  Uiso   1.00
C588   C     0.03096   0.72621   0.04049   0.00000  Uiso   1.00
C589   C     0.00000   0.75000   0.48002   0.00000  Uiso   1.00
C590   C     0.00000   0.75000   0.52108   0.00000  Uiso   1.00
C591   C     0.25000   0.50000   0.47961   0.00000  Uiso   1.00
C592   C     0.25000   0.50000   0.52068   0.00000  Uiso   1.00
C593   C     0.24998   0.99999   0.97932   0.00000  Uiso   1.00
C594   C     0.24998   0.99999   0.02039   0.00000  Uiso   1.00
C595   C     0.49996   0.74994   0.97893   0.00000  Uiso   1.00
C596   C     0.49997   0.74994   0.01999   0.00000  Uiso   1.00
C597   C     0.45467   0.68720   0.48065   0.00000  Uiso   1.00
C598   C     0.17000   0.58001   0.24999   0.00000  Uiso   1.00
C599   C     0.04761   0.81088   0.52094   0.00000  Uiso   1.00
C600   C     0.32570   0.51567   0.47974   0.00000  Uiso   1.00
C601   C     0.17420   0.98412   0.52024   0.00000  Uiso   1.00
C602   C     0.04533   0.81280   0.48065   0.00000  Uiso   1.00
C603   C     0.45239   0.68912   0.52094   0.00000  Uiso   1.00
C604   C     0.17430   0.98433   0.47974   0.00000  Uiso   1.00
C605   C     0.32580   0.51588   0.52024   0.00000  Uiso   1.00
C606   C     0.26539   0.92410   0.97975   0.00000  Uiso   1.00
C607   C     0.23468   0.57577   0.02026   0.00000  Uiso   1.00
C608   C     0.06116   0.70273   0.97907   0.00000  Uiso   1.00
N609   N     0.08187   0.82041   0.37876   0.00000  Uiso   1.00
N610   N     0.30452   0.90708   0.12142   0.00000  Uiso   1.00
N611   N     0.39923   0.78730   0.87763   0.00000  Uiso   1.00
N612   N     0.07080   0.66846   0.12127   0.00000  Uiso   1.00
N613   N     0.24028   0.89341   0.87715   0.00000  Uiso   1.00
N614   N     0.19549   0.59293   0.12143   0.00000  Uiso   1.00
N615   N     0.10078   0.71272   0.87768   0.00000  Uiso   1.00
N616   N     0.42935   0.83167   0.12118   0.00000  Uiso   1.00
N617   N     0.42401   0.61943   0.44839   0.00000  Uiso   1.00
N618   N     0.10467   0.85738   0.55468   0.00000  Uiso   1.00
N619   N     0.39885   0.51757   0.44521   0.00000  Uiso   1.00
N620   N     0.46217   0.64940   0.62230   0.00000  Uiso   1.00
N621   N     0.10487   0.95934   0.55392   0.00000  Uiso   1.00
N622   N     0.07599   0.88057   0.44839   0.00000  Uiso   1.00
N623   N     0.39533   0.64262   0.55468   0.00000  Uiso   1.00
N624   N     0.10115   0.98243   0.44521   0.00000  Uiso   1.00
N625   N     0.39513   0.54066   0.55392   0.00000  Uiso   1.00
N626   N     0.28968   0.85461   0.94604   0.00000  Uiso   1.00
N627   N     0.23297   0.64894   0.05477   0.00000  Uiso   1.00
N628   N     0.10807   0.64601   0.94532   0.00000  Uiso   1.00
N629   N     0.36882   0.82478   0.05173   0.00000  Uiso   1.00
N630   N     0.21010   0.64531   0.94602   0.00000  Uiso   1.00
N631   N     0.15735   0.94500   0.37859   0.00000  Uiso   1.00
N632   N     0.26694   0.85106   0.05480   0.00000  Uiso   1.00
N633   N     0.39161   0.85370   0.94542   0.00000  Uiso   1.00
N634   N     0.13098   0.67469   0.05163   0.00000  Uiso   1.00
N635   N     0.35665   0.99117   0.62288   0.00000  Uiso   1.00
N636   N     0.41813   0.67959   0.37875   0.00000  Uiso   1.00
N637   N     0.03783   0.85060   0.62231   0.00000  Uiso   1.00
N638   N     0.34265   0.55500   0.37859   0.00000  Uiso   1.00
N639   N     0.14335   0.50883   0.62288   0.00000  Uiso   1.00
N640   N     0.25973   0.60660   0.87719   0.00000  Uiso   1.00
O641   O     0.25000   0.50000   0.25000   0.00000  Uiso   1.00
O642   O     0.25000   0.96538   0.66251   0.00000  Uiso   1.00
O643   O     0.46539   0.75000   0.33749   0.00000  Uiso   1.00
O644   O     0.03462   0.75000   0.66251   0.00000  Uiso   1.00
O645   O     0.00000   0.71538   0.83749   0.00000  Uiso   1.00
O646   O     0.00000   0.78461   0.16251   0.00000  Uiso   1.00
O647   O     0.28462   0.50000   0.83749   0.00000  Uiso   1.00
O648   O     0.21539   0.50000   0.16251   0.00000  Uiso   1.00
O649   O     0.00000   0.78461   0.83749   0.00000  Uiso   1.00
O650   O     0.00000   0.71538   0.16251   0.00000  Uiso   1.00
O651   O     0.21539   0.50000   0.83749   0.00000  Uiso   1.00
O652   O     0.25000   0.50000   0.75000   0.00000  Uiso   1.00
O653   O     0.28462   0.50000   0.16251   0.00000  Uiso   1.00
O654   O     0.20127   0.58332   0.27298   0.00000  Uiso   1.00
O655   O     0.29874   0.91668   0.72702   0.00000  Uiso   1.00
O656   O     0.41668   0.70126   0.27298   0.00000  Uiso   1.00
O657   O     0.08332   0.79873   0.72702   0.00000  Uiso   1.00
O658   O     0.29874   0.91668   0.27298   0.00000  Uiso   1.00
O659   O     0.20127   0.58332   0.72702   0.00000  Uiso   1.00
O660   O     0.08332   0.79873   0.27298   0.00000  Uiso   1.00
O661   O     0.41668   0.70126   0.72702   0.00000  Uiso   1.00
O662   O     0.20127   0.91668   0.72702   0.00000  Uiso   1.00
O663   O     0.00000   0.75000   0.25000   0.00000  Uiso   1.00
O664   O     0.29874   0.58332   0.27298   0.00000  Uiso   1.00
O665   O     0.41668   0.79873   0.72702   0.00000  Uiso   1.00
O666   O     0.08332   0.70126   0.27298   0.00000  Uiso   1.00
O667   O     0.29874   0.58332   0.72702   0.00000  Uiso   1.00
O668   O     0.20127   0.91668   0.27298   0.00000  Uiso   1.00
O669   O     0.08332   0.70126   0.72702   0.00000  Uiso   1.00
O670   O     0.41668   0.79873   0.27298   0.00000  Uiso   1.00
O671   O     0.45127   0.83332   0.77298   0.00000  Uiso   1.00
O672   O     0.04874   0.66668   0.22702   0.00000  Uiso   1.00
O673   O     0.16668   0.95126   0.77298   0.00000  Uiso   1.00
O674   O     0.00000   0.75000   0.75000   0.00000  Uiso   1.00
O675   O     0.33332   0.54873   0.22702   0.00000  Uiso   1.00
O676   O     0.04874   0.66668   0.77298   0.00000  Uiso   1.00
O677   O     0.45127   0.83332   0.22702   0.00000  Uiso   1.00
O678   O     0.33332   0.54873   0.77298   0.00000  Uiso   1.00
O679   O     0.16668   0.95126   0.22702   0.00000  Uiso   1.00
O680   O     0.45127   0.66668   0.22702   0.00000  Uiso   1.00
O681   O     0.04874   0.83332   0.77298   0.00000  Uiso   1.00
O682   O     0.16668   0.54873   0.22702   0.00000  Uiso   1.00
O683   O     0.33332   0.95126   0.77298   0.00000  Uiso   1.00
O684   O     0.04874   0.83332   0.22702   0.00000  Uiso   1.00
O685   O     0.25000   0.96538   0.33749   0.00000  Uiso   1.00
O686   O     0.45127   0.66668   0.77298   0.00000  Uiso   1.00
O687   O     0.33332   0.95126   0.22702   0.00000  Uiso   1.00
O688   O     0.16668   0.54873   0.77298   0.00000  Uiso   1.00
O689   O     0.25000   0.53461   0.66251   0.00000  Uiso   1.00
O690   O     0.03462   0.75000   0.33749   0.00000  Uiso   1.00
O691   O     0.46539   0.75000   0.66251   0.00000  Uiso   1.00
O692   O     0.25000   0.53461   0.33749   0.00000  Uiso   1.00
Zn693  Zn    0.20053   0.50000   0.21730   0.00000  Uiso   1.00
Zn694  Zn    0.04948   0.75000   0.28270   0.00000  Uiso   1.00
Zn695  Zn    0.25000   0.95052   0.71730   0.00000  Uiso   1.00
Zn696  Zn    0.25000   0.54947   0.28270   0.00000  Uiso   1.00
Zn697  Zn    0.04948   0.75000   0.71730   0.00000  Uiso   1.00
Zn698  Zn    0.45053   0.75000   0.28270   0.00000  Uiso   1.00
Zn699  Zn    0.25000   0.54947   0.71730   0.00000  Uiso   1.00
Zn700  Zn    0.25000   0.95052   0.28270   0.00000  Uiso   1.00
Zn701  Zn    0.29948   0.50000   0.78270   0.00000  Uiso   1.00
Zn702  Zn    0.00000   0.70052   0.21730   0.00000  Uiso   1.00
Zn703  Zn    0.00000   0.79947   0.78270   0.00000  Uiso   1.00
Zn704  Zn    0.29948   0.50000   0.21730   0.00000  Uiso   1.00
Zn705  Zn    0.20053   0.50000   0.78270   0.00000  Uiso   1.00
Zn706  Zn    0.00000   0.79947   0.21730   0.00000  Uiso   1.00
Zn707  Zn    0.00000   0.70052   0.78270   0.00000  Uiso   1.00
Zn708  Zn    0.45053   0.75000   0.71730   0.00000  Uiso   1.00
C709   C     0.75000   0.50000   0.35582   0.00000  Uiso   1.00
C710   C     0.83000   0.91999   0.75000   0.00000  Uiso   1.00
C711   C     0.93685   0.79479   0.01938   0.00000  Uiso   1.00
C712   C     0.73452   0.57587   0.97975   0.00000  Uiso   1.00
C713   C     0.76526   0.92421   0.02026   0.00000  Uiso   1.00
C714   C     0.93871   0.79709   0.97910   0.00000  Uiso   1.00
C715   C     0.56305   0.70499   0.01936   0.00000  Uiso   1.00
C716   C     0.55737   0.80172   0.39664   0.00000  Uiso   1.00
C717   C     0.97051   0.67907   0.60445   0.00000  Uiso   1.00
C718   C     0.68264   0.96274   0.39634   0.00000  Uiso   1.00
C719   C     0.82653   0.99597   0.60458   0.00000  Uiso   1.00
C720   C     0.94263   0.69828   0.39664   0.00000  Uiso   1.00
C721   C     0.92000   0.66998   0.25001   0.00000  Uiso   1.00
C722   C     0.52949   0.82093   0.60445   0.00000  Uiso   1.00
C723   C     0.81736   0.53726   0.39634   0.00000  Uiso   1.00
C724   C     0.67347   0.50403   0.60458   0.00000  Uiso   1.00
C725   C     0.75466   0.57650   0.89546   0.00000  Uiso   1.00
C726   C     0.78692   0.93246   0.10366   0.00000  Uiso   1.00
C727   C     0.92891   0.77910   0.89552   0.00000  Uiso   1.00
C728   C     0.55199   0.69286   0.10339   0.00000  Uiso   1.00
C729   C     0.74534   0.92350   0.89544   0.00000  Uiso   1.00
C730   C     0.71309   0.56755   0.10367   0.00000  Uiso   1.00
C731   C     0.57108   0.72090   0.89554   0.00000  Uiso   1.00
C732   C     0.58000   0.83001   0.74999   0.00000  Uiso   1.00
C733   C     0.94810   0.80719   0.10333   0.00000  Uiso   1.00
C734   C     0.93758   0.64961   0.46241   0.00000  Uiso   1.00
C735   C     0.57924   0.83683   0.53993   0.00000  Uiso   1.00
C736   C     0.86633   0.51685   0.46029   0.00000  Uiso   1.00
C737   C     0.63569   0.97041   0.53925   0.00000  Uiso   1.00
C738   C     0.56242   0.85039   0.46241   0.00000  Uiso   1.00
C739   C     0.92076   0.66317   0.53993   0.00000  Uiso   1.00
C740   C     0.63367   0.98315   0.46029   0.00000  Uiso   1.00
C741   C     0.86431   0.52959   0.53926   0.00000  Uiso   1.00
C742   C     0.77883   0.88550   0.96072   0.00000  Uiso   1.00
C743   C     0.83000   0.91998   0.24999   0.00000  Uiso   1.00
C744   C     0.73361   0.61641   0.03969   0.00000  Uiso   1.00
C745   C     0.58733   0.67129   0.96007   0.00000  Uiso   1.00
C746   C     0.89911   0.81152   0.03767   0.00000  Uiso   1.00
C747   C     0.72101   0.61444   0.96071   0.00000  Uiso   1.00
C748   C     0.76631   0.88358   0.03971   0.00000  Uiso   1.00
C749   C     0.91244   0.82846   0.96014   0.00000  Uiso   1.00
C750   C     0.60072   0.68810   0.03761   0.00000  Uiso   1.00
C751   C     0.67000   0.58001   0.75000   0.00000  Uiso   1.00
C752   C     0.58000   0.83001   0.25001   0.00000  Uiso   1.00
C753   C     0.92000   0.66999   0.74999   0.00000  Uiso   1.00
C754   C     0.66999   0.92000   0.75000   0.00000  Uiso   1.00
C755   C     0.83002   0.58000   0.25001   0.00000  Uiso   1.00
C756   C     0.91999   0.83000   0.75001   0.00000  Uiso   1.00
C757   C     0.75000   0.50000   0.64426   0.00000  Uiso   1.00
C758   C     0.58002   0.67000   0.24999   0.00000  Uiso   1.00
C759   C     0.83001   0.58000   0.75000   0.00000  Uiso   1.00
C760   C     0.66999   0.92000   0.25001   0.00000  Uiso   1.00
C761   C     0.58001   0.67000   0.75001   0.00000  Uiso   1.00
C762   C     0.91999   0.83000   0.24999   0.00000  Uiso   1.00
C763   C     0.63832   0.88835   0.25003   0.00000  Uiso   1.00
C764   C     0.86167   0.61166   0.74999   0.00000  Uiso   1.00
C765   C     0.61168   0.63835   0.24997   0.00000  Uiso   1.00
C766   C     0.88833   0.86166   0.75001   0.00000  Uiso   1.00
C767   C     0.86168   0.61165   0.25003   0.00000  Uiso   1.00
C768   C     0.50000   0.75000   0.35594   0.00000  Uiso   1.00
C769   C     0.63833   0.88834   0.74999   0.00000  Uiso   1.00
C770   C     0.88832   0.86165   0.24997   0.00000  Uiso   1.00
C771   C     0.61167   0.63834   0.75001   0.00000  Uiso   1.00
C772   C     0.63834   0.61167   0.75001   0.00000  Uiso   1.00
C773   C     0.86165   0.88832   0.24997   0.00000  Uiso   1.00
C774   C     0.61166   0.86167   0.74999   0.00000  Uiso   1.00
C775   C     0.88835   0.63832   0.25003   0.00000  Uiso   1.00
C776   C     0.86166   0.88833   0.75001   0.00000  Uiso   1.00
C777   C     0.63835   0.61168   0.24997   0.00000  Uiso   1.00
C778   C     0.88834   0.63833   0.74999   0.00000  Uiso   1.00
C779   C     0.50000   0.75000   0.64434   0.00000  Uiso   1.00
C780   C     0.61165   0.86168   0.25003   0.00000  Uiso   1.00
C781   C     0.52657   0.77781   0.41868   0.00000  Uiso   1.00
C782   C     0.98139   0.71651   0.58239   0.00000  Uiso   1.00
C783   C     0.71481   0.98485   0.41827   0.00000  Uiso   1.00
C784   C     0.78830   0.50169   0.58208   0.00000  Uiso   1.00
C785   C     0.97343   0.72219   0.41868   0.00000  Uiso   1.00
C786   C     0.51861   0.78349   0.58239   0.00000  Uiso   1.00
C787   C     0.78519   0.51515   0.41827   0.00000  Uiso   1.00
C788   C     0.71170   0.99831   0.58208   0.00000  Uiso   1.00
C789   C     0.74859   0.53830   0.91793   0.00000  Uiso   1.00
C790   C     0.50000   0.75000   0.85566   0.00000  Uiso   1.00
C791   C     0.76496   0.96474   0.08173   0.00000  Uiso   1.00
C792   C     0.96638   0.76839   0.91761   0.00000  Uiso   1.00
C793   C     0.52794   0.72354   0.08133   0.00000  Uiso   1.00
C794   C     0.75138   0.96168   0.91793   0.00000  Uiso   1.00
C795   C     0.73502   0.53526   0.08173   0.00000  Uiso   1.00
C796   C     0.53358   0.73156   0.91762   0.00000  Uiso   1.00
C797   C     0.97207   0.77641   0.08133   0.00000  Uiso   1.00
C798   C     0.50000   0.75000   0.39856   0.00000  Uiso   1.00
C799   C     0.50000   0.75000   0.60221   0.00000  Uiso   1.00
C800   C     0.75000   0.50000   0.39824   0.00000  Uiso   1.00
C801   C     0.50000   0.75000   0.14406   0.00000  Uiso   1.00
C802   C     0.75000   0.50000   0.60194   0.00000  Uiso   1.00
C803   C     0.75000   0.50000   0.89806   0.00000  Uiso   1.00
C804   C     0.75000   0.50000   0.10176   0.00000  Uiso   1.00
C805   C     0.99999   0.74999   0.89779   0.00000  Uiso   1.00
C806   C     0.50001   0.74999   0.10145   0.00000  Uiso   1.00
C807   C     0.97609   0.71916   0.45952   0.00000  Uiso   1.00
C808   C     0.52266   0.78162   0.54167   0.00000  Uiso   1.00
C809   C     0.78752   0.51020   0.45901   0.00000  Uiso   1.00
C810   C     0.71149   0.99375   0.54123   0.00000  Uiso   1.00
C811   C     0.52391   0.78084   0.45952   0.00000  Uiso   1.00
C812   C     0.75000   0.50000   0.85574   0.00000  Uiso   1.00
C813   C     0.97734   0.71838   0.54167   0.00000  Uiso   1.00
C814   C     0.71248   0.98980   0.45901   0.00000  Uiso   1.00
C815   C     0.78851   0.50625   0.54123   0.00000  Uiso   1.00
C816   C     0.75597   0.96144   0.95877   0.00000  Uiso   1.00
C817   C     0.73997   0.53757   0.04099   0.00000  Uiso   1.00
C818   C     0.53174   0.72749   0.95834   0.00000  Uiso   1.00
C819   C     0.96900   0.77366   0.04049   0.00000  Uiso   1.00
C820   C     0.74398   0.53854   0.95877   0.00000  Uiso   1.00
C821   C     0.75999   0.96242   0.04100   0.00000  Uiso   1.00
C822   C     0.96818   0.77240   0.95834   0.00000  Uiso   1.00
C823   C     0.75000   0.50000   0.14418   0.00000  Uiso   1.00
C824   C     0.53096   0.72621   0.04049   0.00000  Uiso   1.00
C825   C     0.50000   0.75000   0.48002   0.00000  Uiso   1.00
C826   C     0.50000   0.75000   0.52108   0.00000  Uiso   1.00
C827   C     0.75000   0.50000   0.47961   0.00000  Uiso   1.00
C828   C     0.75000   0.50000   0.52068   0.00000  Uiso   1.00
C829   C     0.74998   0.99999   0.97932   0.00000  Uiso   1.00
C830   C     0.74998   0.99999   0.02039   0.00000  Uiso   1.00
C831   C     0.99996   0.74994   0.97893   0.00000  Uiso   1.00
C832   C     0.99997   0.74994   0.01999   0.00000  Uiso   1.00
C833   C     0.95467   0.68720   0.48065   0.00000  Uiso   1.00
C834   C     0.67000   0.58001   0.24999   0.00000  Uiso   1.00
C835   C     0.54761   0.81088   0.52094   0.00000  Uiso   1.00
C836   C     0.82570   0.51567   0.47974   0.00000  Uiso   1.00
C837   C     0.67420   0.98412   0.52024   0.00000  Uiso   1.00
C838   C     0.54533   0.81280   0.48065   0.00000  Uiso   1.00
C839   C     0.95239   0.68912   0.52094   0.00000  Uiso   1.00
C840   C     0.67430   0.98433   0.47974   0.00000  Uiso   1.00
C841   C     0.82580   0.51588   0.52024   0.00000  Uiso   1.00
C842   C     0.76539   0.92410   0.97975   0.00000  Uiso   1.00
C843   C     0.73468   0.57577   0.02026   0.00000  Uiso   1.00
C844   C     0.56116   0.70273   0.97907   0.00000  Uiso   1.00
N845   N     0.58187   0.82041   0.37876   0.00000  Uiso   1.00
N846   N     0.80452   0.90708   0.12142   0.00000  Uiso   1.00
N847   N     0.89923   0.78730   0.87763   0.00000  Uiso   1.00
N848   N     0.57080   0.66846   0.12127   0.00000  Uiso   1.00
N849   N     0.74028   0.89341   0.87715   0.00000  Uiso   1.00
N850   N     0.69549   0.59293   0.12143   0.00000  Uiso   1.00
N851   N     0.60078   0.71272   0.87768   0.00000  Uiso   1.00
N852   N     0.92935   0.83167   0.12118   0.00000  Uiso   1.00
N853   N     0.92401   0.61943   0.44839   0.00000  Uiso   1.00
N854   N     0.60467   0.85738   0.55468   0.00000  Uiso   1.00
N855   N     0.89885   0.51757   0.44521   0.00000  Uiso   1.00
N856   N     0.96217   0.64940   0.62230   0.00000  Uiso   1.00
N857   N     0.60487   0.95934   0.55392   0.00000  Uiso   1.00
N858   N     0.57599   0.88057   0.44839   0.00000  Uiso   1.00
N859   N     0.89533   0.64262   0.55468   0.00000  Uiso   1.00
N860   N     0.60115   0.98243   0.44521   0.00000  Uiso   1.00
N861   N     0.89513   0.54066   0.55392   0.00000  Uiso   1.00
N862   N     0.78968   0.85461   0.94604   0.00000  Uiso   1.00
N863   N     0.73297   0.64894   0.05477   0.00000  Uiso   1.00
N864   N     0.60807   0.64601   0.94532   0.00000  Uiso   1.00
N865   N     0.86882   0.82478   0.05173   0.00000  Uiso   1.00
N866   N     0.71010   0.64531   0.94602   0.00000  Uiso   1.00
N867   N     0.65735   0.94500   0.37859   0.00000  Uiso   1.00
N868   N     0.76694   0.85106   0.05480   0.00000  Uiso   1.00
N869   N     0.89161   0.85370   0.94542   0.00000  Uiso   1.00
N870   N     0.63098   0.67469   0.05163   0.00000  Uiso   1.00
N871   N     0.85665   0.99117   0.62288   0.00000  Uiso   1.00
N872   N     0.91813   0.67959   0.37875   0.00000  Uiso   1.00
N873   N     0.53783   0.85060   0.62231   0.00000  Uiso   1.00
N874   N     0.84265   0.55500   0.37859   0.00000  Uiso   1.00
N875   N     0.64335   0.50883   0.62288   0.00000  Uiso   1.00
N876   N     0.75973   0.60660   0.87719   0.00000  Uiso   1.00
O877   O     0.75000   0.50000   0.25000   0.00000  Uiso   1.00
O878   O     0.75000   0.96538   0.66251   0.00000  Uiso   1.00
O879   O     0.96539   0.75000   0.33749   0.00000  Uiso   1.00
O880   O     0.53462   0.75000   0.66251   0.00000  Uiso   1.00
O881   O     0.50000   0.71538   0.83749   0.00000  Uiso   1.00
O882   O     0.50000   0.78461   0.16251   0.00000  Uiso   1.00
O883   O     0.78462   0.50000   0.83749   0.00000  Uiso   1.00
O884   O     0.71539   0.50000   0.16251   0.00000  Uiso   1.00
O885   O     0.50000   0.78461   0.83749   0.00000  Uiso   1.00
O886   O     0.50000   0.71538   0.16251   0.00000  Uiso   1.00
O887   O     0.71539   0.50000   0.83749   0.00000  Uiso   1.00
O888   O     0.75000   0.50000   0.75000   0.00000  Uiso   1.00
O889   O     0.78462   0.50000   0.16251   0.00000  Uiso   1.00
O890   O     0.70127   0.58332   0.27298   0.00000  Uiso   1.00
O891   O     0.79874   0.91668   0.72702   0.00000  Uiso   1.00
O892   O     0.91668   0.70126   0.27298   0.00000  Uiso   1.00
O893   O     0.58332   0.79873   0.72702   0.00000  Uiso   1.00
O894   O     0.79874   0.91668   0.27298   0.00000  Uiso   1.00
O895   O     0.70127   0.58332   0.72702   0.00000  Uiso   1.00
O896   O     0.58332   0.79873   0.27298   0.00000  Uiso   1.00
O897   O     0.91668   0.70126   0.72702   0.00000  Uiso   1.00
O898   O     0.70127   0.91668   0.72702   0.00000  Uiso   1.00
O899   O     0.50000   0.75000   0.25000   0.00000  Uiso   1.00
O900   O     0.79874   0.58332   0.27298   0.00000  Uiso   1.00
O901   O     0.91668   0.79873   0.72702   0.00000  Uiso   1.00
O902   O     0.58332   0.70126   0.27298   0.00000  Uiso   1.00
O903   O     0.79874   0.58332   0.72702   0.00000  Uiso   1.00
O904   O     0.70127   0.91668   0.27298   0.00000  Uiso   1.00
O905   O     0.58332   0.70126   0.72702   0.00000  Uiso   1.00
O906   O     0.91668   0.79873   0.27298   0.00000  Uiso   1.00
O907   O     0.95127   0.83332   0.77298   0.00000  Uiso   1.00
O908   O     0.54874   0.66668   0.22702   0.00000  Uiso   1.00
O909   O     0.66668   0.95126   0.77298   0.00000  Uiso   1.00
O910   O     0.50000   0.75000   0.75000   0.00000  Uiso   1.00
O911   O     0.83332   0.54873   0.22702   0.00000  Uiso   1.00
O912   O     0.54874   0.66668   0.77298   0.00000  Uiso   1.00
O913   O     0.95127   0.83332   0.22702   0.00000  Uiso   1.00
O914   O     0.83332   0.54873   0.77298   0.00000  Uiso   1.00
O915   O     0.66668   0.95126   0.22702   0.00000  Uiso   1.00
O916   O     0.95127   0.66668   0.22702   0.00000  Uiso   1.00
O917   O     0.54874   0.83332   0.77298   0.00000  Uiso   1.00
O918   O     0.66668   0.54873   0.22702   0.00000  Uiso   1.00
O919   O     0.83332   0.95126   0.77298   0.00000  Uiso   1.00
O920   O     0.54874   0.83332   0.22702   0.00000  Uiso   1.00
O921   O     0.75000   0.96538   0.33749   0.00000  Uiso   1.00
O922   O     0.95127   0.66668   0.77298   0.00000  Uiso   1.00
O923   O     0.83332   0.95126   0.22702   0.00000  Uiso   1.00
O924   O     0.66668   0.54873   0.77298   0.00000  Uiso   1.00
O925   O     0.75000   0.53461   0.66251   0.00000  Uiso   1.00
O926   O     0.53462   0.75000   0.33749   0.00000  Uiso   1.00
O927   O     0.96539   0.75000   0.66251   0.00000  Uiso   1.00
O928   O     0.75000   0.53461   0.33749   0.00000  Uiso   1.00
Zn929  Zn    0.70053   0.50000   0.21730   0.00000  Uiso   1.00
Zn930  Zn    0.54948   0.75000   0.28270   0.00000  Uiso   1.00
Zn931  Zn    0.75000   0.95052   0.71730   0.00000  Uiso   1.00
Zn932  Zn    0.75000   0.54947   0.28270   0.00000  Uiso   1.00
Zn933  Zn    0.54948   0.75000   0.71730   0.00000  Uiso   1.00
Zn934  Zn    0.95053   0.75000   0.28270   0.00000  Uiso   1.00
Zn935  Zn    0.75000   0.54947   0.71730   0.00000  Uiso   1.00
Zn936  Zn    0.75000   0.95052   0.28270   0.00000  Uiso   1.00
Zn937  Zn    0.79948   0.50000   0.78270   0.00000  Uiso   1.00
Zn938  Zn    0.50000   0.70052   0.21730   0.00000  Uiso   1.00
Zn939  Zn    0.50000   0.79947   0.78270   0.00000  Uiso   1.00
Zn940  Zn    0.79948   0.50000   0.21730   0.00000  Uiso   1.00
Zn941  Zn    0.70053   0.50000   0.78270   0.00000  Uiso   1.00
Zn942  Zn    0.50000   0.79947   0.21730   0.00000  Uiso   1.00
Zn943  Zn    0.50000   0.70052   0.78270   0.00000  Uiso   1.00
Zn944  Zn    0.95053   0.75000   0.71730   0.00000  Uiso   1.00
loop_
_geom_bond_atom_site_label_1
_geom_bond_atom_site_label_2
_geom_bond_distance
_geom_bond_site_symmetry_2
_ccdc_geom_bond_type
C1     C92     1.469   .     S
C1     O220    1.270   .     A
C1     O685    1.270   1_545 S
C2     O211    1.277   .     A
C2     C68     1.422   .     S
C2     O183    1.277   .     A
C3     C38     1.456   .     S
C3     C111    1.424   .     A
C3     C6      1.398   1_554 S
C4     C112    1.423   .     A
C4     C39     1.456   .     S
C4     C135    1.403   1_556 S
C5     C113    1.420   .     A
C5     C40     1.456   .     S
C5     C134    1.403   1_554 S
C6     C114    1.417   .     A
C6     C41     1.456   .     S
C6     C3      1.398   1_556 S
C7     C42     1.456   .     S
C7     C116    1.424   .     A
C7     C136    1.398   1_554 S
C8     C73     1.455   .     S
C8     N137    1.158   .     T
C9     C74     1.455   .     S
C9     N148    1.158   .     T
C10    N159    1.158   .     T
C10    C75     1.454   .     S
C11    N163    1.158   .     T
C11    C548    1.454   .     S
C12    N164    1.158   .     T
C12    C77     1.455   .     S
C13    O208    1.277   .     A
C13    O184    1.277   .     A
C13    C67     1.422   .     S
C14    N165    1.158   .     T
C14    C78     1.455   .     S
C15    C79     1.454   .     S
C15    N166    1.158   .     T
C16    N167    1.158   .     T
C16    C552    1.454   1_545 S
C17    N168    1.158   .     T
C17    C81     1.454   .     S
C18    C83     1.454   .     S
C18    N138    1.158   .     T
C19    C84     1.455   .     S
C19    N139    1.158   .     T
C20    C85     1.455   .     S
C20    N140    1.158   .     T
C21    C86     1.454   .     S
C21    N141    1.158   .     T
C22    N142    1.158   .     T
C22    C87     1.454   .     S
C23    N143    1.158   .     T
C23    C88     1.455   .     S
C24    C66     1.422   .     S
C24    O185    1.277   .     A
C24    O209    1.277   .     A
C25    N144    1.158   .     T
C25    C89     1.455   .     S
C26    C125    1.456   .     S
C26    N145    1.158   .     T
C27    C127    1.456   .     S
C27    N146    1.158   .     T
C28    N147    1.158   .     T
C28    C128    1.456   .     S
C29    C129    1.456   .     S
C29    N149    1.158   .     T
C30    N150    1.158   .     T
C30    C130    1.456   .     S
C31    C131    1.456   .     S
C31    N151    1.158   .     T
C32    N152    1.158   .     T
C32    C132    1.456   .     S
C33    N153    1.158   .     T
C33    C133    1.456   .     S
C34    C134    1.456   .     S
C34    N154    1.158   .     T
C35    O186    1.277   .     A
C35    C65     1.422   .     S
C35    O215    1.277   .     A
C36    C135    1.456   .     S
C36    N155    1.158   .     T
C37    N156    1.158   .     T
C37    C136    1.456   .     S
C38    N157    1.158   .     T
C39    N158    1.158   .     T
C40    N160    1.158   .     T
C41    N161    1.158   .     T
C42    N162    1.158   .     T
C43    O216    1.277   .     A
C43    C64     1.422   .     S
C43    O187    1.277   .     A
C44    C72     1.422   .     S
C44    O188    1.277   .     A
C44    O212    1.277   .     A
C45    C70     1.422   .     S
C45    O214    1.277   .     A
C45    O189    1.277   .     A
C46    O201    1.277   .     A
C46    O190    1.277   .     A
C46    C61     1.422   .     S
C47    O192    1.277   .     A
C47    C59     1.422   .     S
C47    O203    1.277   .     A
C48    O193    1.277   .     A
C48    O199    1.277   .     A
C48    C58     1.422   .     S
C49    C94     1.466   .     S
C49    O642    1.268   1_545 A
C49    O217    1.268   .     S
C50    O194    1.277   .     A
C50    O200    1.277   .     A
C50    C57     1.422   .     S
C51    O206    1.277   .     A
C51    C56     1.422   .     S
C51    O195    1.277   .     A
C52    O196    1.277   .     A
C52    O207    1.277   .     A
C52    C55     1.422   .     S
C53    O204    1.277   .     A
C53    O197    1.277   .     A
C53    C63     1.422   .     S
C54    O205    1.277   .     A
C54    C62     1.422   .     S
C54    O198    1.277   .     A
C55    C72     1.198   .     T
C56    C70     1.198   .     T
C57    C69     1.198   .     T
C58    C68     1.198   .     T
C59    C67     1.198   .     T
C60    O218    1.272   .     A
C60    C90     1.476   .     S
C60    O407    1.272   1_455 S
C61    C66     1.198   .     T
C62    C65     1.198   .     T
C63    C64     1.198   .     T
C69    C126    1.422   .     S
C71    O455    1.267   1_455 A
C71    C91     1.459   .     S
C71    O172    1.267   .     S
C73    C90     1.406   .     A
C73    C103    1.420   .     A
C74    C327    1.397   .     A
C74    C105    1.417   .     A
C75    C106    1.421   .     A
C75    C564    1.401   .     S
C76    C107    1.422   .     A
C76    C483    1.454   1_545 S
C76    C94     1.399   .     S
C77    C99     1.420   .     A
C77    C326    1.406   .     S
C78    C100    1.417   .     A
C78    C91     1.397   .     S
C79    C92     1.401   .     A
C79    C101    1.421   .     A
C80    C102    1.422   .     A
C80    C566    1.399   .     A
C80    C488    1.454   .     S
C81    C112    1.422   .     A
C81    C95     1.399   .     S
C82    O173    1.267   .     A
C82    O177    1.267   .     A
C82    C333    1.459   1_455 S
C83    C113    1.421   .     A
C83    C568    1.401   .     S
C84    C97     1.397   .     A
C84    C114    1.418   .     A
C85    C98     1.406   .     A
C85    C116    1.421   .     A
C86    C108    1.422   .     A
C86    C567    1.399   .     A
C87    C96     1.401   .     A
C87    C109    1.421   .     A
C88    C110    1.417   .     A
C88    C333    1.397   1_455 S
C89    C111    1.420   .     A
C89    C334    1.406   .     S
C90    C313    1.406   1_455 S
C91    C310    1.397   1_455 A
C92    C547    1.401   1_545 S
C93    O174    1.272   .     A
C93    O178    1.272   .     A
C93    C98     1.476   .     S
C94    C552    1.399   1_545 A
C95    C558    1.399   1_545 A
C95    C104    1.466   .     S
C96    C115    1.469   .     S
C96    C555    1.401   1_545 S
C97    C324    1.397   .     S
C97    C318    1.459   .     S
C98    C325    1.406   1_455 S
C99    C125    1.424   .     A
C99    C353    1.429   .     A
C100   C127    1.417   .     A
C100   C118    1.427   .     S
C101   C128    1.420   .     A
C101   C119    1.426   .     A
C102   C129    1.423   .     A
C102   C592    1.429   .     S
C103   C130    1.424   .     A
C103   C117    1.429   .     S
C104   O175    1.268   .     A
C104   O179    1.268   .     A
C105   C131    1.417   .     A
C105   C354    1.427   .     A
C106   C132    1.420   .     A
C106   C591    1.426   .     S
C107   C120    1.429   .     A
C107   C133    1.423   .     A
C108   C121    1.429   .     A
C108   C134    1.423   .     A
C109   C135    1.420   .     A
C109   C594    1.426   1_545 S
C110   C136    1.417   .     A
C110   C359    1.427   1_455 S
C111   C124    1.428   .     A
C112   C593    1.429   1_545 S
C113   C122    1.426   .     A
C114   C123    1.427   .     A
C115   O181    1.270   .     A
C115   O176    1.270   .     A
C116   C360    1.429   1_455 S
C117   C335    1.429   1_455 A
C117   C118    1.422   .     A
C118   C341    1.427   1_455 A
C119   C120    1.422   .     A
C119   C578    1.426   1_545 S
C120   C574    1.429   1_545 S
C121   C584    1.429   .     S
C121   C122    1.422   1_556 S
C122   C581    1.426   .     S
C122   C121    1.422   1_554 S
C123   C346    1.427   .     S
C123   C124    1.422   1_556 S
C124   C352    1.429   .     S
C124   C123    1.422   1_554 S
C125   C131    1.398   .     A
C126   O210    1.277   .     A
C126   O182    1.277   .     A
C127   C130    1.398   .     A
C128   C133    1.403   .     A
C129   C132    1.403   .     A
C134   C5      1.403   1_556 S
C135   C4      1.403   1_554 S
C136   C7      1.398   1_556 S
O169   Zn224   1.937   .     S
O169   Zn221   1.937   .     S
O169   Zn232   1.937   .     S
O169   Zn700   1.937   1_545 S
O170   C521    1.268   .     A
O170   Zn223   1.955   .     S
O171   Zn226   1.955   .     S
O171   C296    1.272   .     S
O172   Zn225   1.955   .     S
O173   Zn235   1.955   .     S
O174   Zn234   1.955   .     S
O175   Zn229   1.955   .     S
O176   Zn221   1.955   .     S
O177   Zn231   1.955   .     S
O178   Zn230   1.955   .     S
O179   Zn233   1.955   .     S
O180   Zn229   1.937   .     S
O180   Zn227   1.937   .     S
O180   Zn233   1.937   .     S
O180   Zn695   1.937   1_545 S
O181   Zn232   1.955   .     S
O182   Zn224   1.915   .     S
O183   Zn223   1.915   .     S
O184   Zn226   1.915   .     S
O185   Zn225   1.915   .     S
O186   Zn228   1.915   .     S
O187   Zn227   1.915   .     S
O188   Zn222   1.915   .     S
O189   Zn236   1.915   .     S
O190   Zn223   1.915   .     S
O191   Zn234   1.937   .     S
O191   Zn230   1.937   .     S
O191   Zn222   1.937   .     S
O191   Zn462   1.937   1_455 S
O192   Zn224   1.915   .     S
O193   Zn236   1.915   .     S
O194   Zn222   1.915   .     S
O195   Zn227   1.915   .     S
O196   Zn228   1.915   .     S
O197   Zn225   1.915   .     S
O198   Zn226   1.915   .     S
O199   Zn467   1.915   .     S
O200   Zn230   1.915   .     S
O201   Zn705   1.915   .     S
O202   Zn235   1.937   .     S
O202   Zn225   1.937   .     S
O202   Zn231   1.937   .     S
O202   Zn472   1.937   1_455 S
O203   Zn232   1.915   .     S
O204   Zn235   1.915   .     S
O205   Zn470   1.915   .     S
O206   Zn229   1.915   .     S
O207   Zn693   1.915   .     S
O208   Zn466   1.915   .     S
O209   Zn231   1.915   .     S
O210   Zn221   1.915   .     S
O211   Zn701   1.915   .     S
O212   Zn234   1.915   .     S
O213   Zn228   1.955   .     S
O213   C473    1.270   .     S
O214   Zn471   1.915   .     S
O215   Zn704   1.915   .     S
O216   Zn233   1.915   .     S
O217   Zn227   1.955   .     S
O218   Zn222   1.955   .     S
O219   C307    1.267   .     A
O219   Zn236   1.955   .     S
O220   Zn224   1.955   .     S
Zn221  O679    1.915   1_545 S
Zn223  O652    1.937   .     S
Zn226  O427    1.937   .     S
Zn228  O641    1.937   .     S
Zn229  O683    1.915   1_545 S
Zn230  O444    1.915   1_455 S
Zn231  O435    1.915   1_455 S
Zn232  O687    1.915   1_545 S
Zn233  O673    1.915   1_545 S
Zn234  O441    1.915   1_455 S
Zn235  O450    1.915   1_455 S
Zn236  O438    1.937   .     S
C237   C328    1.469   .     S
C237   O456    1.270   .     A
C237   O921    1.270   1_545 S
C238   O447    1.277   .     A
C238   C304    1.422   .     S
C238   O419    1.277   .     A
C239   C274    1.456   .     S
C239   C347    1.424   .     A
C239   C242    1.398   1_554 S
C240   C348    1.423   .     A
C240   C275    1.456   .     S
C240   C371    1.403   1_556 S
C241   C349    1.420   .     A
C241   C276    1.456   .     S
C241   C370    1.403   1_554 S
C242   C350    1.417   .     A
C242   C277    1.456   .     S
C242   C239    1.398   1_556 S
C243   C278    1.456   .     S
C243   C352    1.424   .     A
C243   C372    1.398   1_554 S
C244   C309    1.455   .     S
C244   N373    1.158   .     T
C245   C310    1.455   .     S
C245   N384    1.158   .     T
C246   N395    1.158   .     T
C246   C311    1.454   .     S
C247   N399    1.158   .     T
C247   C784    1.454   .     S
C248   N400    1.158   .     T
C248   C313    1.455   .     S
C249   O444    1.277   .     A
C249   O420    1.277   .     A
C249   C303    1.422   .     S
C250   N401    1.158   .     T
C250   C314    1.455   .     S
C251   C315    1.454   .     S
C251   N402    1.158   .     T
C252   N403    1.158   .     T
C252   C788    1.454   1_545 S
C253   N404    1.158   .     T
C253   C317    1.454   .     S
C254   C319    1.454   .     S
C254   N374    1.158   .     T
C255   C320    1.455   .     S
C255   N375    1.158   .     T
C256   C321    1.455   .     S
C256   N376    1.158   .     T
C257   C322    1.454   .     S
C257   N377    1.158   .     T
C258   N378    1.158   .     T
C258   C323    1.454   .     S
C259   N379    1.158   .     T
C259   C324    1.455   .     S
C260   C302    1.422   .     S
C260   O421    1.277   .     A
C260   O445    1.277   .     A
C261   N380    1.158   .     T
C261   C325    1.455   .     S
C262   C361    1.456   .     S
C262   N381    1.158   .     T
C263   C363    1.456   .     S
C263   N382    1.158   .     T
C264   N383    1.158   .     T
C264   C364    1.456   .     S
C265   C365    1.456   .     S
C265   N385    1.158   .     T
C266   N386    1.158   .     T
C266   C366    1.456   .     S
C267   C367    1.456   .     S
C267   N387    1.158   .     T
C268   N388    1.158   .     T
C268   C368    1.456   .     S
C269   N389    1.158   .     T
C269   C369    1.456   .     S
C270   C370    1.456   .     S
C270   N390    1.158   .     T
C271   O422    1.277   .     A
C271   C301    1.422   .     S
C271   O451    1.277   .     A
C272   C371    1.456   .     S
C272   N391    1.158   .     T
C273   N392    1.158   .     T
C273   C372    1.456   .     S
C274   N393    1.158   .     T
C275   N394    1.158   .     T
C276   N396    1.158   .     T
C277   N397    1.158   .     T
C278   N398    1.158   .     T
C279   O452    1.277   .     A
C279   C300    1.422   .     S
C279   O423    1.277   .     A
C280   C308    1.422   .     S
C280   O424    1.277   .     A
C280   O448    1.277   .     A
C281   C306    1.422   .     S
C281   O450    1.277   .     A
C281   O425    1.277   .     A
C282   O437    1.277   .     A
C282   O426    1.277   .     A
C282   C297    1.422   .     S
C283   O428    1.277   .     A
C283   C295    1.422   .     S
C283   O439    1.277   .     A
C284   O429    1.277   .     A
C284   O435    1.277   .     A
C284   C294    1.422   .     S
C285   C330    1.466   .     S
C285   O878    1.268   1_545 A
C285   O453    1.268   .     S
C286   O430    1.277   .     A
C286   O436    1.277   .     A
C286   C293    1.422   .     S
C287   O442    1.277   .     A
C287   C292    1.422   .     S
C287   O431    1.277   .     A
C288   O432    1.277   .     A
C288   O443    1.277   .     A
C288   C291    1.422   .     S
C289   O440    1.277   .     A
C289   O433    1.277   .     A
C289   C299    1.422   .     S
C290   O441    1.277   .     A
C290   C298    1.422   .     S
C290   O434    1.277   .     A
C291   C308    1.198   .     T
C292   C306    1.198   .     T
C293   C305    1.198   .     T
C294   C304    1.198   .     T
C295   C303    1.198   .     T
C296   O454    1.272   .     A
C296   C326    1.476   .     S
C297   C302    1.198   .     T
C298   C301    1.198   .     T
C299   C300    1.198   .     T
C305   C362    1.422   .     S
C307   C327    1.459   .     S
C307   O408    1.267   .     S
C309   C326    1.406   .     A
C309   C339    1.420   .     A
C310   C91     1.397   1_655 A
C310   C341    1.417   .     A
C311   C342    1.421   .     A
C311   C800    1.401   .     S
C312   C343    1.422   .     A
C312   C719    1.454   1_545 S
C312   C330    1.399   .     S
C313   C335    1.420   .     A
C313   C90     1.406   1_655 S
C314   C336    1.417   .     A
C314   C327    1.397   .     S
C315   C328    1.401   .     A
C315   C337    1.421   .     A
C316   C338    1.422   .     A
C316   C802    1.399   .     A
C316   C724    1.454   .     S
C317   C348    1.422   .     A
C317   C331    1.399   .     S
C318   O409    1.267   .     A
C318   O413    1.267   .     A
C319   C349    1.421   .     A
C319   C804    1.401   .     S
C320   C333    1.397   .     A
C320   C350    1.418   .     A
C321   C334    1.406   .     A
C321   C352    1.421   .     A
C322   C344    1.422   .     A
C322   C803    1.399   .     A
C323   C332    1.401   .     A
C323   C345    1.421   .     A
C324   C346    1.417   .     A
C325   C347    1.420   .     A
C325   C98     1.406   1_655 S
C328   C783    1.401   1_545 S
C329   O410    1.272   .     A
C329   O414    1.272   .     A
C329   C334    1.476   .     S
C330   C788    1.399   1_545 A
C331   C794    1.399   1_545 A
C331   C340    1.466   .     S
C332   C351    1.469   .     S
C332   C791    1.401   1_545 S
C333   C88     1.397   1_655 S
C333   C82     1.459   1_655 S
C335   C361    1.424   .     A
C335   C117    1.429   1_655 A
C336   C363    1.417   .     A
C336   C354    1.427   .     S
C337   C364    1.420   .     A
C337   C355    1.426   .     A
C338   C365    1.423   .     A
C338   C828    1.429   .     S
C339   C366    1.424   .     A
C339   C353    1.429   .     S
C340   O411    1.268   .     A
C340   O415    1.268   .     A
C341   C367    1.417   .     A
C341   C118    1.427   1_655 A
C342   C368    1.420   .     A
C342   C827    1.426   .     S
C343   C356    1.429   .     A
C343   C369    1.423   .     A
C344   C357    1.429   .     A
C344   C370    1.423   .     A
C345   C371    1.420   .     A
C345   C830    1.426   1_545 S
C346   C372    1.417   .     A
C347   C360    1.428   .     A
C348   C829    1.429   1_545 S
C349   C358    1.426   .     A
C350   C359    1.427   .     A
C351   O417    1.270   .     A
C351   O412    1.270   .     A
C353   C354    1.422   .     A
C355   C356    1.422   .     A
C355   C814    1.426   1_545 S
C356   C810    1.429   1_545 S
C357   C820    1.429   .     S
C357   C358    1.422   1_556 S
C358   C817    1.426   .     S
C358   C357    1.422   1_554 S
C359   C110    1.427   1_655 S
C359   C360    1.422   1_556 S
C360   C116    1.429   1_655 S
C360   C359    1.422   1_554 S
C361   C367    1.398   .     A
C362   O446    1.277   .     A
C362   O418    1.277   .     A
C363   C366    1.398   .     A
C364   C369    1.403   .     A
C365   C368    1.403   .     A
C370   C241    1.403   1_556 S
C371   C240    1.403   1_554 S
C372   C243    1.398   1_556 S
O405   Zn460   1.937   .     S
O405   Zn457   1.937   .     S
O405   Zn468   1.937   .     S
O405   Zn936   1.937   1_545 S
O406   C757    1.268   .     A
O406   Zn459   1.955   .     S
O407   Zn462   1.955   .     S
O407   C60     1.272   1_655 S
O408   Zn461   1.955   .     S
O409   Zn471   1.955   .     S
O410   Zn470   1.955   .     S
O411   Zn465   1.955   .     S
O412   Zn457   1.955   .     S
O413   Zn467   1.955   .     S
O414   Zn466   1.955   .     S
O415   Zn469   1.955   .     S
O416   Zn465   1.937   .     S
O416   Zn463   1.937   .     S
O416   Zn469   1.937   .     S
O416   Zn931   1.937   1_545 S
O417   Zn468   1.955   .     S
O418   Zn460   1.915   .     S
O419   Zn459   1.915   .     S
O420   Zn462   1.915   .     S
O421   Zn461   1.915   .     S
O422   Zn464   1.915   .     S
O423   Zn463   1.915   .     S
O424   Zn458   1.915   .     S
O425   Zn472   1.915   .     S
O426   Zn459   1.915   .     S
O427   Zn470   1.937   .     S
O427   Zn466   1.937   .     S
O427   Zn458   1.937   .     S
O428   Zn460   1.915   .     S
O429   Zn472   1.915   .     S
O430   Zn458   1.915   .     S
O431   Zn463   1.915   .     S
O432   Zn464   1.915   .     S
O433   Zn461   1.915   .     S
O434   Zn462   1.915   .     S
O435   Zn231   1.915   1_655 S
O436   Zn466   1.915   .     S
O437   Zn941   1.915   .     S
O438   Zn471   1.937   .     S
O438   Zn461   1.937   .     S
O438   Zn467   1.937   .     S
O439   Zn468   1.915   .     S
O440   Zn471   1.915   .     S
O441   Zn234   1.915   1_655 S
O442   Zn465   1.915   .     S
O443   Zn929   1.915   .     S
O444   Zn230   1.915   1_655 S
O445   Zn467   1.915   .     S
O446   Zn457   1.915   .     S
O447   Zn937   1.915   .     S
O448   Zn470   1.915   .     S
O449   Zn464   1.955   .     S
O449   C709    1.270   .     S
O450   Zn235   1.915   1_655 S
O451   Zn940   1.915   .     S
O452   Zn469   1.915   .     S
O453   Zn463   1.955   .     S
O454   Zn458   1.955   .     S
O455   C71     1.267   1_655 A
O455   Zn472   1.955   .     S
O456   Zn460   1.955   .     S
Zn457  O915    1.915   1_545 S
Zn459  O888    1.937   .     S
Zn462  O191    1.937   1_655 S
Zn464  O877    1.937   .     S
Zn465  O919    1.915   1_545 S
Zn468  O923    1.915   1_545 S
Zn469  O909    1.915   1_545 S
Zn472  O202    1.937   1_655 S
C473   C564    1.469   .     S
C473   O692    1.270   .     A
C474   O683    1.277   .     A
C474   C540    1.422   .     S
C474   O655    1.277   .     A
C475   C510    1.456   .     S
C475   C583    1.424   .     A
C475   C478    1.398   1_554 S
C476   C584    1.423   .     A
C476   C511    1.456   .     S
C476   C607    1.403   1_556 S
C477   C585    1.420   .     A
C477   C512    1.456   .     S
C477   C606    1.403   1_554 S
C478   C586    1.417   .     A
C478   C513    1.456   .     S
C478   C475    1.398   1_556 S
C479   C514    1.456   .     S
C479   C588    1.424   .     A
C479   C608    1.398   1_554 S
C480   C545    1.455   .     S
C480   N609    1.158   .     T
C481   C546    1.455   .     S
C481   N620    1.158   .     T
C482   N631    1.158   .     T
C482   C547    1.454   .     S
C483   N635    1.158   .     T
C483   C76     1.454   1_565 S
C484   N636    1.158   .     T
C484   C549    1.455   .     S
C485   O680    1.277   .     A
C485   O656    1.277   .     A
C485   C539    1.422   .     S
C486   N637    1.158   .     T
C486   C550    1.455   .     S
C487   C551    1.454   .     S
C487   N638    1.158   .     T
C488   N639    1.158   .     T
C489   N640    1.158   .     T
C489   C553    1.454   .     S
C490   C555    1.454   .     S
C490   N610    1.158   .     T
C491   C556    1.455   .     S
C491   N611    1.158   .     T
C492   C557    1.455   .     S
C492   N612    1.158   .     T
C493   C558    1.454   .     S
C493   N613    1.158   .     T
C494   N614    1.158   .     T
C494   C559    1.454   .     S
C495   N615    1.158   .     T
C495   C560    1.455   .     S
C496   C538    1.422   .     S
C496   O657    1.277   .     A
C496   O681    1.277   .     A
C497   N616    1.158   .     T
C497   C561    1.455   .     S
C498   C597    1.456   .     S
C498   N617    1.158   .     T
C499   C599    1.456   .     S
C499   N618    1.158   .     T
C500   N619    1.158   .     T
C500   C600    1.456   .     S
C501   C601    1.456   .     S
C501   N621    1.158   .     T
C502   N622    1.158   .     T
C502   C602    1.456   .     S
C503   C603    1.456   .     S
C503   N623    1.158   .     T
C504   N624    1.158   .     T
C504   C604    1.456   .     S
C505   N625    1.158   .     T
C505   C605    1.456   .     S
C506   C606    1.456   .     S
C506   N626    1.158   .     T
C507   O658    1.277   .     A
C507   C537    1.422   .     S
C507   O687    1.277   .     A
C508   C607    1.456   .     S
C508   N627    1.158   .     T
C509   N628    1.158   .     T
C509   C608    1.456   .     S
C510   N629    1.158   .     T
C511   N630    1.158   .     T
C512   N632    1.158   .     T
C513   N633    1.158   .     T
C514   N634    1.158   .     T
C515   O688    1.277   .     A
C515   C536    1.422   .     S
C515   O659    1.277   .     A
C516   C544    1.422   .     S
C516   O660    1.277   .     A
C516   O684    1.277   .     A
C517   C542    1.422   .     S
C517   O686    1.277   .     A
C517   O661    1.277   .     A
C518   O673    1.277   .     A
C518   O662    1.277   .     A
C518   C533    1.422   .     S
C519   O664    1.277   .     A
C519   C531    1.422   .     S
C519   O675    1.277   .     A
C520   O665    1.277   .     A
C520   O671    1.277   .     A
C520   C530    1.422   .     S
C521   C566    1.466   .     S
C521   O689    1.268   .     S
C522   O666    1.277   .     A
C522   O672    1.277   .     A
C522   C529    1.422   .     S
C523   O678    1.277   .     A
C523   C528    1.422   .     S
C523   O667    1.277   .     A
C524   O668    1.277   .     A
C524   O679    1.277   .     A
C524   C527    1.422   .     S
C525   O676    1.277   .     A
C525   O669    1.277   .     A
C525   C535    1.422   .     S
C526   O677    1.277   .     A
C526   C534    1.422   .     S
C526   O670    1.277   .     A
C527   C544    1.198   .     T
C528   C542    1.198   .     T
C529   C541    1.198   .     T
C530   C540    1.198   .     T
C531   C539    1.198   .     T
C532   O690    1.272   .     A
C532   C562    1.476   .     S
C532   O879    1.272   1_455 S
C533   C538    1.198   .     T
C534   C537    1.198   .     T
C535   C536    1.198   .     T
C541   C598    1.422   .     S
C543   O927    1.267   1_455 A
C543   C563    1.459   .     S
C543   O644    1.267   .     S
C545   C562    1.406   .     A
C545   C575    1.420   .     A
C546   C799    1.397   .     A
C546   C577    1.417   .     A
C547   C578    1.421   .     A
C547   C92     1.401   1_565 S
C548   C579    1.422   .     A
C548   C566    1.399   .     S
C549   C571    1.420   .     A
C549   C798    1.406   .     S
C550   C572    1.417   .     A
C550   C563    1.397   .     S
C551   C564    1.401   .     A
C551   C573    1.421   .     A
C552   C574    1.422   .     A
C552   C94     1.399   1_565 A
C552   C16     1.454   1_565 S
C553   C584    1.422   .     A
C553   C567    1.399   .     S
C554   O645    1.267   .     A
C554   O649    1.267   .     A
C554   C805    1.459   1_455 S
C555   C585    1.421   .     A
C555   C96     1.401   1_565 S
C556   C569    1.397   .     A
C556   C586    1.418   .     A
C557   C570    1.406   .     A
C557   C588    1.421   .     A
C558   C580    1.422   .     A
C558   C95     1.399   1_565 A
C559   C568    1.401   .     A
C559   C581    1.421   .     A
C560   C582    1.417   .     A
C560   C805    1.397   1_455 S
C561   C583    1.420   .     A
C561   C806    1.406   .     S
C562   C785    1.406   1_455 S
C563   C782    1.397   1_455 A
C565   O646    1.272   .     A
C565   O650    1.272   .     A
C565   C570    1.476   .     S
C567   C576    1.466   .     S
C568   C587    1.469   .     S
C569   C796    1.397   .     S
C569   C790    1.459   .     S
C570   C797    1.406   1_455 S
C571   C597    1.424   .     A
C571   C825    1.429   .     A
C572   C599    1.417   .     A
C572   C590    1.427   .     S
C573   C600    1.420   .     A
C573   C591    1.426   .     A
C574   C601    1.423   .     A
C574   C120    1.429   1_565 S
C575   C602    1.424   .     A
C575   C589    1.429   .     S
C576   O647    1.268   .     A
C576   O651    1.268   .     A
C577   C603    1.417   .     A
C577   C826    1.427   .     A
C578   C604    1.420   .     A
C578   C119    1.426   1_565 S
C579   C592    1.429   .     A
C579   C605    1.423   .     A
C580   C593    1.429   .     A
C580   C606    1.423   .     A
C581   C607    1.420   .     A
C582   C608    1.417   .     A
C582   C831    1.427   1_455 S
C583   C596    1.428   .     A
C585   C594    1.426   .     A
C586   C595    1.427   .     A
C587   O653    1.270   .     A
C587   O648    1.270   .     A
C588   C832    1.429   1_455 S
C589   C807    1.429   1_455 A
C589   C590    1.422   .     A
C590   C813    1.427   1_455 A
C591   C592    1.422   .     A
C593   C112    1.429   1_565 S
C593   C594    1.422   1_556 S
C594   C109    1.426   1_565 S
C594   C593    1.422   1_554 S
C595   C818    1.427   .     S
C595   C596    1.422   1_556 S
C596   C824    1.429   .     S
C596   C595    1.422   1_554 S
C597   C603    1.398   .     A
C598   O682    1.277   .     A
C598   O654    1.277   .     A
C599   C602    1.398   .     A
C600   C605    1.403   .     A
C601   C604    1.403   .     A
C606   C477    1.403   1_556 S
C607   C476    1.403   1_554 S
C608   C479    1.398   1_556 S
O641   Zn696   1.937   .     S
O641   Zn693   1.937   .     S
O641   Zn704   1.937   .     S
O642   C49     1.268   1_565 A
O642   Zn695   1.955   .     S
O643   Zn698   1.955   .     S
O643   C768    1.272   .     S
O644   Zn697   1.955   .     S
O645   Zn707   1.955   .     S
O646   Zn706   1.955   .     S
O647   Zn701   1.955   .     S
O648   Zn693   1.955   .     S
O649   Zn703   1.955   .     S
O650   Zn702   1.955   .     S
O651   Zn705   1.955   .     S
O652   Zn701   1.937   .     S
O652   Zn699   1.937   .     S
O652   Zn705   1.937   .     S
O653   Zn704   1.955   .     S
O654   Zn696   1.915   .     S
O655   Zn695   1.915   .     S
O656   Zn698   1.915   .     S
O657   Zn697   1.915   .     S
O658   Zn700   1.915   .     S
O659   Zn699   1.915   .     S
O660   Zn694   1.915   .     S
O661   Zn708   1.915   .     S
O662   Zn695   1.915   .     S
O663   Zn706   1.937   .     S
O663   Zn702   1.937   .     S
O663   Zn694   1.937   .     S
O663   Zn934   1.937   1_455 S
O664   Zn696   1.915   .     S
O665   Zn708   1.915   .     S
O666   Zn694   1.915   .     S
O667   Zn699   1.915   .     S
O668   Zn700   1.915   .     S
O669   Zn697   1.915   .     S
O670   Zn698   1.915   .     S
O671   Zn939   1.915   .     S
O672   Zn702   1.915   .     S
O673   Zn233   1.915   1_565 S
O674   Zn707   1.937   .     S
O674   Zn697   1.937   .     S
O674   Zn703   1.937   .     S
O674   Zn944   1.937   1_455 S
O675   Zn704   1.915   .     S
O676   Zn707   1.915   .     S
O677   Zn942   1.915   .     S
O678   Zn701   1.915   .     S
O679   Zn221   1.915   1_565 S
O680   Zn938   1.915   .     S
O681   Zn703   1.915   .     S
O682   Zn693   1.915   .     S
O683   Zn229   1.915   1_565 S
O684   Zn706   1.915   .     S
O685   Zn700   1.955   .     S
O685   C1      1.270   1_565 S
O686   Zn943   1.915   .     S
O687   Zn232   1.915   1_565 S
O688   Zn705   1.915   .     S
O689   Zn699   1.955   .     S
O690   Zn694   1.955   .     S
O691   C779    1.267   .     A
O691   Zn708   1.955   .     S
O692   Zn696   1.955   .     S
Zn695  O180    1.937   1_565 S
Zn698  O899    1.937   .     S
Zn700  O169    1.937   1_565 S
Zn702  O916    1.915   1_455 S
Zn703  O907    1.915   1_455 S
Zn706  O913    1.915   1_455 S
Zn707  O922    1.915   1_455 S
Zn708  O910    1.937   .     S
C709   C800    1.469   .     S
C709   O928    1.270   .     A
C710   O919    1.277   .     A
C710   C776    1.422   .     S
C710   O891    1.277   .     A
C711   C746    1.456   .     S
C711   C819    1.424   .     A
C711   C714    1.398   1_554 S
C712   C820    1.423   .     A
C712   C747    1.456   .     S
C712   C843    1.403   1_556 S
C713   C821    1.420   .     A
C713   C748    1.456   .     S
C713   C842    1.403   1_554 S
C714   C822    1.417   .     A
C714   C749    1.456   .     S
C714   C711    1.398   1_556 S
C715   C750    1.456   .     S
C715   C824    1.424   .     A
C715   C844    1.398   1_554 S
C716   C781    1.455   .     S
C716   N845    1.158   .     T
C717   C782    1.455   .     S
C717   N856    1.158   .     T
C718   N867    1.158   .     T
C718   C783    1.454   .     S
C719   N871    1.158   .     T
C719   C312    1.454   1_565 S
C720   N872    1.158   .     T
C720   C785    1.455   .     S
C721   O916    1.277   .     A
C721   O892    1.277   .     A
C721   C775    1.422   .     S
C722   N873    1.158   .     T
C722   C786    1.455   .     S
C723   C787    1.454   .     S
C723   N874    1.158   .     T
C724   N875    1.158   .     T
C725   N876    1.158   .     T
C725   C789    1.454   .     S
C726   C791    1.454   .     S
C726   N846    1.158   .     T
C727   C792    1.455   .     S
C727   N847    1.158   .     T
C728   C793    1.455   .     S
C728   N848    1.158   .     T
C729   C794    1.454   .     S
C729   N849    1.158   .     T
C730   N850    1.158   .     T
C730   C795    1.454   .     S
C731   N851    1.158   .     T
C731   C796    1.455   .     S
C732   C774    1.422   .     S
C732   O893    1.277   .     A
C732   O917    1.277   .     A
C733   N852    1.158   .     T
C733   C797    1.455   .     S
C734   C833    1.456   .     S
C734   N853    1.158   .     T
C735   C835    1.456   .     S
C735   N854    1.158   .     T
C736   N855    1.158   .     T
C736   C836    1.456   .     S
C737   C837    1.456   .     S
C737   N857    1.158   .     T
C738   N858    1.158   .     T
C738   C838    1.456   .     S
C739   C839    1.456   .     S
C739   N859    1.158   .     T
C740   N860    1.158   .     T
C740   C840    1.456   .     S
C741   N861    1.158   .     T
C741   C841    1.456   .     S
C742   C842    1.456   .     S
C742   N862    1.158   .     T
C743   O894    1.277   .     A
C743   C773    1.422   .     S
C743   O923    1.277   .     A
C744   C843    1.456   .     S
C744   N863    1.158   .     T
C745   N864    1.158   .     T
C745   C844    1.456   .     S
C746   N865    1.158   .     T
C747   N866    1.158   .     T
C748   N868    1.158   .     T
C749   N869    1.158   .     T
C750   N870    1.158   .     T
C751   O924    1.277   .     A
C751   C772    1.422   .     S
C751   O895    1.277   .     A
C752   C780    1.422   .     S
C752   O896    1.277   .     A
C752   O920    1.277   .     A
C753   C778    1.422   .     S
C753   O922    1.277   .     A
C753   O897    1.277   .     A
C754   O909    1.277   .     A
C754   O898    1.277   .     A
C754   C769    1.422   .     S
C755   O900    1.277   .     A
C755   C767    1.422   .     S
C755   O911    1.277   .     A
C756   O901    1.277   .     A
C756   O907    1.277   .     A
C756   C766    1.422   .     S
C757   C802    1.466   .     S
C757   O925    1.268   .     S
C758   O902    1.277   .     A
C758   O908    1.277   .     A
C758   C765    1.422   .     S
C759   O914    1.277   .     A
C759   C764    1.422   .     S
C759   O903    1.277   .     A
C760   O904    1.277   .     A
C760   O915    1.277   .     A
C760   C763    1.422   .     S
C761   O912    1.277   .     A
C761   O905    1.277   .     A
C761   C771    1.422   .     S
C762   O913    1.277   .     A
C762   C770    1.422   .     S
C762   O906    1.277   .     A
C763   C780    1.198   .     T
C764   C778    1.198   .     T
C765   C777    1.198   .     T
C766   C776    1.198   .     T
C767   C775    1.198   .     T
C768   O926    1.272   .     A
C768   C798    1.476   .     S
C769   C774    1.198   .     T
C770   C773    1.198   .     T
C771   C772    1.198   .     T
C777   C834    1.422   .     S
C779   C799    1.459   .     S
C779   O880    1.267   .     S
C781   C798    1.406   .     A
C781   C811    1.420   .     A
C782   C563    1.397   1_655 A
C782   C813    1.417   .     A
C783   C814    1.421   .     A
C783   C328    1.401   1_565 S
C784   C815    1.422   .     A
C784   C802    1.399   .     S
C785   C807    1.420   .     A
C785   C562    1.406   1_655 S
C786   C808    1.417   .     A
C786   C799    1.397   .     S
C787   C800    1.401   .     A
C787   C809    1.421   .     A
C788   C810    1.422   .     A
C788   C330    1.399   1_565 A
C788   C252    1.454   1_565 S
C789   C820    1.422   .     A
C789   C803    1.399   .     S
C790   O881    1.267   .     A
C790   O885    1.267   .     A
C791   C821    1.421   .     A
C791   C332    1.401   1_565 S
C792   C805    1.397   .     A
C792   C822    1.418   .     A
C793   C806    1.406   .     A
C793   C824    1.421   .     A
C794   C816    1.422   .     A
C794   C331    1.399   1_565 A
C795   C804    1.401   .     A
C795   C817    1.421   .     A
C796   C818    1.417   .     A
C797   C819    1.420   .     A
C797   C570    1.406   1_655 S
C801   O882    1.272   .     A
C801   O886    1.272   .     A
C801   C806    1.476   .     S
C803   C812    1.466   .     S
C804   C823    1.469   .     S
C805   C560    1.397   1_655 S
C805   C554    1.459   1_655 S
C807   C833    1.424   .     A
C807   C589    1.429   1_655 A
C808   C835    1.417   .     A
C808   C826    1.427   .     S
C809   C836    1.420   .     A
C809   C827    1.426   .     A
C810   C837    1.423   .     A
C810   C356    1.429   1_565 S
C811   C838    1.424   .     A
C811   C825    1.429   .     S
C812   O883    1.268   .     A
C812   O887    1.268   .     A
C813   C839    1.417   .     A
C813   C590    1.427   1_655 A
C814   C840    1.420   .     A
C814   C355    1.426   1_565 S
C815   C828    1.429   .     A
C815   C841    1.423   .     A
C816   C829    1.429   .     A
C816   C842    1.423   .     A
C817   C843    1.420   .     A
C818   C844    1.417   .     A
C819   C832    1.428   .     A
C821   C830    1.426   .     A
C822   C831    1.427   .     A
C823   O889    1.270   .     A
C823   O884    1.270   .     A
C825   C826    1.422   .     A
C827   C828    1.422   .     A
C829   C348    1.429   1_565 S
C829   C830    1.422   1_556 S
C830   C345    1.426   1_565 S
C830   C829    1.422   1_554 S
C831   C582    1.427   1_655 S
C831   C832    1.422   1_556 S
C832   C588    1.429   1_655 S
C832   C831    1.422   1_554 S
C833   C839    1.398   .     A
C834   O918    1.277   .     A
C834   O890    1.277   .     A
C835   C838    1.398   .     A
C836   C841    1.403   .     A
C837   C840    1.403   .     A
C842   C713    1.403   1_556 S
C843   C712    1.403   1_554 S
C844   C715    1.398   1_556 S
O877   Zn932   1.937   .     S
O877   Zn929   1.937   .     S
O877   Zn940   1.937   .     S
O878   C285    1.268   1_565 A
O878   Zn931   1.955   .     S
O879   Zn934   1.955   .     S
O879   C532    1.272   1_655 S
O880   Zn933   1.955   .     S
O881   Zn943   1.955   .     S
O882   Zn942   1.955   .     S
O883   Zn937   1.955   .     S
O884   Zn929   1.955   .     S
O885   Zn939   1.955   .     S
O886   Zn938   1.955   .     S
O887   Zn941   1.955   .     S
O888   Zn937   1.937   .     S
O888   Zn935   1.937   .     S
O888   Zn941   1.937   .     S
O889   Zn940   1.955   .     S
O890   Zn932   1.915   .     S
O891   Zn931   1.915   .     S
O892   Zn934   1.915   .     S
O893   Zn933   1.915   .     S
O894   Zn936   1.915   .     S
O895   Zn935   1.915   .     S
O896   Zn930   1.915   .     S
O897   Zn944   1.915   .     S
O898   Zn931   1.915   .     S
O899   Zn942   1.937   .     S
O899   Zn938   1.937   .     S
O899   Zn930   1.937   .     S
O900   Zn932   1.915   .     S
O901   Zn944   1.915   .     S
O902   Zn930   1.915   .     S
O903   Zn935   1.915   .     S
O904   Zn936   1.915   .     S
O905   Zn933   1.915   .     S
O906   Zn934   1.915   .     S
O907   Zn703   1.915   1_655 S
O908   Zn938   1.915   .     S
O909   Zn469   1.915   1_565 S
O910   Zn943   1.937   .     S
O910   Zn933   1.937   .     S
O910   Zn939   1.937   .     S
O911   Zn940   1.915   .     S
O912   Zn943   1.915   .     S
O913   Zn706   1.915   1_655 S
O914   Zn937   1.915   .     S
O915   Zn457   1.915   1_565 S
O916   Zn702   1.915   1_655 S
O917   Zn939   1.915   .     S
O918   Zn929   1.915   .     S
O919   Zn465   1.915   1_565 S
O920   Zn942   1.915   .     S
O921   Zn936   1.955   .     S
O921   C237    1.270   1_565 S
O922   Zn707   1.915   1_655 S
O923   Zn468   1.915   1_565 S
O924   Zn941   1.915   .     S
O925   Zn935   1.955   .     S
O926   Zn930   1.955   .     S
O927   C543    1.267   1_655 A
O927   Zn944   1.955   .     S
O928   Zn932   1.955   .     S
Zn931  O416    1.937   1_565 S
Zn934  O663    1.937   1_655 S
Zn936  O405    1.937   1_565 S
Zn944  O674    1.937   1_655 S
