data_str_m1_o10_o16_pcu_sym.104
_audit_creation_date              2020-01-03
_audit_creation_method            'Materials Studio'
_symmetry_space_group_name_H-M    'P1'
_symmetry_Int_Tables_number       1
_symmetry_cell_setting            triclinic
loop_
_symmetry_equiv_pos_as_xyz
  x,y,z
_cell_length_a                    32.5713
_cell_length_b                    32.6643
_cell_length_c                    30.7092
_cell_angle_alpha                 96.9416
_cell_angle_beta                  74.9712
_cell_angle_gamma                 98.6882
loop_
_atom_site_label
_atom_site_type_symbol
_atom_site_fract_x
_atom_site_fract_y
_atom_site_fract_z
_atom_site_U_iso_or_equiv
_atom_site_adp_type
_atom_site_occupancy
C1     C     0.05257   0.15904   0.26064   0.00000  Uiso   1.00
C2     C     0.17835   0.16380   0.05574   0.00000  Uiso   1.00
C3     C     0.19997   0.09713   0.06126   0.00000  Uiso   1.00
C4     C     0.28091   0.17391   0.23996   0.00000  Uiso   1.00
C5     C     0.13971   0.19206   0.42101   0.00000  Uiso   1.00
C6     C     0.32719   0.17711   0.23588   0.00000  Uiso   1.00
C7     C     0.00749   0.15678   0.26362   0.00000  Uiso   1.00
C8     C     0.17955   0.32235   0.23725   0.00000  Uiso   1.00
C9     C     0.15081   0.01204   0.26460   0.00000  Uiso   1.00
C10    C     0.15657   0.05590   0.25966   0.00000  Uiso   1.00
C11    C     0.17638   0.27787   0.24030   0.00000  Uiso   1.00
C12    C     0.12655   0.24255   0.48648   0.00000  Uiso   1.00
C13    C     0.18489   0.14804   0.12902   0.00000  Uiso   1.00
C14    C     0.14818   0.18437   0.37122   0.00000  Uiso   1.00
C15    C     0.19081   0.08240   0.01886   0.00000  Uiso   1.00
C16    C     0.19160   0.13744   0.08013   0.00000  Uiso   1.00
C17    C     0.13222   0.23225   0.44009   0.00000  Uiso   1.00
C18    C     0.21902   0.07030   0.08604   0.00000  Uiso   1.00
C19    C     0.11431   0.28460   0.00690   0.00000  Uiso   1.00
C20    C     0.11346   0.09913   0.40307   0.00000  Uiso   1.00
C21    C     0.13188   0.21342   0.01396   0.00000  Uiso   1.00
C22    C     0.14672   0.17483   0.49374   0.00000  Uiso   1.00
C23    C     0.14295   0.16174   0.44910   0.00000  Uiso   1.00
C24    C     0.16494   0.14897   0.01603   0.00000  Uiso   1.00
C25    C     0.17168   0.10779   0.49702   0.00000  Uiso   1.00
C26    C     0.15790   0.09227   0.45729   0.00000  Uiso   1.00
C27    C     0.14104   0.11869   0.43495   0.00000  Uiso   1.00
H28    H     0.31891   0.13795   0.28875   0.00000  Uiso   1.00
H29    H     0.20768   0.02672   0.01840   0.00000  Uiso   1.00
H30    H     0.10590   0.19516   0.07351   0.00000  Uiso   1.00
H31    H     0.11207   0.30436   0.48080   0.00000  Uiso   1.00
H32    H     0.08270   0.28090   0.03170   0.00000  Uiso   1.00
H33    H     0.13874   0.30088   0.02448   0.00000  Uiso   1.00
H34    H     0.09166   0.07207   0.41797   0.00000  Uiso   1.00
H35    H     0.09227   0.12068   0.39780   0.00000  Uiso   1.00
H36    H     0.13363   0.08826   0.36994   0.00000  Uiso   1.00
H37    H     0.00825   0.21333   0.18663   0.00000  Uiso   1.00
H38    H     0.20607   0.00345   0.21210   0.00000  Uiso   1.00
H39    H     0.17699   0.19563   0.06978   0.00000  Uiso   1.00
H40    H     0.12996   0.25556   0.41878   0.00000  Uiso   1.00
H41    H     0.22734   0.08677   0.11695   0.00000  Uiso   1.00
H42    H     0.19590   0.04243   0.09624   0.00000  Uiso   1.00
H43    H     0.24933   0.06064   0.06380   0.00000  Uiso   1.00
H44    H     0.09967   0.01750   0.31322   0.00000  Uiso   1.00
H45    H     0.16017   0.04673   0.40947   0.00000  Uiso   1.00
O46    O     0.16667   0.16667   0.25000   0.00000  Uiso   1.00
O47    O     0.15451   0.12637   0.15458   0.00000  Uiso   1.00
O48    O     0.12940   0.20391   0.34968   0.00000  Uiso   1.00
O49    O     0.20824   0.17759   0.14606   0.00000  Uiso   1.00
O50    O     0.17451   0.15880   0.34968   0.00000  Uiso   1.00
O51    O     0.11641   0.32825   0.29679   0.00000  Uiso   1.00
O52    O     0.15905   0.05067   0.44220   0.00000  Uiso   1.00
O53    O     0.20002   0.04367   0.49790   0.00000  Uiso   1.00
O54    O     0.11795   0.22189   0.06016   0.00000  Uiso   1.00
O55    O     0.02352   0.20038   0.20430   0.00000  Uiso   1.00
O56    O     0.17930   0.08019   0.28213   0.00000  Uiso   1.00
O57    O     0.14632   0.26085   0.27013   0.00000  Uiso   1.00
O58    O     0.07412   0.13291   0.23413   0.00000  Uiso   1.00
O59    O     0.26693   0.19272   0.21360   0.00000  Uiso   1.00
O60    O     0.07071   0.18878   0.28213   0.00000  Uiso   1.00
O61    O     0.25491   0.15226   0.27013   0.00000  Uiso   1.00
O62    O     0.13760   0.06944   0.23413   0.00000  Uiso   1.00
O63    O     0.20345   0.25620   0.21360   0.00000  Uiso   1.00
Zn64   Zn    0.19338   0.13994   0.28734   0.00000  Uiso   1.00
Zn65   Zn    0.13379   0.12458   0.21875   0.00000  Uiso   1.00
Zn66   Zn    0.21056   0.19775   0.20657   0.00000  Uiso   1.00
Zn67   Zn    0.12893   0.20439   0.28733   0.00000  Uiso   1.00
C68    C     0.38591   0.15904   0.26064   0.00000  Uiso   1.00
C69    C     0.51168   0.16380   0.05574   0.00000  Uiso   1.00
C70    C     0.53330   0.09713   0.06126   0.00000  Uiso   1.00
C71    C     0.61424   0.17391   0.23996   0.00000  Uiso   1.00
C72    C     0.47304   0.19206   0.42101   0.00000  Uiso   1.00
C73    C     0.66052   0.17711   0.23588   0.00000  Uiso   1.00
C74    C     0.34083   0.15678   0.26362   0.00000  Uiso   1.00
C75    C     0.51288   0.32235   0.23725   0.00000  Uiso   1.00
C76    C     0.48414   0.01204   0.26460   0.00000  Uiso   1.00
C77    C     0.48990   0.05590   0.25966   0.00000  Uiso   1.00
C78    C     0.50972   0.27787   0.24030   0.00000  Uiso   1.00
C79    C     0.45989   0.24255   0.48648   0.00000  Uiso   1.00
C80    C     0.51822   0.14804   0.12902   0.00000  Uiso   1.00
C81    C     0.48151   0.18437   0.37122   0.00000  Uiso   1.00
C82    C     0.52414   0.08240   0.01886   0.00000  Uiso   1.00
C83    C     0.52494   0.13744   0.08013   0.00000  Uiso   1.00
C84    C     0.46555   0.23225   0.44009   0.00000  Uiso   1.00
C85    C     0.55235   0.07030   0.08604   0.00000  Uiso   1.00
C86    C     0.44764   0.28460   0.00690   0.00000  Uiso   1.00
C87    C     0.44679   0.09913   0.40307   0.00000  Uiso   1.00
C88    C     0.46521   0.21342   0.01396   0.00000  Uiso   1.00
C89    C     0.48006   0.17483   0.49374   0.00000  Uiso   1.00
C90    C     0.47629   0.16174   0.44910   0.00000  Uiso   1.00
C91    C     0.49827   0.14897   0.01603   0.00000  Uiso   1.00
C92    C     0.50501   0.10779   0.49702   0.00000  Uiso   1.00
C93    C     0.49124   0.09227   0.45729   0.00000  Uiso   1.00
C94    C     0.47437   0.11869   0.43495   0.00000  Uiso   1.00
H95    H     0.65225   0.13795   0.28875   0.00000  Uiso   1.00
H96    H     0.54101   0.02672   0.01840   0.00000  Uiso   1.00
H97    H     0.43923   0.19516   0.07351   0.00000  Uiso   1.00
H98    H     0.44540   0.30436   0.48080   0.00000  Uiso   1.00
H99    H     0.41603   0.28090   0.03170   0.00000  Uiso   1.00
H100   H     0.47208   0.30088   0.02448   0.00000  Uiso   1.00
H101   H     0.42500   0.07207   0.41797   0.00000  Uiso   1.00
H102   H     0.42561   0.12068   0.39780   0.00000  Uiso   1.00
H103   H     0.46696   0.08826   0.36994   0.00000  Uiso   1.00
H104   H     0.34159   0.21333   0.18663   0.00000  Uiso   1.00
H105   H     0.53941   0.00345   0.21210   0.00000  Uiso   1.00
H106   H     0.51033   0.19563   0.06978   0.00000  Uiso   1.00
H107   H     0.46329   0.25556   0.41878   0.00000  Uiso   1.00
H108   H     0.56067   0.08677   0.11695   0.00000  Uiso   1.00
H109   H     0.52924   0.04243   0.09624   0.00000  Uiso   1.00
H110   H     0.58266   0.06064   0.06380   0.00000  Uiso   1.00
H111   H     0.43300   0.01750   0.31322   0.00000  Uiso   1.00
H112   H     0.49350   0.04673   0.40947   0.00000  Uiso   1.00
O113   O     0.50000   0.16667   0.25000   0.00000  Uiso   1.00
O114   O     0.48784   0.12637   0.15458   0.00000  Uiso   1.00
O115   O     0.46274   0.20391   0.34968   0.00000  Uiso   1.00
O116   O     0.54157   0.17759   0.14606   0.00000  Uiso   1.00
O117   O     0.50785   0.15880   0.34968   0.00000  Uiso   1.00
O118   O     0.44974   0.32825   0.29679   0.00000  Uiso   1.00
O119   O     0.49238   0.05067   0.44220   0.00000  Uiso   1.00
O120   O     0.53336   0.04367   0.49790   0.00000  Uiso   1.00
O121   O     0.45129   0.22189   0.06016   0.00000  Uiso   1.00
O122   O     0.35685   0.20038   0.20430   0.00000  Uiso   1.00
O123   O     0.51264   0.08019   0.28213   0.00000  Uiso   1.00
O124   O     0.47965   0.26085   0.27013   0.00000  Uiso   1.00
O125   O     0.40745   0.13291   0.23413   0.00000  Uiso   1.00
O126   O     0.60026   0.19272   0.21360   0.00000  Uiso   1.00
O127   O     0.40405   0.18878   0.28213   0.00000  Uiso   1.00
O128   O     0.58824   0.15226   0.27013   0.00000  Uiso   1.00
O129   O     0.47093   0.06944   0.23413   0.00000  Uiso   1.00
O130   O     0.53678   0.25620   0.21360   0.00000  Uiso   1.00
Zn131  Zn    0.52672   0.13994   0.28734   0.00000  Uiso   1.00
Zn132  Zn    0.46713   0.12458   0.21875   0.00000  Uiso   1.00
Zn133  Zn    0.54389   0.19775   0.20657   0.00000  Uiso   1.00
Zn134  Zn    0.46226   0.20439   0.28733   0.00000  Uiso   1.00
C135   C     0.71924   0.15904   0.26064   0.00000  Uiso   1.00
C136   C     0.84501   0.16380   0.05574   0.00000  Uiso   1.00
C137   C     0.86663   0.09713   0.06126   0.00000  Uiso   1.00
C138   C     0.94757   0.17391   0.23996   0.00000  Uiso   1.00
C139   C     0.80637   0.19206   0.42101   0.00000  Uiso   1.00
C140   C     0.99386   0.17711   0.23588   0.00000  Uiso   1.00
C141   C     0.67416   0.15678   0.26362   0.00000  Uiso   1.00
C142   C     0.84622   0.32235   0.23725   0.00000  Uiso   1.00
C143   C     0.81748   0.01204   0.26460   0.00000  Uiso   1.00
C144   C     0.82323   0.05590   0.25966   0.00000  Uiso   1.00
C145   C     0.84305   0.27787   0.24030   0.00000  Uiso   1.00
C146   C     0.79322   0.24255   0.48648   0.00000  Uiso   1.00
C147   C     0.85156   0.14804   0.12902   0.00000  Uiso   1.00
C148   C     0.81485   0.18437   0.37122   0.00000  Uiso   1.00
C149   C     0.85747   0.08240   0.01886   0.00000  Uiso   1.00
C150   C     0.85827   0.13744   0.08013   0.00000  Uiso   1.00
C151   C     0.79888   0.23225   0.44009   0.00000  Uiso   1.00
C152   C     0.88568   0.07030   0.08604   0.00000  Uiso   1.00
C153   C     0.78098   0.28460   0.00690   0.00000  Uiso   1.00
C154   C     0.78013   0.09913   0.40307   0.00000  Uiso   1.00
C155   C     0.79854   0.21342   0.01396   0.00000  Uiso   1.00
C156   C     0.81339   0.17483   0.49374   0.00000  Uiso   1.00
C157   C     0.80962   0.16174   0.44910   0.00000  Uiso   1.00
C158   C     0.83161   0.14897   0.01603   0.00000  Uiso   1.00
C159   C     0.83835   0.10779   0.49702   0.00000  Uiso   1.00
C160   C     0.82457   0.09227   0.45729   0.00000  Uiso   1.00
C161   C     0.80770   0.11869   0.43495   0.00000  Uiso   1.00
H162   H     0.98558   0.13795   0.28875   0.00000  Uiso   1.00
H163   H     0.87435   0.02672   0.01840   0.00000  Uiso   1.00
H164   H     0.77257   0.19516   0.07351   0.00000  Uiso   1.00
H165   H     0.77874   0.30436   0.48080   0.00000  Uiso   1.00
H166   H     0.74936   0.28090   0.03170   0.00000  Uiso   1.00
H167   H     0.80541   0.30088   0.02448   0.00000  Uiso   1.00
H168   H     0.75833   0.07207   0.41797   0.00000  Uiso   1.00
H169   H     0.75894   0.12068   0.39780   0.00000  Uiso   1.00
H170   H     0.80029   0.08826   0.36994   0.00000  Uiso   1.00
H171   H     0.67492   0.21333   0.18663   0.00000  Uiso   1.00
H172   H     0.87274   0.00345   0.21210   0.00000  Uiso   1.00
H173   H     0.84366   0.19563   0.06978   0.00000  Uiso   1.00
H174   H     0.79662   0.25556   0.41878   0.00000  Uiso   1.00
H175   H     0.89400   0.08677   0.11695   0.00000  Uiso   1.00
H176   H     0.86257   0.04243   0.09624   0.00000  Uiso   1.00
H177   H     0.91599   0.06064   0.06380   0.00000  Uiso   1.00
H178   H     0.76633   0.01750   0.31322   0.00000  Uiso   1.00
H179   H     0.82684   0.04673   0.40947   0.00000  Uiso   1.00
O180   O     0.83333   0.16667   0.25000   0.00000  Uiso   1.00
O181   O     0.82118   0.12637   0.15458   0.00000  Uiso   1.00
O182   O     0.79607   0.20391   0.34968   0.00000  Uiso   1.00
O183   O     0.87491   0.17759   0.14606   0.00000  Uiso   1.00
O184   O     0.84118   0.15880   0.34968   0.00000  Uiso   1.00
O185   O     0.78307   0.32825   0.29679   0.00000  Uiso   1.00
O186   O     0.82572   0.05067   0.44220   0.00000  Uiso   1.00
O187   O     0.86669   0.04367   0.49790   0.00000  Uiso   1.00
O188   O     0.78462   0.22189   0.06016   0.00000  Uiso   1.00
O189   O     0.69018   0.20038   0.20430   0.00000  Uiso   1.00
O190   O     0.84597   0.08019   0.28213   0.00000  Uiso   1.00
O191   O     0.81298   0.26085   0.27013   0.00000  Uiso   1.00
O192   O     0.74078   0.13291   0.23413   0.00000  Uiso   1.00
O193   O     0.93360   0.19272   0.21360   0.00000  Uiso   1.00
O194   O     0.73738   0.18878   0.28213   0.00000  Uiso   1.00
O195   O     0.92158   0.15226   0.27013   0.00000  Uiso   1.00
O196   O     0.80426   0.06944   0.23413   0.00000  Uiso   1.00
O197   O     0.87012   0.25620   0.21360   0.00000  Uiso   1.00
Zn198  Zn    0.86005   0.13994   0.28734   0.00000  Uiso   1.00
Zn199  Zn    0.80046   0.12458   0.21875   0.00000  Uiso   1.00
Zn200  Zn    0.87723   0.19775   0.20657   0.00000  Uiso   1.00
Zn201  Zn    0.79560   0.20439   0.28733   0.00000  Uiso   1.00
C202   C     0.05257   0.49238   0.26064   0.00000  Uiso   1.00
C203   C     0.17835   0.49714   0.05574   0.00000  Uiso   1.00
C204   C     0.19997   0.43046   0.06126   0.00000  Uiso   1.00
C205   C     0.28091   0.50724   0.23996   0.00000  Uiso   1.00
C206   C     0.13971   0.52539   0.42101   0.00000  Uiso   1.00
C207   C     0.32719   0.51044   0.23588   0.00000  Uiso   1.00
C208   C     0.00749   0.49012   0.26362   0.00000  Uiso   1.00
C209   C     0.17955   0.65568   0.23725   0.00000  Uiso   1.00
C210   C     0.15081   0.34537   0.26460   0.00000  Uiso   1.00
C211   C     0.15657   0.38924   0.25966   0.00000  Uiso   1.00
C212   C     0.17638   0.61120   0.24030   0.00000  Uiso   1.00
C213   C     0.12655   0.57589   0.48648   0.00000  Uiso   1.00
C214   C     0.18489   0.48138   0.12902   0.00000  Uiso   1.00
C215   C     0.14818   0.51770   0.37122   0.00000  Uiso   1.00
C216   C     0.19081   0.41573   0.01886   0.00000  Uiso   1.00
C217   C     0.19160   0.47077   0.08013   0.00000  Uiso   1.00
C218   C     0.13222   0.56559   0.44009   0.00000  Uiso   1.00
C219   C     0.21902   0.40364   0.08604   0.00000  Uiso   1.00
C220   C     0.11431   0.61794   0.00690   0.00000  Uiso   1.00
C221   C     0.11346   0.43246   0.40307   0.00000  Uiso   1.00
C222   C     0.13188   0.54676   0.01396   0.00000  Uiso   1.00
C223   C     0.14672   0.50816   0.49374   0.00000  Uiso   1.00
C224   C     0.14295   0.49507   0.44910   0.00000  Uiso   1.00
C225   C     0.16494   0.48230   0.01603   0.00000  Uiso   1.00
C226   C     0.17168   0.44113   0.49702   0.00000  Uiso   1.00
C227   C     0.15790   0.42560   0.45729   0.00000  Uiso   1.00
C228   C     0.14104   0.45203   0.43495   0.00000  Uiso   1.00
H229   H     0.31891   0.47128   0.28875   0.00000  Uiso   1.00
H230   H     0.20768   0.36005   0.01840   0.00000  Uiso   1.00
H231   H     0.10590   0.52849   0.07351   0.00000  Uiso   1.00
H232   H     0.11207   0.63770   0.48080   0.00000  Uiso   1.00
H233   H     0.08270   0.61424   0.03170   0.00000  Uiso   1.00
H234   H     0.13874   0.63421   0.02448   0.00000  Uiso   1.00
H235   H     0.09166   0.40540   0.41797   0.00000  Uiso   1.00
H236   H     0.09227   0.45401   0.39780   0.00000  Uiso   1.00
H237   H     0.13363   0.42159   0.36994   0.00000  Uiso   1.00
H238   H     0.00825   0.54666   0.18663   0.00000  Uiso   1.00
H239   H     0.20607   0.33679   0.21210   0.00000  Uiso   1.00
H240   H     0.17699   0.52896   0.06978   0.00000  Uiso   1.00
H241   H     0.12996   0.58889   0.41878   0.00000  Uiso   1.00
H242   H     0.22734   0.42010   0.11695   0.00000  Uiso   1.00
H243   H     0.19590   0.37577   0.09624   0.00000  Uiso   1.00
H244   H     0.24933   0.39397   0.06380   0.00000  Uiso   1.00
H245   H     0.09967   0.35083   0.31322   0.00000  Uiso   1.00
H246   H     0.16017   0.38006   0.40947   0.00000  Uiso   1.00
O247   O     0.16667   0.50000   0.25000   0.00000  Uiso   1.00
O248   O     0.15451   0.45970   0.15458   0.00000  Uiso   1.00
O249   O     0.12940   0.53724   0.34968   0.00000  Uiso   1.00
O250   O     0.20824   0.51092   0.14606   0.00000  Uiso   1.00
O251   O     0.17451   0.49213   0.34968   0.00000  Uiso   1.00
O252   O     0.11641   0.66158   0.29679   0.00000  Uiso   1.00
O253   O     0.15905   0.38401   0.44220   0.00000  Uiso   1.00
O254   O     0.20002   0.37701   0.49790   0.00000  Uiso   1.00
O255   O     0.11795   0.55522   0.06016   0.00000  Uiso   1.00
O256   O     0.02352   0.53371   0.20430   0.00000  Uiso   1.00
O257   O     0.17930   0.41352   0.28213   0.00000  Uiso   1.00
O258   O     0.14632   0.59418   0.27013   0.00000  Uiso   1.00
O259   O     0.07412   0.46625   0.23413   0.00000  Uiso   1.00
O260   O     0.26693   0.52605   0.21360   0.00000  Uiso   1.00
O261   O     0.07071   0.52211   0.28213   0.00000  Uiso   1.00
O262   O     0.25491   0.48559   0.27013   0.00000  Uiso   1.00
O263   O     0.13760   0.40277   0.23413   0.00000  Uiso   1.00
O264   O     0.20345   0.58953   0.21360   0.00000  Uiso   1.00
Zn265  Zn    0.19338   0.47327   0.28734   0.00000  Uiso   1.00
Zn266  Zn    0.13379   0.45791   0.21875   0.00000  Uiso   1.00
Zn267  Zn    0.21056   0.53109   0.20657   0.00000  Uiso   1.00
Zn268  Zn    0.12893   0.53773   0.28733   0.00000  Uiso   1.00
C269   C     0.38591   0.49238   0.26064   0.00000  Uiso   1.00
C270   C     0.51168   0.49714   0.05574   0.00000  Uiso   1.00
C271   C     0.53330   0.43046   0.06126   0.00000  Uiso   1.00
C272   C     0.61424   0.50724   0.23996   0.00000  Uiso   1.00
C273   C     0.47304   0.52539   0.42101   0.00000  Uiso   1.00
C274   C     0.66052   0.51044   0.23588   0.00000  Uiso   1.00
C275   C     0.34083   0.49012   0.26362   0.00000  Uiso   1.00
C276   C     0.51288   0.65568   0.23725   0.00000  Uiso   1.00
C277   C     0.48414   0.34537   0.26460   0.00000  Uiso   1.00
C278   C     0.48990   0.38924   0.25966   0.00000  Uiso   1.00
C279   C     0.50972   0.61120   0.24030   0.00000  Uiso   1.00
C280   C     0.45989   0.57589   0.48648   0.00000  Uiso   1.00
C281   C     0.51822   0.48138   0.12902   0.00000  Uiso   1.00
C282   C     0.48151   0.51770   0.37122   0.00000  Uiso   1.00
C283   C     0.52414   0.41573   0.01886   0.00000  Uiso   1.00
C284   C     0.52494   0.47077   0.08013   0.00000  Uiso   1.00
C285   C     0.46555   0.56559   0.44009   0.00000  Uiso   1.00
C286   C     0.55235   0.40364   0.08604   0.00000  Uiso   1.00
C287   C     0.44764   0.61794   0.00690   0.00000  Uiso   1.00
C288   C     0.44679   0.43246   0.40307   0.00000  Uiso   1.00
C289   C     0.46521   0.54676   0.01396   0.00000  Uiso   1.00
C290   C     0.48006   0.50816   0.49374   0.00000  Uiso   1.00
C291   C     0.47629   0.49507   0.44910   0.00000  Uiso   1.00
C292   C     0.49827   0.48230   0.01603   0.00000  Uiso   1.00
C293   C     0.50501   0.44113   0.49702   0.00000  Uiso   1.00
C294   C     0.49124   0.42560   0.45729   0.00000  Uiso   1.00
C295   C     0.47437   0.45203   0.43495   0.00000  Uiso   1.00
H296   H     0.65225   0.47128   0.28875   0.00000  Uiso   1.00
H297   H     0.54101   0.36005   0.01840   0.00000  Uiso   1.00
H298   H     0.43923   0.52849   0.07351   0.00000  Uiso   1.00
H299   H     0.44540   0.63770   0.48080   0.00000  Uiso   1.00
H300   H     0.41603   0.61424   0.03170   0.00000  Uiso   1.00
H301   H     0.47208   0.63421   0.02448   0.00000  Uiso   1.00
H302   H     0.42500   0.40540   0.41797   0.00000  Uiso   1.00
H303   H     0.42561   0.45401   0.39780   0.00000  Uiso   1.00
H304   H     0.46696   0.42159   0.36994   0.00000  Uiso   1.00
H305   H     0.34159   0.54666   0.18663   0.00000  Uiso   1.00
H306   H     0.53941   0.33679   0.21210   0.00000  Uiso   1.00
H307   H     0.51033   0.52896   0.06978   0.00000  Uiso   1.00
H308   H     0.46329   0.58889   0.41878   0.00000  Uiso   1.00
H309   H     0.56067   0.42010   0.11695   0.00000  Uiso   1.00
H310   H     0.52924   0.37577   0.09624   0.00000  Uiso   1.00
H311   H     0.58266   0.39397   0.06380   0.00000  Uiso   1.00
H312   H     0.43300   0.35083   0.31322   0.00000  Uiso   1.00
H313   H     0.49350   0.38006   0.40947   0.00000  Uiso   1.00
O314   O     0.50000   0.50000   0.25000   0.00000  Uiso   1.00
O315   O     0.48784   0.45970   0.15458   0.00000  Uiso   1.00
O316   O     0.46274   0.53724   0.34968   0.00000  Uiso   1.00
O317   O     0.54157   0.51092   0.14606   0.00000  Uiso   1.00
O318   O     0.50785   0.49213   0.34968   0.00000  Uiso   1.00
O319   O     0.44974   0.66158   0.29679   0.00000  Uiso   1.00
O320   O     0.49238   0.38401   0.44220   0.00000  Uiso   1.00
O321   O     0.53336   0.37701   0.49790   0.00000  Uiso   1.00
O322   O     0.45129   0.55522   0.06016   0.00000  Uiso   1.00
O323   O     0.35685   0.53371   0.20430   0.00000  Uiso   1.00
O324   O     0.51264   0.41352   0.28213   0.00000  Uiso   1.00
O325   O     0.47965   0.59418   0.27013   0.00000  Uiso   1.00
O326   O     0.40745   0.46625   0.23413   0.00000  Uiso   1.00
O327   O     0.60026   0.52605   0.21360   0.00000  Uiso   1.00
O328   O     0.40405   0.52211   0.28213   0.00000  Uiso   1.00
O329   O     0.58824   0.48559   0.27013   0.00000  Uiso   1.00
O330   O     0.47093   0.40277   0.23413   0.00000  Uiso   1.00
O331   O     0.53678   0.58953   0.21360   0.00000  Uiso   1.00
Zn332  Zn    0.52672   0.47327   0.28734   0.00000  Uiso   1.00
Zn333  Zn    0.46713   0.45791   0.21875   0.00000  Uiso   1.00
Zn334  Zn    0.54389   0.53109   0.20657   0.00000  Uiso   1.00
Zn335  Zn    0.46226   0.53773   0.28733   0.00000  Uiso   1.00
C336   C     0.71924   0.49238   0.26064   0.00000  Uiso   1.00
C337   C     0.84501   0.49714   0.05574   0.00000  Uiso   1.00
C338   C     0.86663   0.43046   0.06126   0.00000  Uiso   1.00
C339   C     0.94757   0.50724   0.23996   0.00000  Uiso   1.00
C340   C     0.80637   0.52539   0.42101   0.00000  Uiso   1.00
C341   C     0.99386   0.51044   0.23588   0.00000  Uiso   1.00
C342   C     0.67416   0.49012   0.26362   0.00000  Uiso   1.00
C343   C     0.84622   0.65568   0.23725   0.00000  Uiso   1.00
C344   C     0.81748   0.34537   0.26460   0.00000  Uiso   1.00
C345   C     0.82323   0.38924   0.25966   0.00000  Uiso   1.00
C346   C     0.84305   0.61120   0.24030   0.00000  Uiso   1.00
C347   C     0.79322   0.57589   0.48648   0.00000  Uiso   1.00
C348   C     0.85156   0.48138   0.12902   0.00000  Uiso   1.00
C349   C     0.81485   0.51770   0.37122   0.00000  Uiso   1.00
C350   C     0.85747   0.41573   0.01886   0.00000  Uiso   1.00
C351   C     0.85827   0.47077   0.08013   0.00000  Uiso   1.00
C352   C     0.79888   0.56559   0.44009   0.00000  Uiso   1.00
C353   C     0.88568   0.40364   0.08604   0.00000  Uiso   1.00
C354   C     0.78098   0.61794   0.00690   0.00000  Uiso   1.00
C355   C     0.78013   0.43246   0.40307   0.00000  Uiso   1.00
C356   C     0.79854   0.54676   0.01396   0.00000  Uiso   1.00
C357   C     0.81339   0.50816   0.49374   0.00000  Uiso   1.00
C358   C     0.80962   0.49507   0.44910   0.00000  Uiso   1.00
C359   C     0.83161   0.48230   0.01603   0.00000  Uiso   1.00
C360   C     0.83835   0.44113   0.49702   0.00000  Uiso   1.00
C361   C     0.82457   0.42560   0.45729   0.00000  Uiso   1.00
C362   C     0.80770   0.45203   0.43495   0.00000  Uiso   1.00
H363   H     0.98558   0.47128   0.28875   0.00000  Uiso   1.00
H364   H     0.87435   0.36005   0.01840   0.00000  Uiso   1.00
H365   H     0.77257   0.52849   0.07351   0.00000  Uiso   1.00
H366   H     0.77874   0.63770   0.48080   0.00000  Uiso   1.00
H367   H     0.74936   0.61424   0.03170   0.00000  Uiso   1.00
H368   H     0.80541   0.63421   0.02448   0.00000  Uiso   1.00
H369   H     0.75833   0.40540   0.41797   0.00000  Uiso   1.00
H370   H     0.75894   0.45401   0.39780   0.00000  Uiso   1.00
H371   H     0.80029   0.42159   0.36994   0.00000  Uiso   1.00
H372   H     0.67492   0.54666   0.18663   0.00000  Uiso   1.00
H373   H     0.87274   0.33679   0.21210   0.00000  Uiso   1.00
H374   H     0.84366   0.52896   0.06978   0.00000  Uiso   1.00
H375   H     0.79662   0.58889   0.41878   0.00000  Uiso   1.00
H376   H     0.89400   0.42010   0.11695   0.00000  Uiso   1.00
H377   H     0.86257   0.37577   0.09624   0.00000  Uiso   1.00
H378   H     0.91599   0.39397   0.06380   0.00000  Uiso   1.00
H379   H     0.76633   0.35083   0.31322   0.00000  Uiso   1.00
H380   H     0.82684   0.38006   0.40947   0.00000  Uiso   1.00
O381   O     0.83333   0.50000   0.25000   0.00000  Uiso   1.00
O382   O     0.82118   0.45970   0.15458   0.00000  Uiso   1.00
O383   O     0.79607   0.53724   0.34968   0.00000  Uiso   1.00
O384   O     0.87491   0.51092   0.14606   0.00000  Uiso   1.00
O385   O     0.84118   0.49213   0.34968   0.00000  Uiso   1.00
O386   O     0.78307   0.66158   0.29679   0.00000  Uiso   1.00
O387   O     0.82572   0.38401   0.44220   0.00000  Uiso   1.00
O388   O     0.86669   0.37701   0.49790   0.00000  Uiso   1.00
O389   O     0.78462   0.55522   0.06016   0.00000  Uiso   1.00
O390   O     0.69018   0.53371   0.20430   0.00000  Uiso   1.00
O391   O     0.84597   0.41352   0.28213   0.00000  Uiso   1.00
O392   O     0.81298   0.59418   0.27013   0.00000  Uiso   1.00
O393   O     0.74078   0.46625   0.23413   0.00000  Uiso   1.00
O394   O     0.93360   0.52605   0.21360   0.00000  Uiso   1.00
O395   O     0.73738   0.52211   0.28213   0.00000  Uiso   1.00
O396   O     0.92158   0.48559   0.27013   0.00000  Uiso   1.00
O397   O     0.80426   0.40277   0.23413   0.00000  Uiso   1.00
O398   O     0.87012   0.58953   0.21360   0.00000  Uiso   1.00
Zn399  Zn    0.86005   0.47327   0.28734   0.00000  Uiso   1.00
Zn400  Zn    0.80046   0.45791   0.21875   0.00000  Uiso   1.00
Zn401  Zn    0.87723   0.53109   0.20657   0.00000  Uiso   1.00
Zn402  Zn    0.79560   0.53773   0.28733   0.00000  Uiso   1.00
C403   C     0.05257   0.82571   0.26064   0.00000  Uiso   1.00
C404   C     0.17835   0.83047   0.05574   0.00000  Uiso   1.00
C405   C     0.19997   0.76379   0.06126   0.00000  Uiso   1.00
C406   C     0.28091   0.84057   0.23996   0.00000  Uiso   1.00
C407   C     0.13971   0.85873   0.42101   0.00000  Uiso   1.00
C408   C     0.32719   0.84377   0.23588   0.00000  Uiso   1.00
C409   C     0.00749   0.82345   0.26362   0.00000  Uiso   1.00
C410   C     0.17955   0.98901   0.23725   0.00000  Uiso   1.00
C411   C     0.15081   0.67871   0.26460   0.00000  Uiso   1.00
C412   C     0.15657   0.72257   0.25966   0.00000  Uiso   1.00
C413   C     0.17638   0.94454   0.24030   0.00000  Uiso   1.00
C414   C     0.12655   0.90922   0.48648   0.00000  Uiso   1.00
C415   C     0.18489   0.81471   0.12902   0.00000  Uiso   1.00
C416   C     0.14818   0.85104   0.37122   0.00000  Uiso   1.00
C417   C     0.19081   0.74906   0.01886   0.00000  Uiso   1.00
C418   C     0.19160   0.80410   0.08013   0.00000  Uiso   1.00
C419   C     0.13222   0.89892   0.44009   0.00000  Uiso   1.00
C420   C     0.21902   0.73697   0.08604   0.00000  Uiso   1.00
C421   C     0.11431   0.95127   0.00690   0.00000  Uiso   1.00
C422   C     0.11346   0.76580   0.40307   0.00000  Uiso   1.00
C423   C     0.13188   0.88009   0.01396   0.00000  Uiso   1.00
C424   C     0.14672   0.84150   0.49374   0.00000  Uiso   1.00
C425   C     0.14295   0.82841   0.44910   0.00000  Uiso   1.00
C426   C     0.16494   0.81564   0.01603   0.00000  Uiso   1.00
C427   C     0.17168   0.77446   0.49702   0.00000  Uiso   1.00
C428   C     0.15790   0.75893   0.45729   0.00000  Uiso   1.00
C429   C     0.14104   0.78536   0.43495   0.00000  Uiso   1.00
H430   H     0.31891   0.80461   0.28875   0.00000  Uiso   1.00
H431   H     0.20768   0.69339   0.01840   0.00000  Uiso   1.00
H432   H     0.10590   0.86183   0.07351   0.00000  Uiso   1.00
H433   H     0.11207   0.97103   0.48080   0.00000  Uiso   1.00
H434   H     0.08270   0.94757   0.03170   0.00000  Uiso   1.00
H435   H     0.13874   0.96754   0.02448   0.00000  Uiso   1.00
H436   H     0.09166   0.73874   0.41797   0.00000  Uiso   1.00
H437   H     0.09227   0.78735   0.39780   0.00000  Uiso   1.00
H438   H     0.13363   0.75492   0.36994   0.00000  Uiso   1.00
H439   H     0.00825   0.88000   0.18663   0.00000  Uiso   1.00
H440   H     0.20607   0.67012   0.21210   0.00000  Uiso   1.00
H441   H     0.17699   0.86230   0.06978   0.00000  Uiso   1.00
H442   H     0.12996   0.92222   0.41878   0.00000  Uiso   1.00
H443   H     0.22734   0.75344   0.11695   0.00000  Uiso   1.00
H444   H     0.19590   0.70910   0.09624   0.00000  Uiso   1.00
H445   H     0.24933   0.72730   0.06380   0.00000  Uiso   1.00
H446   H     0.09967   0.68417   0.31322   0.00000  Uiso   1.00
H447   H     0.16017   0.71339   0.40947   0.00000  Uiso   1.00
O448   O     0.16667   0.83333   0.25000   0.00000  Uiso   1.00
O449   O     0.15451   0.79304   0.15458   0.00000  Uiso   1.00
O450   O     0.12940   0.87058   0.34968   0.00000  Uiso   1.00
O451   O     0.20824   0.84425   0.14606   0.00000  Uiso   1.00
O452   O     0.17451   0.82546   0.34968   0.00000  Uiso   1.00
O453   O     0.11641   0.99491   0.29679   0.00000  Uiso   1.00
O454   O     0.15905   0.71734   0.44220   0.00000  Uiso   1.00
O455   O     0.20002   0.71034   0.49790   0.00000  Uiso   1.00
O456   O     0.11795   0.88855   0.06016   0.00000  Uiso   1.00
O457   O     0.02352   0.86705   0.20430   0.00000  Uiso   1.00
O458   O     0.17930   0.74686   0.28213   0.00000  Uiso   1.00
O459   O     0.14632   0.92751   0.27013   0.00000  Uiso   1.00
O460   O     0.07412   0.79958   0.23413   0.00000  Uiso   1.00
O461   O     0.26693   0.85939   0.21360   0.00000  Uiso   1.00
O462   O     0.07071   0.85544   0.28213   0.00000  Uiso   1.00
O463   O     0.25491   0.81892   0.27013   0.00000  Uiso   1.00
O464   O     0.13760   0.73610   0.23413   0.00000  Uiso   1.00
O465   O     0.20345   0.92286   0.21360   0.00000  Uiso   1.00
Zn466  Zn    0.19338   0.80661   0.28734   0.00000  Uiso   1.00
Zn467  Zn    0.13379   0.79124   0.21875   0.00000  Uiso   1.00
Zn468  Zn    0.21056   0.86442   0.20657   0.00000  Uiso   1.00
Zn469  Zn    0.12893   0.87106   0.28733   0.00000  Uiso   1.00
C470   C     0.38591   0.82571   0.26064   0.00000  Uiso   1.00
C471   C     0.51168   0.83047   0.05574   0.00000  Uiso   1.00
C472   C     0.53330   0.76379   0.06126   0.00000  Uiso   1.00
C473   C     0.61424   0.84057   0.23996   0.00000  Uiso   1.00
C474   C     0.47304   0.85873   0.42101   0.00000  Uiso   1.00
C475   C     0.66052   0.84377   0.23588   0.00000  Uiso   1.00
C476   C     0.34083   0.82345   0.26362   0.00000  Uiso   1.00
C477   C     0.51288   0.98901   0.23725   0.00000  Uiso   1.00
C478   C     0.48414   0.67871   0.26460   0.00000  Uiso   1.00
C479   C     0.48990   0.72257   0.25966   0.00000  Uiso   1.00
C480   C     0.50972   0.94454   0.24030   0.00000  Uiso   1.00
C481   C     0.45989   0.90922   0.48648   0.00000  Uiso   1.00
C482   C     0.51822   0.81471   0.12902   0.00000  Uiso   1.00
C483   C     0.48151   0.85104   0.37122   0.00000  Uiso   1.00
C484   C     0.52414   0.74906   0.01886   0.00000  Uiso   1.00
C485   C     0.52494   0.80410   0.08013   0.00000  Uiso   1.00
C486   C     0.46555   0.89892   0.44009   0.00000  Uiso   1.00
C487   C     0.55235   0.73697   0.08604   0.00000  Uiso   1.00
C488   C     0.44764   0.95127   0.00690   0.00000  Uiso   1.00
C489   C     0.44679   0.76580   0.40307   0.00000  Uiso   1.00
C490   C     0.46521   0.88009   0.01396   0.00000  Uiso   1.00
C491   C     0.48006   0.84150   0.49374   0.00000  Uiso   1.00
C492   C     0.47629   0.82841   0.44910   0.00000  Uiso   1.00
C493   C     0.49827   0.81564   0.01603   0.00000  Uiso   1.00
C494   C     0.50501   0.77446   0.49702   0.00000  Uiso   1.00
C495   C     0.49124   0.75893   0.45729   0.00000  Uiso   1.00
C496   C     0.47437   0.78536   0.43495   0.00000  Uiso   1.00
H497   H     0.65225   0.80461   0.28875   0.00000  Uiso   1.00
H498   H     0.54101   0.69339   0.01840   0.00000  Uiso   1.00
H499   H     0.43923   0.86183   0.07351   0.00000  Uiso   1.00
H500   H     0.44540   0.97103   0.48080   0.00000  Uiso   1.00
H501   H     0.41603   0.94757   0.03170   0.00000  Uiso   1.00
H502   H     0.47208   0.96754   0.02448   0.00000  Uiso   1.00
H503   H     0.42500   0.73874   0.41797   0.00000  Uiso   1.00
H504   H     0.42561   0.78735   0.39780   0.00000  Uiso   1.00
H505   H     0.46696   0.75492   0.36994   0.00000  Uiso   1.00
H506   H     0.34159   0.88000   0.18663   0.00000  Uiso   1.00
H507   H     0.53941   0.67012   0.21210   0.00000  Uiso   1.00
H508   H     0.51033   0.86230   0.06978   0.00000  Uiso   1.00
H509   H     0.46329   0.92222   0.41878   0.00000  Uiso   1.00
H510   H     0.56067   0.75344   0.11695   0.00000  Uiso   1.00
H511   H     0.52924   0.70910   0.09624   0.00000  Uiso   1.00
H512   H     0.58266   0.72730   0.06380   0.00000  Uiso   1.00
H513   H     0.43300   0.68417   0.31322   0.00000  Uiso   1.00
H514   H     0.49350   0.71339   0.40947   0.00000  Uiso   1.00
O515   O     0.50000   0.83333   0.25000   0.00000  Uiso   1.00
O516   O     0.48784   0.79304   0.15458   0.00000  Uiso   1.00
O517   O     0.46274   0.87058   0.34968   0.00000  Uiso   1.00
O518   O     0.54157   0.84425   0.14606   0.00000  Uiso   1.00
O519   O     0.50785   0.82546   0.34968   0.00000  Uiso   1.00
O520   O     0.44974   0.99491   0.29679   0.00000  Uiso   1.00
O521   O     0.49238   0.71734   0.44220   0.00000  Uiso   1.00
O522   O     0.53336   0.71034   0.49790   0.00000  Uiso   1.00
O523   O     0.45129   0.88855   0.06016   0.00000  Uiso   1.00
O524   O     0.35685   0.86705   0.20430   0.00000  Uiso   1.00
O525   O     0.51264   0.74686   0.28213   0.00000  Uiso   1.00
O526   O     0.47965   0.92751   0.27013   0.00000  Uiso   1.00
O527   O     0.40745   0.79958   0.23413   0.00000  Uiso   1.00
O528   O     0.60026   0.85939   0.21360   0.00000  Uiso   1.00
O529   O     0.40405   0.85544   0.28213   0.00000  Uiso   1.00
O530   O     0.58824   0.81892   0.27013   0.00000  Uiso   1.00
O531   O     0.47093   0.73610   0.23413   0.00000  Uiso   1.00
O532   O     0.53678   0.92286   0.21360   0.00000  Uiso   1.00
Zn533  Zn    0.52672   0.80661   0.28734   0.00000  Uiso   1.00
Zn534  Zn    0.46713   0.79124   0.21875   0.00000  Uiso   1.00
Zn535  Zn    0.54389   0.86442   0.20657   0.00000  Uiso   1.00
Zn536  Zn    0.46226   0.87106   0.28733   0.00000  Uiso   1.00
C537   C     0.71924   0.82571   0.26064   0.00000  Uiso   1.00
C538   C     0.84501   0.83047   0.05574   0.00000  Uiso   1.00
C539   C     0.86663   0.76379   0.06126   0.00000  Uiso   1.00
C540   C     0.94757   0.84057   0.23996   0.00000  Uiso   1.00
C541   C     0.80637   0.85873   0.42101   0.00000  Uiso   1.00
C542   C     0.99386   0.84377   0.23588   0.00000  Uiso   1.00
C543   C     0.67416   0.82345   0.26362   0.00000  Uiso   1.00
C544   C     0.84622   0.98901   0.23725   0.00000  Uiso   1.00
C545   C     0.81748   0.67871   0.26460   0.00000  Uiso   1.00
C546   C     0.82323   0.72257   0.25966   0.00000  Uiso   1.00
C547   C     0.84305   0.94454   0.24030   0.00000  Uiso   1.00
C548   C     0.79322   0.90922   0.48648   0.00000  Uiso   1.00
C549   C     0.85156   0.81471   0.12902   0.00000  Uiso   1.00
C550   C     0.81485   0.85104   0.37122   0.00000  Uiso   1.00
C551   C     0.85747   0.74906   0.01886   0.00000  Uiso   1.00
C552   C     0.85827   0.80410   0.08013   0.00000  Uiso   1.00
C553   C     0.79888   0.89892   0.44009   0.00000  Uiso   1.00
C554   C     0.88568   0.73697   0.08604   0.00000  Uiso   1.00
C555   C     0.78098   0.95127   0.00690   0.00000  Uiso   1.00
C556   C     0.78013   0.76580   0.40307   0.00000  Uiso   1.00
C557   C     0.79854   0.88009   0.01396   0.00000  Uiso   1.00
C558   C     0.81339   0.84150   0.49374   0.00000  Uiso   1.00
C559   C     0.80962   0.82841   0.44910   0.00000  Uiso   1.00
C560   C     0.83161   0.81564   0.01603   0.00000  Uiso   1.00
C561   C     0.83835   0.77446   0.49702   0.00000  Uiso   1.00
C562   C     0.82457   0.75893   0.45729   0.00000  Uiso   1.00
C563   C     0.80770   0.78536   0.43495   0.00000  Uiso   1.00
H564   H     0.98558   0.80461   0.28875   0.00000  Uiso   1.00
H565   H     0.87435   0.69339   0.01840   0.00000  Uiso   1.00
H566   H     0.77257   0.86183   0.07351   0.00000  Uiso   1.00
H567   H     0.77874   0.97103   0.48080   0.00000  Uiso   1.00
H568   H     0.74936   0.94757   0.03170   0.00000  Uiso   1.00
H569   H     0.80541   0.96754   0.02448   0.00000  Uiso   1.00
H570   H     0.75833   0.73874   0.41797   0.00000  Uiso   1.00
H571   H     0.75894   0.78735   0.39780   0.00000  Uiso   1.00
H572   H     0.80029   0.75492   0.36994   0.00000  Uiso   1.00
H573   H     0.67492   0.88000   0.18663   0.00000  Uiso   1.00
H574   H     0.87274   0.67012   0.21210   0.00000  Uiso   1.00
H575   H     0.84366   0.86230   0.06978   0.00000  Uiso   1.00
H576   H     0.79662   0.92222   0.41878   0.00000  Uiso   1.00
H577   H     0.89400   0.75344   0.11695   0.00000  Uiso   1.00
H578   H     0.86257   0.70910   0.09624   0.00000  Uiso   1.00
H579   H     0.91599   0.72730   0.06380   0.00000  Uiso   1.00
H580   H     0.76633   0.68417   0.31322   0.00000  Uiso   1.00
H581   H     0.82684   0.71339   0.40947   0.00000  Uiso   1.00
O582   O     0.83333   0.83333   0.25000   0.00000  Uiso   1.00
O583   O     0.82118   0.79304   0.15458   0.00000  Uiso   1.00
O584   O     0.79607   0.87058   0.34968   0.00000  Uiso   1.00
O585   O     0.87491   0.84425   0.14606   0.00000  Uiso   1.00
O586   O     0.84118   0.82546   0.34968   0.00000  Uiso   1.00
O587   O     0.78307   0.99491   0.29679   0.00000  Uiso   1.00
O588   O     0.82572   0.71734   0.44220   0.00000  Uiso   1.00
O589   O     0.86669   0.71034   0.49790   0.00000  Uiso   1.00
O590   O     0.78462   0.88855   0.06016   0.00000  Uiso   1.00
O591   O     0.69018   0.86705   0.20430   0.00000  Uiso   1.00
O592   O     0.84597   0.74686   0.28213   0.00000  Uiso   1.00
O593   O     0.81298   0.92751   0.27013   0.00000  Uiso   1.00
O594   O     0.74078   0.79958   0.23413   0.00000  Uiso   1.00
O595   O     0.93360   0.85939   0.21360   0.00000  Uiso   1.00
O596   O     0.73738   0.85544   0.28213   0.00000  Uiso   1.00
O597   O     0.92158   0.81892   0.27013   0.00000  Uiso   1.00
O598   O     0.80426   0.73610   0.23413   0.00000  Uiso   1.00
O599   O     0.87012   0.92286   0.21360   0.00000  Uiso   1.00
Zn600  Zn    0.86005   0.80661   0.28734   0.00000  Uiso   1.00
Zn601  Zn    0.80046   0.79124   0.21875   0.00000  Uiso   1.00
Zn602  Zn    0.87723   0.86442   0.20657   0.00000  Uiso   1.00
Zn603  Zn    0.79560   0.87106   0.28733   0.00000  Uiso   1.00
C604   C     0.05257   0.15904   0.76064   0.00000  Uiso   1.00
C605   C     0.17835   0.16380   0.55574   0.00000  Uiso   1.00
C606   C     0.19997   0.09713   0.56126   0.00000  Uiso   1.00
C607   C     0.28091   0.17391   0.73996   0.00000  Uiso   1.00
C608   C     0.13971   0.19206   0.92101   0.00000  Uiso   1.00
C609   C     0.32719   0.17711   0.73588   0.00000  Uiso   1.00
C610   C     0.00749   0.15678   0.76362   0.00000  Uiso   1.00
C611   C     0.17955   0.32235   0.73725   0.00000  Uiso   1.00
C612   C     0.15081   0.01204   0.76460   0.00000  Uiso   1.00
C613   C     0.15657   0.05590   0.75966   0.00000  Uiso   1.00
C614   C     0.17638   0.27787   0.74030   0.00000  Uiso   1.00
C615   C     0.12655   0.24255   0.98648   0.00000  Uiso   1.00
C616   C     0.18489   0.14804   0.62902   0.00000  Uiso   1.00
C617   C     0.14818   0.18437   0.87122   0.00000  Uiso   1.00
C618   C     0.19081   0.08240   0.51886   0.00000  Uiso   1.00
C619   C     0.19160   0.13744   0.58013   0.00000  Uiso   1.00
C620   C     0.13222   0.23225   0.94009   0.00000  Uiso   1.00
C621   C     0.21902   0.07030   0.58604   0.00000  Uiso   1.00
C622   C     0.11431   0.28460   0.50690   0.00000  Uiso   1.00
C623   C     0.11346   0.09913   0.90307   0.00000  Uiso   1.00
C624   C     0.13188   0.21342   0.51396   0.00000  Uiso   1.00
C625   C     0.14672   0.17483   0.99374   0.00000  Uiso   1.00
C626   C     0.14295   0.16174   0.94910   0.00000  Uiso   1.00
C627   C     0.16494   0.14897   0.51603   0.00000  Uiso   1.00
C628   C     0.17168   0.10779   0.99702   0.00000  Uiso   1.00
C629   C     0.15790   0.09227   0.95729   0.00000  Uiso   1.00
C630   C     0.14104   0.11869   0.93495   0.00000  Uiso   1.00
H631   H     0.31891   0.13795   0.78875   0.00000  Uiso   1.00
H632   H     0.20768   0.02672   0.51840   0.00000  Uiso   1.00
H633   H     0.10590   0.19516   0.57351   0.00000  Uiso   1.00
H634   H     0.11207   0.30436   0.98080   0.00000  Uiso   1.00
H635   H     0.08270   0.28090   0.53170   0.00000  Uiso   1.00
H636   H     0.13874   0.30088   0.52448   0.00000  Uiso   1.00
H637   H     0.09166   0.07207   0.91797   0.00000  Uiso   1.00
H638   H     0.09227   0.12068   0.89780   0.00000  Uiso   1.00
H639   H     0.13363   0.08826   0.86994   0.00000  Uiso   1.00
H640   H     0.00825   0.21333   0.68663   0.00000  Uiso   1.00
H641   H     0.20607   0.00345   0.71210   0.00000  Uiso   1.00
H642   H     0.17699   0.19563   0.56978   0.00000  Uiso   1.00
H643   H     0.12996   0.25556   0.91878   0.00000  Uiso   1.00
H644   H     0.22734   0.08677   0.61695   0.00000  Uiso   1.00
H645   H     0.19590   0.04243   0.59624   0.00000  Uiso   1.00
H646   H     0.24933   0.06064   0.56380   0.00000  Uiso   1.00
H647   H     0.09967   0.01750   0.81322   0.00000  Uiso   1.00
H648   H     0.16017   0.04673   0.90947   0.00000  Uiso   1.00
O649   O     0.16667   0.16667   0.75000   0.00000  Uiso   1.00
O650   O     0.15451   0.12637   0.65458   0.00000  Uiso   1.00
O651   O     0.12940   0.20391   0.84968   0.00000  Uiso   1.00
O652   O     0.20824   0.17759   0.64606   0.00000  Uiso   1.00
O653   O     0.17451   0.15880   0.84968   0.00000  Uiso   1.00
O654   O     0.11641   0.32825   0.79679   0.00000  Uiso   1.00
O655   O     0.15905   0.05067   0.94220   0.00000  Uiso   1.00
O656   O     0.20002   0.04367   0.99790   0.00000  Uiso   1.00
O657   O     0.11795   0.22189   0.56016   0.00000  Uiso   1.00
O658   O     0.02352   0.20038   0.70430   0.00000  Uiso   1.00
O659   O     0.17930   0.08019   0.78213   0.00000  Uiso   1.00
O660   O     0.14632   0.26085   0.77013   0.00000  Uiso   1.00
O661   O     0.07412   0.13291   0.73413   0.00000  Uiso   1.00
O662   O     0.26693   0.19272   0.71360   0.00000  Uiso   1.00
O663   O     0.07071   0.18878   0.78213   0.00000  Uiso   1.00
O664   O     0.25491   0.15226   0.77013   0.00000  Uiso   1.00
O665   O     0.13760   0.06944   0.73413   0.00000  Uiso   1.00
O666   O     0.20345   0.25620   0.71360   0.00000  Uiso   1.00
Zn667  Zn    0.19338   0.13994   0.78734   0.00000  Uiso   1.00
Zn668  Zn    0.13379   0.12458   0.71875   0.00000  Uiso   1.00
Zn669  Zn    0.21056   0.19775   0.70657   0.00000  Uiso   1.00
Zn670  Zn    0.12893   0.20439   0.78733   0.00000  Uiso   1.00
C671   C     0.38591   0.15904   0.76064   0.00000  Uiso   1.00
C672   C     0.51168   0.16380   0.55574   0.00000  Uiso   1.00
C673   C     0.53330   0.09713   0.56126   0.00000  Uiso   1.00
C674   C     0.61424   0.17391   0.73996   0.00000  Uiso   1.00
C675   C     0.47304   0.19206   0.92101   0.00000  Uiso   1.00
C676   C     0.66052   0.17711   0.73588   0.00000  Uiso   1.00
C677   C     0.34083   0.15678   0.76362   0.00000  Uiso   1.00
C678   C     0.51288   0.32235   0.73725   0.00000  Uiso   1.00
C679   C     0.48414   0.01204   0.76460   0.00000  Uiso   1.00
C680   C     0.48990   0.05590   0.75966   0.00000  Uiso   1.00
C681   C     0.50972   0.27787   0.74030   0.00000  Uiso   1.00
C682   C     0.45989   0.24255   0.98648   0.00000  Uiso   1.00
C683   C     0.51822   0.14804   0.62902   0.00000  Uiso   1.00
C684   C     0.48151   0.18437   0.87122   0.00000  Uiso   1.00
C685   C     0.52414   0.08240   0.51886   0.00000  Uiso   1.00
C686   C     0.52494   0.13744   0.58013   0.00000  Uiso   1.00
C687   C     0.46555   0.23225   0.94009   0.00000  Uiso   1.00
C688   C     0.55235   0.07030   0.58604   0.00000  Uiso   1.00
C689   C     0.44764   0.28460   0.50690   0.00000  Uiso   1.00
C690   C     0.44679   0.09913   0.90307   0.00000  Uiso   1.00
C691   C     0.46521   0.21342   0.51396   0.00000  Uiso   1.00
C692   C     0.48006   0.17483   0.99374   0.00000  Uiso   1.00
C693   C     0.47629   0.16174   0.94910   0.00000  Uiso   1.00
C694   C     0.49827   0.14897   0.51603   0.00000  Uiso   1.00
C695   C     0.50501   0.10779   0.99702   0.00000  Uiso   1.00
C696   C     0.49124   0.09227   0.95729   0.00000  Uiso   1.00
C697   C     0.47437   0.11869   0.93495   0.00000  Uiso   1.00
H698   H     0.65225   0.13795   0.78875   0.00000  Uiso   1.00
H699   H     0.54101   0.02672   0.51840   0.00000  Uiso   1.00
H700   H     0.43923   0.19516   0.57351   0.00000  Uiso   1.00
H701   H     0.44540   0.30436   0.98080   0.00000  Uiso   1.00
H702   H     0.41603   0.28090   0.53170   0.00000  Uiso   1.00
H703   H     0.47208   0.30088   0.52448   0.00000  Uiso   1.00
H704   H     0.42500   0.07207   0.91797   0.00000  Uiso   1.00
H705   H     0.42561   0.12068   0.89780   0.00000  Uiso   1.00
H706   H     0.46696   0.08826   0.86994   0.00000  Uiso   1.00
H707   H     0.34159   0.21333   0.68663   0.00000  Uiso   1.00
H708   H     0.53941   0.00345   0.71210   0.00000  Uiso   1.00
H709   H     0.51033   0.19563   0.56978   0.00000  Uiso   1.00
H710   H     0.46329   0.25556   0.91878   0.00000  Uiso   1.00
H711   H     0.56067   0.08677   0.61695   0.00000  Uiso   1.00
H712   H     0.52924   0.04243   0.59624   0.00000  Uiso   1.00
H713   H     0.58266   0.06064   0.56380   0.00000  Uiso   1.00
H714   H     0.43300   0.01750   0.81322   0.00000  Uiso   1.00
H715   H     0.49350   0.04673   0.90947   0.00000  Uiso   1.00
O716   O     0.50000   0.16667   0.75000   0.00000  Uiso   1.00
O717   O     0.48784   0.12637   0.65458   0.00000  Uiso   1.00
O718   O     0.46274   0.20391   0.84968   0.00000  Uiso   1.00
O719   O     0.54157   0.17759   0.64606   0.00000  Uiso   1.00
O720   O     0.50785   0.15880   0.84968   0.00000  Uiso   1.00
O721   O     0.44974   0.32825   0.79679   0.00000  Uiso   1.00
O722   O     0.49238   0.05067   0.94220   0.00000  Uiso   1.00
O723   O     0.53336   0.04367   0.99790   0.00000  Uiso   1.00
O724   O     0.45129   0.22189   0.56016   0.00000  Uiso   1.00
O725   O     0.35685   0.20038   0.70430   0.00000  Uiso   1.00
O726   O     0.51264   0.08019   0.78213   0.00000  Uiso   1.00
O727   O     0.47965   0.26085   0.77013   0.00000  Uiso   1.00
O728   O     0.40745   0.13291   0.73413   0.00000  Uiso   1.00
O729   O     0.60026   0.19272   0.71360   0.00000  Uiso   1.00
O730   O     0.40405   0.18878   0.78213   0.00000  Uiso   1.00
O731   O     0.58824   0.15226   0.77013   0.00000  Uiso   1.00
O732   O     0.47093   0.06944   0.73413   0.00000  Uiso   1.00
O733   O     0.53678   0.25620   0.71360   0.00000  Uiso   1.00
Zn734  Zn    0.52672   0.13994   0.78734   0.00000  Uiso   1.00
Zn735  Zn    0.46713   0.12458   0.71875   0.00000  Uiso   1.00
Zn736  Zn    0.54389   0.19775   0.70657   0.00000  Uiso   1.00
Zn737  Zn    0.46226   0.20439   0.78733   0.00000  Uiso   1.00
C738   C     0.71924   0.15904   0.76064   0.00000  Uiso   1.00
C739   C     0.84501   0.16380   0.55574   0.00000  Uiso   1.00
C740   C     0.86663   0.09713   0.56126   0.00000  Uiso   1.00
C741   C     0.94757   0.17391   0.73996   0.00000  Uiso   1.00
C742   C     0.80637   0.19206   0.92101   0.00000  Uiso   1.00
C743   C     0.99386   0.17711   0.73588   0.00000  Uiso   1.00
C744   C     0.67416   0.15678   0.76362   0.00000  Uiso   1.00
C745   C     0.84622   0.32235   0.73725   0.00000  Uiso   1.00
C746   C     0.81748   0.01204   0.76460   0.00000  Uiso   1.00
C747   C     0.82323   0.05590   0.75966   0.00000  Uiso   1.00
C748   C     0.84305   0.27787   0.74030   0.00000  Uiso   1.00
C749   C     0.79322   0.24255   0.98648   0.00000  Uiso   1.00
C750   C     0.85156   0.14804   0.62902   0.00000  Uiso   1.00
C751   C     0.81485   0.18437   0.87122   0.00000  Uiso   1.00
C752   C     0.85747   0.08240   0.51886   0.00000  Uiso   1.00
C753   C     0.85827   0.13744   0.58013   0.00000  Uiso   1.00
C754   C     0.79888   0.23225   0.94009   0.00000  Uiso   1.00
C755   C     0.88568   0.07030   0.58604   0.00000  Uiso   1.00
C756   C     0.78098   0.28460   0.50690   0.00000  Uiso   1.00
C757   C     0.78013   0.09913   0.90307   0.00000  Uiso   1.00
C758   C     0.79854   0.21342   0.51396   0.00000  Uiso   1.00
C759   C     0.81339   0.17483   0.99374   0.00000  Uiso   1.00
C760   C     0.80962   0.16174   0.94910   0.00000  Uiso   1.00
C761   C     0.83161   0.14897   0.51603   0.00000  Uiso   1.00
C762   C     0.83835   0.10779   0.99702   0.00000  Uiso   1.00
C763   C     0.82457   0.09227   0.95729   0.00000  Uiso   1.00
C764   C     0.80770   0.11869   0.93495   0.00000  Uiso   1.00
H765   H     0.98558   0.13795   0.78875   0.00000  Uiso   1.00
H766   H     0.87435   0.02672   0.51840   0.00000  Uiso   1.00
H767   H     0.77257   0.19516   0.57351   0.00000  Uiso   1.00
H768   H     0.77874   0.30436   0.98080   0.00000  Uiso   1.00
H769   H     0.74936   0.28090   0.53170   0.00000  Uiso   1.00
H770   H     0.80541   0.30088   0.52448   0.00000  Uiso   1.00
H771   H     0.75833   0.07207   0.91797   0.00000  Uiso   1.00
H772   H     0.75894   0.12068   0.89780   0.00000  Uiso   1.00
H773   H     0.80029   0.08826   0.86994   0.00000  Uiso   1.00
H774   H     0.67492   0.21333   0.68663   0.00000  Uiso   1.00
H775   H     0.87274   0.00345   0.71210   0.00000  Uiso   1.00
H776   H     0.84366   0.19563   0.56978   0.00000  Uiso   1.00
H777   H     0.79662   0.25556   0.91878   0.00000  Uiso   1.00
H778   H     0.89400   0.08677   0.61695   0.00000  Uiso   1.00
H779   H     0.86257   0.04243   0.59624   0.00000  Uiso   1.00
H780   H     0.91599   0.06064   0.56380   0.00000  Uiso   1.00
H781   H     0.76633   0.01750   0.81322   0.00000  Uiso   1.00
H782   H     0.82684   0.04673   0.90947   0.00000  Uiso   1.00
O783   O     0.83333   0.16667   0.75000   0.00000  Uiso   1.00
O784   O     0.82118   0.12637   0.65458   0.00000  Uiso   1.00
O785   O     0.79607   0.20391   0.84968   0.00000  Uiso   1.00
O786   O     0.87491   0.17759   0.64606   0.00000  Uiso   1.00
O787   O     0.84118   0.15880   0.84968   0.00000  Uiso   1.00
O788   O     0.78307   0.32825   0.79679   0.00000  Uiso   1.00
O789   O     0.82572   0.05067   0.94220   0.00000  Uiso   1.00
O790   O     0.86669   0.04367   0.99790   0.00000  Uiso   1.00
O791   O     0.78462   0.22189   0.56016   0.00000  Uiso   1.00
O792   O     0.69018   0.20038   0.70430   0.00000  Uiso   1.00
O793   O     0.84597   0.08019   0.78213   0.00000  Uiso   1.00
O794   O     0.81298   0.26085   0.77013   0.00000  Uiso   1.00
O795   O     0.74078   0.13291   0.73413   0.00000  Uiso   1.00
O796   O     0.93360   0.19272   0.71360   0.00000  Uiso   1.00
O797   O     0.73738   0.18878   0.78213   0.00000  Uiso   1.00
O798   O     0.92158   0.15226   0.77013   0.00000  Uiso   1.00
O799   O     0.80426   0.06944   0.73413   0.00000  Uiso   1.00
O800   O     0.87012   0.25620   0.71360   0.00000  Uiso   1.00
Zn801  Zn    0.86005   0.13994   0.78734   0.00000  Uiso   1.00
Zn802  Zn    0.80046   0.12458   0.71875   0.00000  Uiso   1.00
Zn803  Zn    0.87723   0.19775   0.70657   0.00000  Uiso   1.00
Zn804  Zn    0.79560   0.20439   0.78733   0.00000  Uiso   1.00
C805   C     0.05257   0.49238   0.76064   0.00000  Uiso   1.00
C806   C     0.17835   0.49714   0.55574   0.00000  Uiso   1.00
C807   C     0.19997   0.43046   0.56126   0.00000  Uiso   1.00
C808   C     0.28091   0.50724   0.73996   0.00000  Uiso   1.00
C809   C     0.13971   0.52539   0.92101   0.00000  Uiso   1.00
C810   C     0.32719   0.51044   0.73588   0.00000  Uiso   1.00
C811   C     0.00749   0.49012   0.76362   0.00000  Uiso   1.00
C812   C     0.17955   0.65568   0.73725   0.00000  Uiso   1.00
C813   C     0.15081   0.34537   0.76460   0.00000  Uiso   1.00
C814   C     0.15657   0.38924   0.75966   0.00000  Uiso   1.00
C815   C     0.17638   0.61120   0.74030   0.00000  Uiso   1.00
C816   C     0.12655   0.57589   0.98648   0.00000  Uiso   1.00
C817   C     0.18489   0.48138   0.62902   0.00000  Uiso   1.00
C818   C     0.14818   0.51770   0.87122   0.00000  Uiso   1.00
C819   C     0.19081   0.41573   0.51886   0.00000  Uiso   1.00
C820   C     0.19160   0.47077   0.58013   0.00000  Uiso   1.00
C821   C     0.13222   0.56559   0.94009   0.00000  Uiso   1.00
C822   C     0.21902   0.40364   0.58604   0.00000  Uiso   1.00
C823   C     0.11431   0.61794   0.50690   0.00000  Uiso   1.00
C824   C     0.11346   0.43246   0.90307   0.00000  Uiso   1.00
C825   C     0.13188   0.54676   0.51396   0.00000  Uiso   1.00
C826   C     0.14672   0.50816   0.99374   0.00000  Uiso   1.00
C827   C     0.14295   0.49507   0.94910   0.00000  Uiso   1.00
C828   C     0.16494   0.48230   0.51603   0.00000  Uiso   1.00
C829   C     0.17168   0.44113   0.99702   0.00000  Uiso   1.00
C830   C     0.15790   0.42560   0.95729   0.00000  Uiso   1.00
C831   C     0.14104   0.45203   0.93495   0.00000  Uiso   1.00
H832   H     0.31891   0.47128   0.78875   0.00000  Uiso   1.00
H833   H     0.20768   0.36005   0.51840   0.00000  Uiso   1.00
H834   H     0.10590   0.52849   0.57351   0.00000  Uiso   1.00
H835   H     0.11207   0.63770   0.98080   0.00000  Uiso   1.00
H836   H     0.08270   0.61424   0.53170   0.00000  Uiso   1.00
H837   H     0.13874   0.63421   0.52448   0.00000  Uiso   1.00
H838   H     0.09166   0.40540   0.91797   0.00000  Uiso   1.00
H839   H     0.09227   0.45401   0.89780   0.00000  Uiso   1.00
H840   H     0.13363   0.42159   0.86994   0.00000  Uiso   1.00
H841   H     0.00825   0.54666   0.68663   0.00000  Uiso   1.00
H842   H     0.20607   0.33679   0.71210   0.00000  Uiso   1.00
H843   H     0.17699   0.52896   0.56978   0.00000  Uiso   1.00
H844   H     0.12996   0.58889   0.91878   0.00000  Uiso   1.00
H845   H     0.22734   0.42010   0.61695   0.00000  Uiso   1.00
H846   H     0.19590   0.37577   0.59624   0.00000  Uiso   1.00
H847   H     0.24933   0.39397   0.56380   0.00000  Uiso   1.00
H848   H     0.09967   0.35083   0.81322   0.00000  Uiso   1.00
H849   H     0.16017   0.38006   0.90947   0.00000  Uiso   1.00
O850   O     0.16667   0.50000   0.75000   0.00000  Uiso   1.00
O851   O     0.15451   0.45970   0.65458   0.00000  Uiso   1.00
O852   O     0.12940   0.53724   0.84968   0.00000  Uiso   1.00
O853   O     0.20824   0.51092   0.64606   0.00000  Uiso   1.00
O854   O     0.17451   0.49213   0.84968   0.00000  Uiso   1.00
O855   O     0.11641   0.66158   0.79679   0.00000  Uiso   1.00
O856   O     0.15905   0.38401   0.94220   0.00000  Uiso   1.00
O857   O     0.20002   0.37701   0.99790   0.00000  Uiso   1.00
O858   O     0.11795   0.55522   0.56016   0.00000  Uiso   1.00
O859   O     0.02352   0.53371   0.70430   0.00000  Uiso   1.00
O860   O     0.17930   0.41352   0.78213   0.00000  Uiso   1.00
O861   O     0.14632   0.59418   0.77013   0.00000  Uiso   1.00
O862   O     0.07412   0.46625   0.73413   0.00000  Uiso   1.00
O863   O     0.26693   0.52605   0.71360   0.00000  Uiso   1.00
O864   O     0.07071   0.52211   0.78213   0.00000  Uiso   1.00
O865   O     0.25491   0.48559   0.77013   0.00000  Uiso   1.00
O866   O     0.13760   0.40277   0.73413   0.00000  Uiso   1.00
O867   O     0.20345   0.58953   0.71360   0.00000  Uiso   1.00
Zn868  Zn    0.19338   0.47327   0.78734   0.00000  Uiso   1.00
Zn869  Zn    0.13379   0.45791   0.71875   0.00000  Uiso   1.00
Zn870  Zn    0.21056   0.53109   0.70657   0.00000  Uiso   1.00
Zn871  Zn    0.12893   0.53773   0.78733   0.00000  Uiso   1.00
C872   C     0.38591   0.49238   0.76064   0.00000  Uiso   1.00
C873   C     0.51168   0.49714   0.55574   0.00000  Uiso   1.00
C874   C     0.53330   0.43046   0.56126   0.00000  Uiso   1.00
C875   C     0.61424   0.50724   0.73996   0.00000  Uiso   1.00
C876   C     0.47304   0.52539   0.92101   0.00000  Uiso   1.00
C877   C     0.66052   0.51044   0.73588   0.00000  Uiso   1.00
C878   C     0.34083   0.49012   0.76362   0.00000  Uiso   1.00
C879   C     0.51288   0.65568   0.73725   0.00000  Uiso   1.00
C880   C     0.48414   0.34537   0.76460   0.00000  Uiso   1.00
C881   C     0.48990   0.38924   0.75966   0.00000  Uiso   1.00
C882   C     0.50972   0.61120   0.74030   0.00000  Uiso   1.00
C883   C     0.45989   0.57589   0.98648   0.00000  Uiso   1.00
C884   C     0.51822   0.48138   0.62902   0.00000  Uiso   1.00
C885   C     0.48151   0.51770   0.87122   0.00000  Uiso   1.00
C886   C     0.52414   0.41573   0.51886   0.00000  Uiso   1.00
C887   C     0.52494   0.47077   0.58013   0.00000  Uiso   1.00
C888   C     0.46555   0.56559   0.94009   0.00000  Uiso   1.00
C889   C     0.55235   0.40364   0.58604   0.00000  Uiso   1.00
C890   C     0.44764   0.61794   0.50690   0.00000  Uiso   1.00
C891   C     0.44679   0.43246   0.90307   0.00000  Uiso   1.00
C892   C     0.46521   0.54676   0.51396   0.00000  Uiso   1.00
C893   C     0.48006   0.50816   0.99374   0.00000  Uiso   1.00
C894   C     0.47629   0.49507   0.94910   0.00000  Uiso   1.00
C895   C     0.49827   0.48230   0.51603   0.00000  Uiso   1.00
C896   C     0.50501   0.44113   0.99702   0.00000  Uiso   1.00
C897   C     0.49124   0.42560   0.95729   0.00000  Uiso   1.00
C898   C     0.47437   0.45203   0.93495   0.00000  Uiso   1.00
H899   H     0.65225   0.47128   0.78875   0.00000  Uiso   1.00
H900   H     0.54101   0.36005   0.51840   0.00000  Uiso   1.00
H901   H     0.43923   0.52849   0.57351   0.00000  Uiso   1.00
H902   H     0.44540   0.63770   0.98080   0.00000  Uiso   1.00
H903   H     0.41603   0.61424   0.53170   0.00000  Uiso   1.00
H904   H     0.47208   0.63421   0.52448   0.00000  Uiso   1.00
H905   H     0.42500   0.40540   0.91797   0.00000  Uiso   1.00
H906   H     0.42561   0.45401   0.89780   0.00000  Uiso   1.00
H907   H     0.46696   0.42159   0.86994   0.00000  Uiso   1.00
H908   H     0.34159   0.54666   0.68663   0.00000  Uiso   1.00
H909   H     0.53941   0.33679   0.71210   0.00000  Uiso   1.00
H910   H     0.51033   0.52896   0.56978   0.00000  Uiso   1.00
H911   H     0.46329   0.58889   0.91878   0.00000  Uiso   1.00
H912   H     0.56067   0.42010   0.61695   0.00000  Uiso   1.00
H913   H     0.52924   0.37577   0.59624   0.00000  Uiso   1.00
H914   H     0.58266   0.39397   0.56380   0.00000  Uiso   1.00
H915   H     0.43300   0.35083   0.81322   0.00000  Uiso   1.00
H916   H     0.49350   0.38006   0.90947   0.00000  Uiso   1.00
O917   O     0.50000   0.50000   0.75000   0.00000  Uiso   1.00
O918   O     0.48784   0.45970   0.65458   0.00000  Uiso   1.00
O919   O     0.46274   0.53724   0.84968   0.00000  Uiso   1.00
O920   O     0.54157   0.51092   0.64606   0.00000  Uiso   1.00
O921   O     0.50785   0.49213   0.84968   0.00000  Uiso   1.00
O922   O     0.44974   0.66158   0.79679   0.00000  Uiso   1.00
O923   O     0.49238   0.38401   0.94220   0.00000  Uiso   1.00
O924   O     0.53336   0.37701   0.99790   0.00000  Uiso   1.00
O925   O     0.45129   0.55522   0.56016   0.00000  Uiso   1.00
O926   O     0.35685   0.53371   0.70430   0.00000  Uiso   1.00
O927   O     0.51264   0.41352   0.78213   0.00000  Uiso   1.00
O928   O     0.47965   0.59418   0.77013   0.00000  Uiso   1.00
O929   O     0.40745   0.46625   0.73413   0.00000  Uiso   1.00
O930   O     0.60026   0.52605   0.71360   0.00000  Uiso   1.00
O931   O     0.40405   0.52211   0.78213   0.00000  Uiso   1.00
O932   O     0.58824   0.48559   0.77013   0.00000  Uiso   1.00
O933   O     0.47093   0.40277   0.73413   0.00000  Uiso   1.00
O934   O     0.53678   0.58953   0.71360   0.00000  Uiso   1.00
Zn935  Zn    0.52672   0.47327   0.78734   0.00000  Uiso   1.00
Zn936  Zn    0.46713   0.45791   0.71875   0.00000  Uiso   1.00
Zn937  Zn    0.54389   0.53109   0.70657   0.00000  Uiso   1.00
Zn938  Zn    0.46226   0.53773   0.78733   0.00000  Uiso   1.00
C939   C     0.71924   0.49238   0.76064   0.00000  Uiso   1.00
C940   C     0.84501   0.49714   0.55574   0.00000  Uiso   1.00
C941   C     0.86663   0.43046   0.56126   0.00000  Uiso   1.00
C942   C     0.94757   0.50724   0.73996   0.00000  Uiso   1.00
C943   C     0.80637   0.52539   0.92101   0.00000  Uiso   1.00
C944   C     0.99386   0.51044   0.73588   0.00000  Uiso   1.00
C945   C     0.67416   0.49012   0.76362   0.00000  Uiso   1.00
C946   C     0.84622   0.65568   0.73725   0.00000  Uiso   1.00
C947   C     0.81748   0.34537   0.76460   0.00000  Uiso   1.00
C948   C     0.82323   0.38924   0.75966   0.00000  Uiso   1.00
C949   C     0.84305   0.61120   0.74030   0.00000  Uiso   1.00
C950   C     0.79322   0.57589   0.98648   0.00000  Uiso   1.00
C951   C     0.85156   0.48138   0.62902   0.00000  Uiso   1.00
C952   C     0.81485   0.51770   0.87122   0.00000  Uiso   1.00
C953   C     0.85747   0.41573   0.51886   0.00000  Uiso   1.00
C954   C     0.85827   0.47077   0.58013   0.00000  Uiso   1.00
C955   C     0.79888   0.56559   0.94009   0.00000  Uiso   1.00
C956   C     0.88568   0.40364   0.58604   0.00000  Uiso   1.00
C957   C     0.78098   0.61794   0.50690   0.00000  Uiso   1.00
C958   C     0.78013   0.43246   0.90307   0.00000  Uiso   1.00
C959   C     0.79854   0.54676   0.51396   0.00000  Uiso   1.00
C960   C     0.81339   0.50816   0.99374   0.00000  Uiso   1.00
C961   C     0.80962   0.49507   0.94910   0.00000  Uiso   1.00
C962   C     0.83161   0.48230   0.51603   0.00000  Uiso   1.00
C963   C     0.83835   0.44113   0.99702   0.00000  Uiso   1.00
C964   C     0.82457   0.42560   0.95729   0.00000  Uiso   1.00
C965   C     0.80770   0.45203   0.93495   0.00000  Uiso   1.00
H966   H     0.98558   0.47128   0.78875   0.00000  Uiso   1.00
H967   H     0.87435   0.36005   0.51840   0.00000  Uiso   1.00
H968   H     0.77257   0.52849   0.57351   0.00000  Uiso   1.00
H969   H     0.77874   0.63770   0.98080   0.00000  Uiso   1.00
H970   H     0.74936   0.61424   0.53170   0.00000  Uiso   1.00
H971   H     0.80541   0.63421   0.52448   0.00000  Uiso   1.00
H972   H     0.75833   0.40540   0.91797   0.00000  Uiso   1.00
H973   H     0.75894   0.45401   0.89780   0.00000  Uiso   1.00
H974   H     0.80029   0.42159   0.86994   0.00000  Uiso   1.00
H975   H     0.67492   0.54666   0.68663   0.00000  Uiso   1.00
H976   H     0.87274   0.33679   0.71210   0.00000  Uiso   1.00
H977   H     0.84366   0.52896   0.56978   0.00000  Uiso   1.00
H978   H     0.79662   0.58889   0.91878   0.00000  Uiso   1.00
H979   H     0.89400   0.42010   0.61695   0.00000  Uiso   1.00
H980   H     0.86257   0.37577   0.59624   0.00000  Uiso   1.00
H981   H     0.91599   0.39397   0.56380   0.00000  Uiso   1.00
H982   H     0.76633   0.35083   0.81322   0.00000  Uiso   1.00
H983   H     0.82684   0.38006   0.90947   0.00000  Uiso   1.00
O984   O     0.83333   0.50000   0.75000   0.00000  Uiso   1.00
O985   O     0.82118   0.45970   0.65458   0.00000  Uiso   1.00
O986   O     0.79607   0.53724   0.84968   0.00000  Uiso   1.00
O987   O     0.87491   0.51092   0.64606   0.00000  Uiso   1.00
O988   O     0.84118   0.49213   0.84968   0.00000  Uiso   1.00
O989   O     0.78307   0.66158   0.79679   0.00000  Uiso   1.00
O990   O     0.82572   0.38401   0.94220   0.00000  Uiso   1.00
O991   O     0.86669   0.37701   0.99790   0.00000  Uiso   1.00
O992   O     0.78462   0.55522   0.56016   0.00000  Uiso   1.00
O993   O     0.69018   0.53371   0.70430   0.00000  Uiso   1.00
O994   O     0.84597   0.41352   0.78213   0.00000  Uiso   1.00
O995   O     0.81298   0.59418   0.77013   0.00000  Uiso   1.00
O996   O     0.74078   0.46625   0.73413   0.00000  Uiso   1.00
O997   O     0.93360   0.52605   0.71360   0.00000  Uiso   1.00
O998   O     0.73738   0.52211   0.78213   0.00000  Uiso   1.00
O999   O     0.92158   0.48559   0.77013   0.00000  Uiso   1.00
O1000  O     0.80426   0.40277   0.73413   0.00000  Uiso   1.00
O1001  O     0.87012   0.58953   0.71360   0.00000  Uiso   1.00
Zn1002 Zn    0.86005   0.47327   0.78734   0.00000  Uiso   1.00
Zn1003 Zn    0.80046   0.45791   0.71875   0.00000  Uiso   1.00
Zn1004 Zn    0.87723   0.53109   0.70657   0.00000  Uiso   1.00
Zn1005 Zn    0.79560   0.53773   0.78733   0.00000  Uiso   1.00
C1006  C     0.05257   0.82571   0.76064   0.00000  Uiso   1.00
C1007  C     0.17835   0.83047   0.55574   0.00000  Uiso   1.00
C1008  C     0.19997   0.76379   0.56126   0.00000  Uiso   1.00
C1009  C     0.28091   0.84057   0.73996   0.00000  Uiso   1.00
C1010  C     0.13971   0.85873   0.92101   0.00000  Uiso   1.00
C1011  C     0.32719   0.84377   0.73588   0.00000  Uiso   1.00
C1012  C     0.00749   0.82345   0.76362   0.00000  Uiso   1.00
C1013  C     0.17955   0.98901   0.73725   0.00000  Uiso   1.00
C1014  C     0.15081   0.67871   0.76460   0.00000  Uiso   1.00
C1015  C     0.15657   0.72257   0.75966   0.00000  Uiso   1.00
C1016  C     0.17638   0.94454   0.74030   0.00000  Uiso   1.00
C1017  C     0.12655   0.90922   0.98648   0.00000  Uiso   1.00
C1018  C     0.18489   0.81471   0.62902   0.00000  Uiso   1.00
C1019  C     0.14818   0.85104   0.87122   0.00000  Uiso   1.00
C1020  C     0.19081   0.74906   0.51886   0.00000  Uiso   1.00
C1021  C     0.19160   0.80410   0.58013   0.00000  Uiso   1.00
C1022  C     0.13222   0.89892   0.94009   0.00000  Uiso   1.00
C1023  C     0.21902   0.73697   0.58604   0.00000  Uiso   1.00
C1024  C     0.11431   0.95127   0.50690   0.00000  Uiso   1.00
C1025  C     0.11346   0.76580   0.90307   0.00000  Uiso   1.00
C1026  C     0.13188   0.88009   0.51396   0.00000  Uiso   1.00
C1027  C     0.14672   0.84150   0.99374   0.00000  Uiso   1.00
C1028  C     0.14295   0.82841   0.94910   0.00000  Uiso   1.00
C1029  C     0.16494   0.81564   0.51603   0.00000  Uiso   1.00
C1030  C     0.17168   0.77446   0.99702   0.00000  Uiso   1.00
C1031  C     0.15790   0.75893   0.95729   0.00000  Uiso   1.00
C1032  C     0.14104   0.78536   0.93495   0.00000  Uiso   1.00
H1033  H     0.31891   0.80461   0.78875   0.00000  Uiso   1.00
H1034  H     0.20768   0.69339   0.51840   0.00000  Uiso   1.00
H1035  H     0.10590   0.86183   0.57351   0.00000  Uiso   1.00
H1036  H     0.11207   0.97103   0.98080   0.00000  Uiso   1.00
H1037  H     0.08270   0.94757   0.53170   0.00000  Uiso   1.00
H1038  H     0.13874   0.96754   0.52448   0.00000  Uiso   1.00
H1039  H     0.09166   0.73874   0.91797   0.00000  Uiso   1.00
H1040  H     0.09227   0.78735   0.89780   0.00000  Uiso   1.00
H1041  H     0.13363   0.75492   0.86994   0.00000  Uiso   1.00
H1042  H     0.00825   0.88000   0.68663   0.00000  Uiso   1.00
H1043  H     0.20607   0.67012   0.71210   0.00000  Uiso   1.00
H1044  H     0.17699   0.86230   0.56978   0.00000  Uiso   1.00
H1045  H     0.12996   0.92222   0.91878   0.00000  Uiso   1.00
H1046  H     0.22734   0.75344   0.61695   0.00000  Uiso   1.00
H1047  H     0.19590   0.70910   0.59624   0.00000  Uiso   1.00
H1048  H     0.24933   0.72730   0.56380   0.00000  Uiso   1.00
H1049  H     0.09967   0.68417   0.81322   0.00000  Uiso   1.00
H1050  H     0.16017   0.71339   0.90947   0.00000  Uiso   1.00
O1051  O     0.16667   0.83333   0.75000   0.00000  Uiso   1.00
O1052  O     0.15451   0.79304   0.65458   0.00000  Uiso   1.00
O1053  O     0.12940   0.87058   0.84968   0.00000  Uiso   1.00
O1054  O     0.20824   0.84425   0.64606   0.00000  Uiso   1.00
O1055  O     0.17451   0.82546   0.84968   0.00000  Uiso   1.00
O1056  O     0.11641   0.99491   0.79679   0.00000  Uiso   1.00
O1057  O     0.15905   0.71734   0.94220   0.00000  Uiso   1.00
O1058  O     0.20002   0.71034   0.99790   0.00000  Uiso   1.00
O1059  O     0.11795   0.88855   0.56016   0.00000  Uiso   1.00
O1060  O     0.02352   0.86705   0.70430   0.00000  Uiso   1.00
O1061  O     0.17930   0.74686   0.78213   0.00000  Uiso   1.00
O1062  O     0.14632   0.92751   0.77013   0.00000  Uiso   1.00
O1063  O     0.07412   0.79958   0.73413   0.00000  Uiso   1.00
O1064  O     0.26693   0.85939   0.71360   0.00000  Uiso   1.00
O1065  O     0.07071   0.85544   0.78213   0.00000  Uiso   1.00
O1066  O     0.25491   0.81892   0.77013   0.00000  Uiso   1.00
O1067  O     0.13760   0.73610   0.73413   0.00000  Uiso   1.00
O1068  O     0.20345   0.92286   0.71360   0.00000  Uiso   1.00
Zn1069 Zn    0.19338   0.80661   0.78734   0.00000  Uiso   1.00
Zn1070 Zn    0.13379   0.79124   0.71875   0.00000  Uiso   1.00
Zn1071 Zn    0.21056   0.86442   0.70657   0.00000  Uiso   1.00
Zn1072 Zn    0.12893   0.87106   0.78733   0.00000  Uiso   1.00
C1073  C     0.38591   0.82571   0.76064   0.00000  Uiso   1.00
C1074  C     0.51168   0.83047   0.55574   0.00000  Uiso   1.00
C1075  C     0.53330   0.76379   0.56126   0.00000  Uiso   1.00
C1076  C     0.61424   0.84057   0.73996   0.00000  Uiso   1.00
C1077  C     0.47304   0.85873   0.92101   0.00000  Uiso   1.00
C1078  C     0.66052   0.84377   0.73588   0.00000  Uiso   1.00
C1079  C     0.34083   0.82345   0.76362   0.00000  Uiso   1.00
C1080  C     0.51288   0.98901   0.73725   0.00000  Uiso   1.00
C1081  C     0.48414   0.67871   0.76460   0.00000  Uiso   1.00
C1082  C     0.48990   0.72257   0.75966   0.00000  Uiso   1.00
C1083  C     0.50972   0.94454   0.74030   0.00000  Uiso   1.00
C1084  C     0.45989   0.90922   0.98648   0.00000  Uiso   1.00
C1085  C     0.51822   0.81471   0.62902   0.00000  Uiso   1.00
C1086  C     0.48151   0.85104   0.87122   0.00000  Uiso   1.00
C1087  C     0.52414   0.74906   0.51886   0.00000  Uiso   1.00
C1088  C     0.52494   0.80410   0.58013   0.00000  Uiso   1.00
C1089  C     0.46555   0.89892   0.94009   0.00000  Uiso   1.00
C1090  C     0.55235   0.73697   0.58604   0.00000  Uiso   1.00
C1091  C     0.44764   0.95127   0.50690   0.00000  Uiso   1.00
C1092  C     0.44679   0.76580   0.90307   0.00000  Uiso   1.00
C1093  C     0.46521   0.88009   0.51396   0.00000  Uiso   1.00
C1094  C     0.48006   0.84150   0.99374   0.00000  Uiso   1.00
C1095  C     0.47629   0.82841   0.94910   0.00000  Uiso   1.00
C1096  C     0.49827   0.81564   0.51603   0.00000  Uiso   1.00
C1097  C     0.50501   0.77446   0.99702   0.00000  Uiso   1.00
C1098  C     0.49124   0.75893   0.95729   0.00000  Uiso   1.00
C1099  C     0.47437   0.78536   0.93495   0.00000  Uiso   1.00
H1100  H     0.65225   0.80461   0.78875   0.00000  Uiso   1.00
H1101  H     0.54101   0.69339   0.51840   0.00000  Uiso   1.00
H1102  H     0.43923   0.86183   0.57351   0.00000  Uiso   1.00
H1103  H     0.44540   0.97103   0.98080   0.00000  Uiso   1.00
H1104  H     0.41603   0.94757   0.53170   0.00000  Uiso   1.00
H1105  H     0.47208   0.96754   0.52448   0.00000  Uiso   1.00
H1106  H     0.42500   0.73874   0.91797   0.00000  Uiso   1.00
H1107  H     0.42561   0.78735   0.89780   0.00000  Uiso   1.00
H1108  H     0.46696   0.75492   0.86994   0.00000  Uiso   1.00
H1109  H     0.34159   0.88000   0.68663   0.00000  Uiso   1.00
H1110  H     0.53941   0.67012   0.71210   0.00000  Uiso   1.00
H1111  H     0.51033   0.86230   0.56978   0.00000  Uiso   1.00
H1112  H     0.46329   0.92222   0.91878   0.00000  Uiso   1.00
H1113  H     0.56067   0.75344   0.61695   0.00000  Uiso   1.00
H1114  H     0.52924   0.70910   0.59624   0.00000  Uiso   1.00
H1115  H     0.58266   0.72730   0.56380   0.00000  Uiso   1.00
H1116  H     0.43300   0.68417   0.81322   0.00000  Uiso   1.00
H1117  H     0.49350   0.71339   0.90947   0.00000  Uiso   1.00
O1118  O     0.50000   0.83333   0.75000   0.00000  Uiso   1.00
O1119  O     0.48784   0.79304   0.65458   0.00000  Uiso   1.00
O1120  O     0.46274   0.87058   0.84968   0.00000  Uiso   1.00
O1121  O     0.54157   0.84425   0.64606   0.00000  Uiso   1.00
O1122  O     0.50785   0.82546   0.84968   0.00000  Uiso   1.00
O1123  O     0.44974   0.99491   0.79679   0.00000  Uiso   1.00
O1124  O     0.49238   0.71734   0.94220   0.00000  Uiso   1.00
O1125  O     0.53336   0.71034   0.99790   0.00000  Uiso   1.00
O1126  O     0.45129   0.88855   0.56016   0.00000  Uiso   1.00
O1127  O     0.35685   0.86705   0.70430   0.00000  Uiso   1.00
O1128  O     0.51264   0.74686   0.78213   0.00000  Uiso   1.00
O1129  O     0.47965   0.92751   0.77013   0.00000  Uiso   1.00
O1130  O     0.40745   0.79958   0.73413   0.00000  Uiso   1.00
O1131  O     0.60026   0.85939   0.71360   0.00000  Uiso   1.00
O1132  O     0.40405   0.85544   0.78213   0.00000  Uiso   1.00
O1133  O     0.58824   0.81892   0.77013   0.00000  Uiso   1.00
O1134  O     0.47093   0.73610   0.73413   0.00000  Uiso   1.00
O1135  O     0.53678   0.92286   0.71360   0.00000  Uiso   1.00
Zn1136 Zn    0.52672   0.80661   0.78734   0.00000  Uiso   1.00
Zn1137 Zn    0.46713   0.79124   0.71875   0.00000  Uiso   1.00
Zn1138 Zn    0.54389   0.86442   0.70657   0.00000  Uiso   1.00
Zn1139 Zn    0.46226   0.87106   0.78733   0.00000  Uiso   1.00
C1140  C     0.71924   0.82571   0.76064   0.00000  Uiso   1.00
C1141  C     0.84501   0.83047   0.55574   0.00000  Uiso   1.00
C1142  C     0.86663   0.76379   0.56126   0.00000  Uiso   1.00
C1143  C     0.94757   0.84057   0.73996   0.00000  Uiso   1.00
C1144  C     0.80637   0.85873   0.92101   0.00000  Uiso   1.00
C1145  C     0.99386   0.84377   0.73588   0.00000  Uiso   1.00
C1146  C     0.67416   0.82345   0.76362   0.00000  Uiso   1.00
C1147  C     0.84622   0.98901   0.73725   0.00000  Uiso   1.00
C1148  C     0.81748   0.67871   0.76460   0.00000  Uiso   1.00
C1149  C     0.82323   0.72257   0.75966   0.00000  Uiso   1.00
C1150  C     0.84305   0.94454   0.74030   0.00000  Uiso   1.00
C1151  C     0.79322   0.90922   0.98648   0.00000  Uiso   1.00
C1152  C     0.85156   0.81471   0.62902   0.00000  Uiso   1.00
C1153  C     0.81485   0.85104   0.87122   0.00000  Uiso   1.00
C1154  C     0.85747   0.74906   0.51886   0.00000  Uiso   1.00
C1155  C     0.85827   0.80410   0.58013   0.00000  Uiso   1.00
C1156  C     0.79888   0.89892   0.94009   0.00000  Uiso   1.00
C1157  C     0.88568   0.73697   0.58604   0.00000  Uiso   1.00
C1158  C     0.78098   0.95127   0.50690   0.00000  Uiso   1.00
C1159  C     0.78013   0.76580   0.90307   0.00000  Uiso   1.00
C1160  C     0.79854   0.88009   0.51396   0.00000  Uiso   1.00
C1161  C     0.81339   0.84150   0.99374   0.00000  Uiso   1.00
C1162  C     0.80962   0.82841   0.94910   0.00000  Uiso   1.00
C1163  C     0.83161   0.81564   0.51603   0.00000  Uiso   1.00
C1164  C     0.83835   0.77446   0.99702   0.00000  Uiso   1.00
C1165  C     0.82457   0.75893   0.95729   0.00000  Uiso   1.00
C1166  C     0.80770   0.78536   0.93495   0.00000  Uiso   1.00
H1167  H     0.98558   0.80461   0.78875   0.00000  Uiso   1.00
H1168  H     0.87435   0.69339   0.51840   0.00000  Uiso   1.00
H1169  H     0.77257   0.86183   0.57351   0.00000  Uiso   1.00
H1170  H     0.77874   0.97103   0.98080   0.00000  Uiso   1.00
H1171  H     0.74936   0.94757   0.53170   0.00000  Uiso   1.00
H1172  H     0.80541   0.96754   0.52448   0.00000  Uiso   1.00
H1173  H     0.75833   0.73874   0.91797   0.00000  Uiso   1.00
H1174  H     0.75894   0.78735   0.89780   0.00000  Uiso   1.00
H1175  H     0.80029   0.75492   0.86994   0.00000  Uiso   1.00
H1176  H     0.67492   0.88000   0.68663   0.00000  Uiso   1.00
H1177  H     0.87274   0.67012   0.71210   0.00000  Uiso   1.00
H1178  H     0.84366   0.86230   0.56978   0.00000  Uiso   1.00
H1179  H     0.79662   0.92222   0.91878   0.00000  Uiso   1.00
H1180  H     0.89400   0.75344   0.61695   0.00000  Uiso   1.00
H1181  H     0.86257   0.70910   0.59624   0.00000  Uiso   1.00
H1182  H     0.91599   0.72730   0.56380   0.00000  Uiso   1.00
H1183  H     0.76633   0.68417   0.81322   0.00000  Uiso   1.00
H1184  H     0.82684   0.71339   0.90947   0.00000  Uiso   1.00
O1185  O     0.83333   0.83333   0.75000   0.00000  Uiso   1.00
O1186  O     0.82118   0.79304   0.65458   0.00000  Uiso   1.00
O1187  O     0.79607   0.87058   0.84968   0.00000  Uiso   1.00
O1188  O     0.87491   0.84425   0.64606   0.00000  Uiso   1.00
O1189  O     0.84118   0.82546   0.84968   0.00000  Uiso   1.00
O1190  O     0.78307   0.99491   0.79679   0.00000  Uiso   1.00
O1191  O     0.82572   0.71734   0.94220   0.00000  Uiso   1.00
O1192  O     0.86669   0.71034   0.99790   0.00000  Uiso   1.00
O1193  O     0.78462   0.88855   0.56016   0.00000  Uiso   1.00
O1194  O     0.69018   0.86705   0.70430   0.00000  Uiso   1.00
O1195  O     0.84597   0.74686   0.78213   0.00000  Uiso   1.00
O1196  O     0.81298   0.92751   0.77013   0.00000  Uiso   1.00
O1197  O     0.74078   0.79958   0.73413   0.00000  Uiso   1.00
O1198  O     0.93360   0.85939   0.71360   0.00000  Uiso   1.00
O1199  O     0.73738   0.85544   0.78213   0.00000  Uiso   1.00
O1200  O     0.92158   0.81892   0.77013   0.00000  Uiso   1.00
O1201  O     0.80426   0.73610   0.73413   0.00000  Uiso   1.00
O1202  O     0.87012   0.92286   0.71360   0.00000  Uiso   1.00
Zn1203 Zn    0.86005   0.80661   0.78734   0.00000  Uiso   1.00
Zn1204 Zn    0.80046   0.79124   0.71875   0.00000  Uiso   1.00
Zn1205 Zn    0.87723   0.86442   0.70657   0.00000  Uiso   1.00
Zn1206 Zn    0.79560   0.87106   0.78733   0.00000  Uiso   1.00
loop_
_geom_bond_atom_site_label_1
_geom_bond_atom_site_label_2
_geom_bond_distance
_geom_bond_site_symmetry_2
_ccdc_geom_bond_type
C1     O58     1.265   .     A
C1     O60     1.266   .     A
C1     C7      1.438   .     S
C2     C16     1.387   .     A
C2     H39     1.079   .     S
C2     C24     1.408   .     A
C3     C18     1.517   .     S
C3     C15     1.422   .     A
C3     C16     1.409   .     A
C4     O59     1.279   .     A
C4     C6      1.469   .     S
C4     O61     1.283   .     A
C5     C23     1.422   .     A
C5     C14     1.479   .     S
C5     C17     1.401   .     A
C6     C74     1.336   .     S
C6     O122    1.386   .     S
C7     C140    1.336   1_455 S
C7     H162    1.086   1_455 S
C8     C11     1.453   .     S
C8     C210    1.342   .     S
C8     H239    1.088   .     S
C9     C10     1.438   .     S
C9     C410    1.342   1_545 S
C9     O453    1.384   1_545 S
C10    O62     1.269   .     A
C10    O56     1.269   .     A
C11    O63     1.274   .     A
C11    O57     1.265   .     A
C12    C17     1.394   .     A
C12    C622    1.505   .     S
C12    C624    1.403   .     S
C13    O49     1.283   .     A
C13    C16     1.466   .     S
C13    O47     1.271   .     A
C14    O50     1.288   .     A
C14    O48     1.284   .     A
C15    C628    1.426   1_554 S
C15    O656    1.386   1_554 S
C17    H40     1.084   .     S
C18    H42     1.111   .     S
C18    H43     1.110   .     S
C18    H41     1.109   .     S
C19    H32     1.110   .     S
C19    H33     1.110   .     S
C19    C615    1.505   1_554 S
C19    H634    1.111   1_554 S
C20    C27     1.518   .     S
C20    H34     1.111   .     S
C20    H36     1.109   .     S
C20    H35     1.109   .     S
C21    O54     1.380   .     S
C21    C615    1.403   1_554 S
C21    C625    1.431   1_554 S
C22    C23     1.417   .     A
C22    C624    1.431   .     S
C22    C627    1.427   .     S
C23    C27     1.418   .     A
C24    C625    1.427   1_554 S
C24    C628    1.425   1_554 S
C25    C26     1.419   .     A
C25    C627    1.425   .     S
C25    C618    1.426   .     S
C26    O52     1.384   .     S
C26    C27     1.414   .     A
H28    C74     1.086   .     S
H29    O656    0.986   1_554 S
H30    O54     0.992   .     S
H31    C622    1.111   .     S
H37    O55     0.990   .     S
H38    C410    1.088   1_545 S
H44    O453    0.992   1_545 S
H45    O52     0.990   .     S
O46    Zn67    1.931   .     S
O46    Zn66    1.937   .     S
O46    Zn65    1.930   .     S
O46    Zn64    1.955   .     S
O47    Zn65    1.915   .     S
O48    Zn67    1.921   .     S
O49    Zn66    1.912   .     S
O50    Zn64    1.908   .     S
O51    H245    0.992   .     S
O51    C210    1.384   .     S
O53    C618    1.386   .     S
O53    H632    0.986   .     S
O55    C140    1.386   1_455 S
O56    Zn64    1.933   .     S
O57    Zn67    1.940   .     S
O58    Zn65    1.931   .     S
O59    Zn66    1.937   .     S
O60    Zn67    1.930   .     S
O61    Zn64    1.928   .     S
O62    Zn65    1.946   .     S
O63    Zn66    1.937   .     S
C68    O125    1.265   .     A
C68    O127    1.266   .     A
C68    C74     1.438   .     S
C69    C83     1.387   .     A
C69    H106    1.079   .     S
C69    C91     1.408   .     A
C70    C85     1.517   .     S
C70    C82     1.422   .     A
C70    C83     1.409   .     A
C71    O126    1.279   .     A
C71    C73     1.469   .     S
C71    O128    1.283   .     A
C72    C90     1.422   .     A
C72    C81     1.479   .     S
C72    C84     1.401   .     A
C73    C141    1.336   .     S
C73    O189    1.386   .     S
C75    C78     1.453   .     S
C75    C277    1.342   .     S
C75    H306    1.088   .     S
C76    C77     1.438   .     S
C76    C477    1.342   1_545 S
C76    O520    1.384   1_545 S
C77    O129    1.269   .     A
C77    O123    1.269   .     A
C78    O130    1.274   .     A
C78    O124    1.265   .     A
C79    C84     1.394   .     A
C79    C689    1.505   .     S
C79    C691    1.403   .     S
C80    O116    1.283   .     A
C80    C83     1.466   .     S
C80    O114    1.271   .     A
C81    O117    1.288   .     A
C81    O115    1.284   .     A
C82    C695    1.426   1_554 S
C82    O723    1.386   1_554 S
C84    H107    1.084   .     S
C85    H109    1.111   .     S
C85    H110    1.110   .     S
C85    H108    1.109   .     S
C86    H99     1.110   .     S
C86    H100    1.110   .     S
C86    C682    1.505   1_554 S
C86    H701    1.111   1_554 S
C87    C94     1.518   .     S
C87    H101    1.111   .     S
C87    H103    1.109   .     S
C87    H102    1.109   .     S
C88    O121    1.380   .     S
C88    C682    1.403   1_554 S
C88    C692    1.431   1_554 S
C89    C90     1.417   .     A
C89    C691    1.431   .     S
C89    C694    1.427   .     S
C90    C94     1.418   .     A
C91    C692    1.427   1_554 S
C91    C695    1.425   1_554 S
C92    C93     1.419   .     A
C92    C694    1.425   .     S
C92    C685    1.426   .     S
C93    O119    1.384   .     S
C93    C94     1.414   .     A
H95    C141    1.086   .     S
H96    O723    0.986   1_554 S
H97    O121    0.992   .     S
H98    C689    1.111   .     S
H104   O122    0.990   .     S
H105   C477    1.088   1_545 S
H111   O520    0.992   1_545 S
H112   O119    0.990   .     S
O113   Zn134   1.931   .     S
O113   Zn133   1.937   .     S
O113   Zn132   1.930   .     S
O113   Zn131   1.955   .     S
O114   Zn132   1.915   .     S
O115   Zn134   1.921   .     S
O116   Zn133   1.912   .     S
O117   Zn131   1.908   .     S
O118   H312    0.992   .     S
O118   C277    1.384   .     S
O120   C685    1.386   .     S
O120   H699    0.986   .     S
O123   Zn131   1.933   .     S
O124   Zn134   1.940   .     S
O125   Zn132   1.931   .     S
O126   Zn133   1.937   .     S
O127   Zn134   1.930   .     S
O128   Zn131   1.928   .     S
O129   Zn132   1.946   .     S
O130   Zn133   1.937   .     S
C135   O192    1.265   .     A
C135   O194    1.266   .     A
C135   C141    1.438   .     S
C136   C150    1.387   .     A
C136   H173    1.079   .     S
C136   C158    1.408   .     A
C137   C152    1.517   .     S
C137   C149    1.422   .     A
C137   C150    1.409   .     A
C138   O193    1.279   .     A
C138   C140    1.469   .     S
C138   O195    1.283   .     A
C139   C157    1.422   .     A
C139   C148    1.479   .     S
C139   C151    1.401   .     A
C140   C7      1.336   1_655 S
C140   O55     1.386   1_655 S
C142   C145    1.453   .     S
C142   C344    1.342   .     S
C142   H373    1.088   .     S
C143   C144    1.438   .     S
C143   C544    1.342   1_545 S
C143   O587    1.384   1_545 S
C144   O196    1.269   .     A
C144   O190    1.269   .     A
C145   O197    1.274   .     A
C145   O191    1.265   .     A
C146   C151    1.394   .     A
C146   C756    1.505   .     S
C146   C758    1.403   .     S
C147   O183    1.283   .     A
C147   C150    1.466   .     S
C147   O181    1.271   .     A
C148   O184    1.288   .     A
C148   O182    1.284   .     A
C149   C762    1.426   1_554 S
C149   O790    1.386   1_554 S
C151   H174    1.084   .     S
C152   H176    1.111   .     S
C152   H177    1.110   .     S
C152   H175    1.109   .     S
C153   H166    1.110   .     S
C153   H167    1.110   .     S
C153   C749    1.505   1_554 S
C153   H768    1.111   1_554 S
C154   C161    1.518   .     S
C154   H168    1.111   .     S
C154   H170    1.109   .     S
C154   H169    1.109   .     S
C155   O188    1.380   .     S
C155   C749    1.403   1_554 S
C155   C759    1.431   1_554 S
C156   C157    1.417   .     A
C156   C758    1.431   .     S
C156   C761    1.427   .     S
C157   C161    1.418   .     A
C158   C759    1.427   1_554 S
C158   C762    1.425   1_554 S
C159   C160    1.419   .     A
C159   C761    1.425   .     S
C159   C752    1.426   .     S
C160   O186    1.384   .     S
C160   C161    1.414   .     A
H162   C7      1.086   1_655 S
H163   O790    0.986   1_554 S
H164   O188    0.992   .     S
H165   C756    1.111   .     S
H171   O189    0.990   .     S
H172   C544    1.088   1_545 S
H178   O587    0.992   1_545 S
H179   O186    0.990   .     S
O180   Zn201   1.931   .     S
O180   Zn200   1.937   .     S
O180   Zn199   1.930   .     S
O180   Zn198   1.955   .     S
O181   Zn199   1.915   .     S
O182   Zn201   1.921   .     S
O183   Zn200   1.912   .     S
O184   Zn198   1.908   .     S
O185   H379    0.992   .     S
O185   C344    1.384   .     S
O187   C752    1.386   .     S
O187   H766    0.986   .     S
O190   Zn198   1.933   .     S
O191   Zn201   1.940   .     S
O192   Zn199   1.931   .     S
O193   Zn200   1.937   .     S
O194   Zn201   1.930   .     S
O195   Zn198   1.928   .     S
O196   Zn199   1.946   .     S
O197   Zn200   1.937   .     S
C202   O259    1.265   .     A
C202   O261    1.266   .     A
C202   C208    1.438   .     S
C203   C217    1.387   .     A
C203   H240    1.079   .     S
C203   C225    1.408   .     A
C204   C219    1.517   .     S
C204   C216    1.422   .     A
C204   C217    1.409   .     A
C205   O260    1.279   .     A
C205   C207    1.469   .     S
C205   O262    1.283   .     A
C206   C224    1.422   .     A
C206   C215    1.479   .     S
C206   C218    1.401   .     A
C207   C275    1.336   .     S
C207   O323    1.386   .     S
C208   C341    1.336   1_455 S
C208   H363    1.086   1_455 S
C209   C212    1.453   .     S
C209   C411    1.342   .     S
C209   H440    1.088   .     S
C210   C211    1.438   .     S
C211   O263    1.269   .     A
C211   O257    1.269   .     A
C212   O264    1.274   .     A
C212   O258    1.265   .     A
C213   C218    1.394   .     A
C213   C823    1.505   .     S
C213   C825    1.403   .     S
C214   O250    1.283   .     A
C214   C217    1.466   .     S
C214   O248    1.271   .     A
C215   O251    1.288   .     A
C215   O249    1.284   .     A
C216   C829    1.426   1_554 S
C216   O857    1.386   1_554 S
C218   H241    1.084   .     S
C219   H243    1.111   .     S
C219   H244    1.110   .     S
C219   H242    1.109   .     S
C220   H233    1.110   .     S
C220   H234    1.110   .     S
C220   C816    1.505   1_554 S
C220   H835    1.111   1_554 S
C221   C228    1.518   .     S
C221   H235    1.111   .     S
C221   H237    1.109   .     S
C221   H236    1.109   .     S
C222   O255    1.380   .     S
C222   C816    1.403   1_554 S
C222   C826    1.431   1_554 S
C223   C224    1.417   .     A
C223   C825    1.431   .     S
C223   C828    1.427   .     S
C224   C228    1.418   .     A
C225   C826    1.427   1_554 S
C225   C829    1.425   1_554 S
C226   C227    1.419   .     A
C226   C828    1.425   .     S
C226   C819    1.426   .     S
C227   O253    1.384   .     S
C227   C228    1.414   .     A
H229   C275    1.086   .     S
H230   O857    0.986   1_554 S
H231   O255    0.992   .     S
H232   C823    1.111   .     S
H238   O256    0.990   .     S
H246   O253    0.990   .     S
O247   Zn268   1.931   .     S
O247   Zn267   1.937   .     S
O247   Zn266   1.930   .     S
O247   Zn265   1.955   .     S
O248   Zn266   1.915   .     S
O249   Zn268   1.921   .     S
O250   Zn267   1.912   .     S
O251   Zn265   1.908   .     S
O252   H446    0.992   .     S
O252   C411    1.384   .     S
O254   C819    1.386   .     S
O254   H833    0.986   .     S
O256   C341    1.386   1_455 S
O257   Zn265   1.933   .     S
O258   Zn268   1.940   .     S
O259   Zn266   1.931   .     S
O260   Zn267   1.937   .     S
O261   Zn268   1.930   .     S
O262   Zn265   1.928   .     S
O263   Zn266   1.946   .     S
O264   Zn267   1.937   .     S
C269   O326    1.265   .     A
C269   O328    1.266   .     A
C269   C275    1.438   .     S
C270   C284    1.387   .     A
C270   H307    1.079   .     S
C270   C292    1.408   .     A
C271   C286    1.517   .     S
C271   C283    1.422   .     A
C271   C284    1.409   .     A
C272   O327    1.279   .     A
C272   C274    1.469   .     S
C272   O329    1.283   .     A
C273   C291    1.422   .     A
C273   C282    1.479   .     S
C273   C285    1.401   .     A
C274   C342    1.336   .     S
C274   O390    1.386   .     S
C276   C279    1.453   .     S
C276   C478    1.342   .     S
C276   H507    1.088   .     S
C277   C278    1.438   .     S
C278   O330    1.269   .     A
C278   O324    1.269   .     A
C279   O331    1.274   .     A
C279   O325    1.265   .     A
C280   C285    1.394   .     A
C280   C890    1.505   .     S
C280   C892    1.403   .     S
C281   O317    1.283   .     A
C281   C284    1.466   .     S
C281   O315    1.271   .     A
C282   O318    1.288   .     A
C282   O316    1.284   .     A
C283   C896    1.426   1_554 S
C283   O924    1.386   1_554 S
C285   H308    1.084   .     S
C286   H310    1.111   .     S
C286   H311    1.110   .     S
C286   H309    1.109   .     S
C287   H300    1.110   .     S
C287   H301    1.110   .     S
C287   C883    1.505   1_554 S
C287   H902    1.111   1_554 S
C288   C295    1.518   .     S
C288   H302    1.111   .     S
C288   H304    1.109   .     S
C288   H303    1.109   .     S
C289   O322    1.380   .     S
C289   C883    1.403   1_554 S
C289   C893    1.431   1_554 S
C290   C291    1.417   .     A
C290   C892    1.431   .     S
C290   C895    1.427   .     S
C291   C295    1.418   .     A
C292   C893    1.427   1_554 S
C292   C896    1.425   1_554 S
C293   C294    1.419   .     A
C293   C895    1.425   .     S
C293   C886    1.426   .     S
C294   O320    1.384   .     S
C294   C295    1.414   .     A
H296   C342    1.086   .     S
H297   O924    0.986   1_554 S
H298   O322    0.992   .     S
H299   C890    1.111   .     S
H305   O323    0.990   .     S
H313   O320    0.990   .     S
O314   Zn335   1.931   .     S
O314   Zn334   1.937   .     S
O314   Zn333   1.930   .     S
O314   Zn332   1.955   .     S
O315   Zn333   1.915   .     S
O316   Zn335   1.921   .     S
O317   Zn334   1.912   .     S
O318   Zn332   1.908   .     S
O319   H513    0.992   .     S
O319   C478    1.384   .     S
O321   C886    1.386   .     S
O321   H900    0.986   .     S
O324   Zn332   1.933   .     S
O325   Zn335   1.940   .     S
O326   Zn333   1.931   .     S
O327   Zn334   1.937   .     S
O328   Zn335   1.930   .     S
O329   Zn332   1.928   .     S
O330   Zn333   1.946   .     S
O331   Zn334   1.937   .     S
C336   O393    1.265   .     A
C336   O395    1.266   .     A
C336   C342    1.438   .     S
C337   C351    1.387   .     A
C337   H374    1.079   .     S
C337   C359    1.408   .     A
C338   C353    1.517   .     S
C338   C350    1.422   .     A
C338   C351    1.409   .     A
C339   O394    1.279   .     A
C339   C341    1.469   .     S
C339   O396    1.283   .     A
C340   C358    1.422   .     A
C340   C349    1.479   .     S
C340   C352    1.401   .     A
C341   C208    1.336   1_655 S
C341   O256    1.386   1_655 S
C343   C346    1.453   .     S
C343   C545    1.342   .     S
C343   H574    1.088   .     S
C344   C345    1.438   .     S
C345   O397    1.269   .     A
C345   O391    1.269   .     A
C346   O398    1.274   .     A
C346   O392    1.265   .     A
C347   C352    1.394   .     A
C347   C957    1.505   .     S
C347   C959    1.403   .     S
C348   O384    1.283   .     A
C348   C351    1.466   .     S
C348   O382    1.271   .     A
C349   O385    1.288   .     A
C349   O383    1.284   .     A
C350   C963    1.426   1_554 S
C350   O991    1.386   1_554 S
C352   H375    1.084   .     S
C353   H377    1.111   .     S
C353   H378    1.110   .     S
C353   H376    1.109   .     S
C354   H367    1.110   .     S
C354   H368    1.110   .     S
C354   C950    1.505   1_554 S
C354   H969    1.111   1_554 S
C355   C362    1.518   .     S
C355   H369    1.111   .     S
C355   H371    1.109   .     S
C355   H370    1.109   .     S
C356   O389    1.380   .     S
C356   C950    1.403   1_554 S
C356   C960    1.431   1_554 S
C357   C358    1.417   .     A
C357   C959    1.431   .     S
C357   C962    1.427   .     S
C358   C362    1.418   .     A
C359   C960    1.427   1_554 S
C359   C963    1.425   1_554 S
C360   C361    1.419   .     A
C360   C962    1.425   .     S
C360   C953    1.426   .     S
C361   O387    1.384   .     S
C361   C362    1.414   .     A
H363   C208    1.086   1_655 S
H364   O991    0.986   1_554 S
H365   O389    0.992   .     S
H366   C957    1.111   .     S
H372   O390    0.990   .     S
H380   O387    0.990   .     S
O381   Zn402   1.931   .     S
O381   Zn401   1.937   .     S
O381   Zn400   1.930   .     S
O381   Zn399   1.955   .     S
O382   Zn400   1.915   .     S
O383   Zn402   1.921   .     S
O384   Zn401   1.912   .     S
O385   Zn399   1.908   .     S
O386   H580    0.992   .     S
O386   C545    1.384   .     S
O388   C953    1.386   .     S
O388   H967    0.986   .     S
O391   Zn399   1.933   .     S
O392   Zn402   1.940   .     S
O393   Zn400   1.931   .     S
O394   Zn401   1.937   .     S
O395   Zn402   1.930   .     S
O396   Zn399   1.928   .     S
O397   Zn400   1.946   .     S
O398   Zn401   1.937   .     S
C403   O460    1.265   .     A
C403   O462    1.266   .     A
C403   C409    1.438   .     S
C404   C418    1.387   .     A
C404   H441    1.079   .     S
C404   C426    1.408   .     A
C405   C420    1.517   .     S
C405   C417    1.422   .     A
C405   C418    1.409   .     A
C406   O461    1.279   .     A
C406   C408    1.469   .     S
C406   O463    1.283   .     A
C407   C425    1.422   .     A
C407   C416    1.479   .     S
C407   C419    1.401   .     A
C408   C476    1.336   .     S
C408   O524    1.386   .     S
C409   C542    1.336   1_455 S
C409   H564    1.086   1_455 S
C410   C413    1.453   .     S
C410   C9      1.342   1_565 S
C410   H38     1.088   1_565 S
C411   C412    1.438   .     S
C412   O464    1.269   .     A
C412   O458    1.269   .     A
C413   O465    1.274   .     A
C413   O459    1.265   .     A
C414   C419    1.394   .     A
C414   C1024   1.505   .     S
C414   C1026   1.403   .     S
C415   O451    1.283   .     A
C415   C418    1.466   .     S
C415   O449    1.271   .     A
C416   O452    1.288   .     A
C416   O450    1.284   .     A
C417   C1030   1.426   1_554 S
C417   O1058   1.386   1_554 S
C419   H442    1.084   .     S
C420   H444    1.111   .     S
C420   H445    1.110   .     S
C420   H443    1.109   .     S
C421   H434    1.110   .     S
C421   H435    1.110   .     S
C421   C1017   1.505   1_554 S
C421   H1036   1.111   1_554 S
C422   C429    1.518   .     S
C422   H436    1.111   .     S
C422   H438    1.109   .     S
C422   H437    1.109   .     S
C423   O456    1.380   .     S
C423   C1017   1.403   1_554 S
C423   C1027   1.431   1_554 S
C424   C425    1.417   .     A
C424   C1026   1.431   .     S
C424   C1029   1.427   .     S
C425   C429    1.418   .     A
C426   C1027   1.427   1_554 S
C426   C1030   1.425   1_554 S
C427   C428    1.419   .     A
C427   C1029   1.425   .     S
C427   C1020   1.426   .     S
C428   O454    1.384   .     S
C428   C429    1.414   .     A
H430   C476    1.086   .     S
H431   O1058   0.986   1_554 S
H432   O456    0.992   .     S
H433   C1024   1.111   .     S
H439   O457    0.990   .     S
H447   O454    0.990   .     S
O448   Zn469   1.931   .     S
O448   Zn468   1.937   .     S
O448   Zn467   1.930   .     S
O448   Zn466   1.955   .     S
O449   Zn467   1.915   .     S
O450   Zn469   1.921   .     S
O451   Zn468   1.912   .     S
O452   Zn466   1.908   .     S
O453   H44     0.992   1_565 S
O453   C9      1.384   1_565 S
O455   C1020   1.386   .     S
O455   H1034   0.986   .     S
O457   C542    1.386   1_455 S
O458   Zn466   1.933   .     S
O459   Zn469   1.940   .     S
O460   Zn467   1.931   .     S
O461   Zn468   1.937   .     S
O462   Zn469   1.930   .     S
O463   Zn466   1.928   .     S
O464   Zn467   1.946   .     S
O465   Zn468   1.937   .     S
C470   O527    1.265   .     A
C470   O529    1.266   .     A
C470   C476    1.438   .     S
C471   C485    1.387   .     A
C471   H508    1.079   .     S
C471   C493    1.408   .     A
C472   C487    1.517   .     S
C472   C484    1.422   .     A
C472   C485    1.409   .     A
C473   O528    1.279   .     A
C473   C475    1.469   .     S
C473   O530    1.283   .     A
C474   C492    1.422   .     A
C474   C483    1.479   .     S
C474   C486    1.401   .     A
C475   C543    1.336   .     S
C475   O591    1.386   .     S
C477   C480    1.453   .     S
C477   C76     1.342   1_565 S
C477   H105    1.088   1_565 S
C478   C479    1.438   .     S
C479   O531    1.269   .     A
C479   O525    1.269   .     A
C480   O532    1.274   .     A
C480   O526    1.265   .     A
C481   C486    1.394   .     A
C481   C1091   1.505   .     S
C481   C1093   1.403   .     S
C482   O518    1.283   .     A
C482   C485    1.466   .     S
C482   O516    1.271   .     A
C483   O519    1.288   .     A
C483   O517    1.284   .     A
C484   C1097   1.426   1_554 S
C484   O1125   1.386   1_554 S
C486   H509    1.084   .     S
C487   H511    1.111   .     S
C487   H512    1.110   .     S
C487   H510    1.109   .     S
C488   H501    1.110   .     S
C488   H502    1.110   .     S
C488   C1084   1.505   1_554 S
C488   H1103   1.111   1_554 S
C489   C496    1.518   .     S
C489   H503    1.111   .     S
C489   H505    1.109   .     S
C489   H504    1.109   .     S
C490   O523    1.380   .     S
C490   C1084   1.403   1_554 S
C490   C1094   1.431   1_554 S
C491   C492    1.417   .     A
C491   C1093   1.431   .     S
C491   C1096   1.427   .     S
C492   C496    1.418   .     A
C493   C1094   1.427   1_554 S
C493   C1097   1.425   1_554 S
C494   C495    1.419   .     A
C494   C1096   1.425   .     S
C494   C1087   1.426   .     S
C495   O521    1.384   .     S
C495   C496    1.414   .     A
H497   C543    1.086   .     S
H498   O1125   0.986   1_554 S
H499   O523    0.992   .     S
H500   C1091   1.111   .     S
H506   O524    0.990   .     S
H514   O521    0.990   .     S
O515   Zn536   1.931   .     S
O515   Zn535   1.937   .     S
O515   Zn534   1.930   .     S
O515   Zn533   1.955   .     S
O516   Zn534   1.915   .     S
O517   Zn536   1.921   .     S
O518   Zn535   1.912   .     S
O519   Zn533   1.908   .     S
O520   H111    0.992   1_565 S
O520   C76     1.384   1_565 S
O522   C1087   1.386   .     S
O522   H1101   0.986   .     S
O525   Zn533   1.933   .     S
O526   Zn536   1.940   .     S
O527   Zn534   1.931   .     S
O528   Zn535   1.937   .     S
O529   Zn536   1.930   .     S
O530   Zn533   1.928   .     S
O531   Zn534   1.946   .     S
O532   Zn535   1.937   .     S
C537   O594    1.265   .     A
C537   O596    1.266   .     A
C537   C543    1.438   .     S
C538   C552    1.387   .     A
C538   H575    1.079   .     S
C538   C560    1.408   .     A
C539   C554    1.517   .     S
C539   C551    1.422   .     A
C539   C552    1.409   .     A
C540   O595    1.279   .     A
C540   C542    1.469   .     S
C540   O597    1.283   .     A
C541   C559    1.422   .     A
C541   C550    1.479   .     S
C541   C553    1.401   .     A
C542   C409    1.336   1_655 S
C542   O457    1.386   1_655 S
C544   C547    1.453   .     S
C544   C143    1.342   1_565 S
C544   H172    1.088   1_565 S
C545   C546    1.438   .     S
C546   O598    1.269   .     A
C546   O592    1.269   .     A
C547   O599    1.274   .     A
C547   O593    1.265   .     A
C548   C553    1.394   .     A
C548   C1158   1.505   .     S
C548   C1160   1.403   .     S
C549   O585    1.283   .     A
C549   C552    1.466   .     S
C549   O583    1.271   .     A
C550   O586    1.288   .     A
C550   O584    1.284   .     A
C551   C1164   1.426   1_554 S
C551   O1192   1.386   1_554 S
C553   H576    1.084   .     S
C554   H578    1.111   .     S
C554   H579    1.110   .     S
C554   H577    1.109   .     S
C555   H568    1.110   .     S
C555   H569    1.110   .     S
C555   C1151   1.505   1_554 S
C555   H1170   1.111   1_554 S
C556   C563    1.518   .     S
C556   H570    1.111   .     S
C556   H572    1.109   .     S
C556   H571    1.109   .     S
C557   O590    1.380   .     S
C557   C1151   1.403   1_554 S
C557   C1161   1.431   1_554 S
C558   C559    1.417   .     A
C558   C1160   1.431   .     S
C558   C1163   1.427   .     S
C559   C563    1.418   .     A
C560   C1161   1.427   1_554 S
C560   C1164   1.425   1_554 S
C561   C562    1.419   .     A
C561   C1163   1.425   .     S
C561   C1154   1.426   .     S
C562   O588    1.384   .     S
C562   C563    1.414   .     A
H564   C409    1.086   1_655 S
H565   O1192   0.986   1_554 S
H566   O590    0.992   .     S
H567   C1158   1.111   .     S
H573   O591    0.990   .     S
H581   O588    0.990   .     S
O582   Zn603   1.931   .     S
O582   Zn602   1.937   .     S
O582   Zn601   1.930   .     S
O582   Zn600   1.955   .     S
O583   Zn601   1.915   .     S
O584   Zn603   1.921   .     S
O585   Zn602   1.912   .     S
O586   Zn600   1.908   .     S
O587   H178    0.992   1_565 S
O587   C143    1.384   1_565 S
O589   C1154   1.386   .     S
O589   H1168   0.986   .     S
O592   Zn600   1.933   .     S
O593   Zn603   1.940   .     S
O594   Zn601   1.931   .     S
O595   Zn602   1.937   .     S
O596   Zn603   1.930   .     S
O597   Zn600   1.928   .     S
O598   Zn601   1.946   .     S
O599   Zn602   1.937   .     S
C604   O661    1.265   .     A
C604   O663    1.266   .     A
C604   C610    1.438   .     S
C605   C619    1.387   .     A
C605   H642    1.079   .     S
C605   C627    1.408   .     A
C606   C621    1.517   .     S
C606   C618    1.422   .     A
C606   C619    1.409   .     A
C607   O662    1.279   .     A
C607   C609    1.469   .     S
C607   O664    1.283   .     A
C608   C626    1.422   .     A
C608   C617    1.479   .     S
C608   C620    1.401   .     A
C609   C677    1.336   .     S
C609   O725    1.386   .     S
C610   C743    1.336   1_455 S
C610   H765    1.086   1_455 S
C611   C614    1.453   .     S
C611   C813    1.342   .     S
C611   H842    1.088   .     S
C612   C613    1.438   .     S
C612   C1013   1.342   1_545 S
C612   O1056   1.384   1_545 S
C613   O665    1.269   .     A
C613   O659    1.269   .     A
C614   O666    1.274   .     A
C614   O660    1.265   .     A
C615   C620    1.394   .     A
C615   C19     1.505   1_556 S
C615   C21     1.403   1_556 S
C616   O652    1.283   .     A
C616   C619    1.466   .     S
C616   O650    1.271   .     A
C617   O653    1.288   .     A
C617   O651    1.284   .     A
C620   H643    1.084   .     S
C621   H645    1.111   .     S
C621   H646    1.110   .     S
C621   H644    1.109   .     S
C622   H635    1.110   .     S
C622   H636    1.110   .     S
C623   C630    1.518   .     S
C623   H637    1.111   .     S
C623   H639    1.109   .     S
C623   H638    1.109   .     S
C624   O657    1.380   .     S
C625   C626    1.417   .     A
C625   C21     1.431   1_556 S
C625   C24     1.427   1_556 S
C626   C630    1.418   .     A
C628   C629    1.419   .     A
C628   C24     1.425   1_556 S
C628   C15     1.426   1_556 S
C629   O655    1.384   .     S
C629   C630    1.414   .     A
H631   C677    1.086   .     S
H633   O657    0.992   .     S
H634   C19     1.111   1_556 S
H640   O658    0.990   .     S
H641   C1013   1.088   1_545 S
H647   O1056   0.992   1_545 S
H648   O655    0.990   .     S
O649   Zn670   1.931   .     S
O649   Zn669   1.937   .     S
O649   Zn668   1.930   .     S
O649   Zn667   1.955   .     S
O650   Zn668   1.915   .     S
O651   Zn670   1.921   .     S
O652   Zn669   1.912   .     S
O653   Zn667   1.908   .     S
O654   H848    0.992   .     S
O654   C813    1.384   .     S
O656   C15     1.386   1_556 S
O656   H29     0.986   1_556 S
O658   C743    1.386   1_455 S
O659   Zn667   1.933   .     S
O660   Zn670   1.940   .     S
O661   Zn668   1.931   .     S
O662   Zn669   1.937   .     S
O663   Zn670   1.930   .     S
O664   Zn667   1.928   .     S
O665   Zn668   1.946   .     S
O666   Zn669   1.937   .     S
C671   O728    1.265   .     A
C671   O730    1.266   .     A
C671   C677    1.438   .     S
C672   C686    1.387   .     A
C672   H709    1.079   .     S
C672   C694    1.408   .     A
C673   C688    1.517   .     S
C673   C685    1.422   .     A
C673   C686    1.409   .     A
C674   O729    1.279   .     A
C674   C676    1.469   .     S
C674   O731    1.283   .     A
C675   C693    1.422   .     A
C675   C684    1.479   .     S
C675   C687    1.401   .     A
C676   C744    1.336   .     S
C676   O792    1.386   .     S
C678   C681    1.453   .     S
C678   C880    1.342   .     S
C678   H909    1.088   .     S
C679   C680    1.438   .     S
C679   C1080   1.342   1_545 S
C679   O1123   1.384   1_545 S
C680   O732    1.269   .     A
C680   O726    1.269   .     A
C681   O733    1.274   .     A
C681   O727    1.265   .     A
C682   C687    1.394   .     A
C682   C86     1.505   1_556 S
C682   C88     1.403   1_556 S
C683   O719    1.283   .     A
C683   C686    1.466   .     S
C683   O717    1.271   .     A
C684   O720    1.288   .     A
C684   O718    1.284   .     A
C687   H710    1.084   .     S
C688   H712    1.111   .     S
C688   H713    1.110   .     S
C688   H711    1.109   .     S
C689   H702    1.110   .     S
C689   H703    1.110   .     S
C690   C697    1.518   .     S
C690   H704    1.111   .     S
C690   H706    1.109   .     S
C690   H705    1.109   .     S
C691   O724    1.380   .     S
C692   C693    1.417   .     A
C692   C88     1.431   1_556 S
C692   C91     1.427   1_556 S
C693   C697    1.418   .     A
C695   C696    1.419   .     A
C695   C91     1.425   1_556 S
C695   C82     1.426   1_556 S
C696   O722    1.384   .     S
C696   C697    1.414   .     A
H698   C744    1.086   .     S
H700   O724    0.992   .     S
H701   C86     1.111   1_556 S
H707   O725    0.990   .     S
H708   C1080   1.088   1_545 S
H714   O1123   0.992   1_545 S
H715   O722    0.990   .     S
O716   Zn737   1.931   .     S
O716   Zn736   1.937   .     S
O716   Zn735   1.930   .     S
O716   Zn734   1.955   .     S
O717   Zn735   1.915   .     S
O718   Zn737   1.921   .     S
O719   Zn736   1.912   .     S
O720   Zn734   1.908   .     S
O721   H915    0.992   .     S
O721   C880    1.384   .     S
O723   C82     1.386   1_556 S
O723   H96     0.986   1_556 S
O726   Zn734   1.933   .     S
O727   Zn737   1.940   .     S
O728   Zn735   1.931   .     S
O729   Zn736   1.937   .     S
O730   Zn737   1.930   .     S
O731   Zn734   1.928   .     S
O732   Zn735   1.946   .     S
O733   Zn736   1.937   .     S
C738   O795    1.265   .     A
C738   O797    1.266   .     A
C738   C744    1.438   .     S
C739   C753    1.387   .     A
C739   H776    1.079   .     S
C739   C761    1.408   .     A
C740   C755    1.517   .     S
C740   C752    1.422   .     A
C740   C753    1.409   .     A
C741   O796    1.279   .     A
C741   C743    1.469   .     S
C741   O798    1.283   .     A
C742   C760    1.422   .     A
C742   C751    1.479   .     S
C742   C754    1.401   .     A
C743   C610    1.336   1_655 S
C743   O658    1.386   1_655 S
C745   C748    1.453   .     S
C745   C947    1.342   .     S
C745   H976    1.088   .     S
C746   C747    1.438   .     S
C746   C1147   1.342   1_545 S
C746   O1190   1.384   1_545 S
C747   O799    1.269   .     A
C747   O793    1.269   .     A
C748   O800    1.274   .     A
C748   O794    1.265   .     A
C749   C754    1.394   .     A
C749   C153    1.505   1_556 S
C749   C155    1.403   1_556 S
C750   O786    1.283   .     A
C750   C753    1.466   .     S
C750   O784    1.271   .     A
C751   O787    1.288   .     A
C751   O785    1.284   .     A
C754   H777    1.084   .     S
C755   H779    1.111   .     S
C755   H780    1.110   .     S
C755   H778    1.109   .     S
C756   H769    1.110   .     S
C756   H770    1.110   .     S
C757   C764    1.518   .     S
C757   H771    1.111   .     S
C757   H773    1.109   .     S
C757   H772    1.109   .     S
C758   O791    1.380   .     S
C759   C760    1.417   .     A
C759   C155    1.431   1_556 S
C759   C158    1.427   1_556 S
C760   C764    1.418   .     A
C762   C763    1.419   .     A
C762   C158    1.425   1_556 S
C762   C149    1.426   1_556 S
C763   O789    1.384   .     S
C763   C764    1.414   .     A
H765   C610    1.086   1_655 S
H767   O791    0.992   .     S
H768   C153    1.111   1_556 S
H774   O792    0.990   .     S
H775   C1147   1.088   1_545 S
H781   O1190   0.992   1_545 S
H782   O789    0.990   .     S
O783   Zn804   1.931   .     S
O783   Zn803   1.937   .     S
O783   Zn802   1.930   .     S
O783   Zn801   1.955   .     S
O784   Zn802   1.915   .     S
O785   Zn804   1.921   .     S
O786   Zn803   1.912   .     S
O787   Zn801   1.908   .     S
O788   H982    0.992   .     S
O788   C947    1.384   .     S
O790   C149    1.386   1_556 S
O790   H163    0.986   1_556 S
O793   Zn801   1.933   .     S
O794   Zn804   1.940   .     S
O795   Zn802   1.931   .     S
O796   Zn803   1.937   .     S
O797   Zn804   1.930   .     S
O798   Zn801   1.928   .     S
O799   Zn802   1.946   .     S
O800   Zn803   1.937   .     S
C805   O862    1.265   .     A
C805   O864    1.266   .     A
C805   C811    1.438   .     S
C806   C820    1.387   .     A
C806   H843    1.079   .     S
C806   C828    1.408   .     A
C807   C822    1.517   .     S
C807   C819    1.422   .     A
C807   C820    1.409   .     A
C808   O863    1.279   .     A
C808   C810    1.469   .     S
C808   O865    1.283   .     A
C809   C827    1.422   .     A
C809   C818    1.479   .     S
C809   C821    1.401   .     A
C810   C878    1.336   .     S
C810   O926    1.386   .     S
C811   C944    1.336   1_455 S
C811   H966    1.086   1_455 S
C812   C815    1.453   .     S
C812   C1014   1.342   .     S
C812   H1043   1.088   .     S
C813   C814    1.438   .     S
C814   O866    1.269   .     A
C814   O860    1.269   .     A
C815   O867    1.274   .     A
C815   O861    1.265   .     A
C816   C821    1.394   .     A
C816   C220    1.505   1_556 S
C816   C222    1.403   1_556 S
C817   O853    1.283   .     A
C817   C820    1.466   .     S
C817   O851    1.271   .     A
C818   O854    1.288   .     A
C818   O852    1.284   .     A
C821   H844    1.084   .     S
C822   H846    1.111   .     S
C822   H847    1.110   .     S
C822   H845    1.109   .     S
C823   H836    1.110   .     S
C823   H837    1.110   .     S
C824   C831    1.518   .     S
C824   H838    1.111   .     S
C824   H840    1.109   .     S
C824   H839    1.109   .     S
C825   O858    1.380   .     S
C826   C827    1.417   .     A
C826   C222    1.431   1_556 S
C826   C225    1.427   1_556 S
C827   C831    1.418   .     A
C829   C830    1.419   .     A
C829   C225    1.425   1_556 S
C829   C216    1.426   1_556 S
C830   O856    1.384   .     S
C830   C831    1.414   .     A
H832   C878    1.086   .     S
H834   O858    0.992   .     S
H835   C220    1.111   1_556 S
H841   O859    0.990   .     S
H849   O856    0.990   .     S
O850   Zn871   1.931   .     S
O850   Zn870   1.937   .     S
O850   Zn869   1.930   .     S
O850   Zn868   1.955   .     S
O851   Zn869   1.915   .     S
O852   Zn871   1.921   .     S
O853   Zn870   1.912   .     S
O854   Zn868   1.908   .     S
O855   H1049   0.992   .     S
O855   C1014   1.384   .     S
O857   C216    1.386   1_556 S
O857   H230    0.986   1_556 S
O859   C944    1.386   1_455 S
O860   Zn868   1.933   .     S
O861   Zn871   1.940   .     S
O862   Zn869   1.931   .     S
O863   Zn870   1.937   .     S
O864   Zn871   1.930   .     S
O865   Zn868   1.928   .     S
O866   Zn869   1.946   .     S
O867   Zn870   1.937   .     S
C872   O929    1.265   .     A
C872   O931    1.266   .     A
C872   C878    1.438   .     S
C873   C887    1.387   .     A
C873   H910    1.079   .     S
C873   C895    1.408   .     A
C874   C889    1.517   .     S
C874   C886    1.422   .     A
C874   C887    1.409   .     A
C875   O930    1.279   .     A
C875   C877    1.469   .     S
C875   O932    1.283   .     A
C876   C894    1.422   .     A
C876   C885    1.479   .     S
C876   C888    1.401   .     A
C877   C945    1.336   .     S
C877   O993    1.386   .     S
C879   C882    1.453   .     S
C879   C1081   1.342   .     S
C879   H1110   1.088   .     S
C880   C881    1.438   .     S
C881   O933    1.269   .     A
C881   O927    1.269   .     A
C882   O934    1.274   .     A
C882   O928    1.265   .     A
C883   C888    1.394   .     A
C883   C287    1.505   1_556 S
C883   C289    1.403   1_556 S
C884   O920    1.283   .     A
C884   C887    1.466   .     S
C884   O918    1.271   .     A
C885   O921    1.288   .     A
C885   O919    1.284   .     A
C888   H911    1.084   .     S
C889   H913    1.111   .     S
C889   H914    1.110   .     S
C889   H912    1.109   .     S
C890   H903    1.110   .     S
C890   H904    1.110   .     S
C891   C898    1.518   .     S
C891   H905    1.111   .     S
C891   H907    1.109   .     S
C891   H906    1.109   .     S
C892   O925    1.380   .     S
C893   C894    1.417   .     A
C893   C289    1.431   1_556 S
C893   C292    1.427   1_556 S
C894   C898    1.418   .     A
C896   C897    1.419   .     A
C896   C292    1.425   1_556 S
C896   C283    1.426   1_556 S
C897   O923    1.384   .     S
C897   C898    1.414   .     A
H899   C945    1.086   .     S
H901   O925    0.992   .     S
H902   C287    1.111   1_556 S
H908   O926    0.990   .     S
H916   O923    0.990   .     S
O917   Zn938   1.931   .     S
O917   Zn937   1.937   .     S
O917   Zn936   1.930   .     S
O917   Zn935   1.955   .     S
O918   Zn936   1.915   .     S
O919   Zn938   1.921   .     S
O920   Zn937   1.912   .     S
O921   Zn935   1.908   .     S
O922   H1116   0.992   .     S
O922   C1081   1.384   .     S
O924   C283    1.386   1_556 S
O924   H297    0.986   1_556 S
O927   Zn935   1.933   .     S
O928   Zn938   1.940   .     S
O929   Zn936   1.931   .     S
O930   Zn937   1.937   .     S
O931   Zn938   1.930   .     S
O932   Zn935   1.928   .     S
O933   Zn936   1.946   .     S
O934   Zn937   1.937   .     S
C939   O996    1.265   .     A
C939   O998    1.266   .     A
C939   C945    1.438   .     S
C940   C954    1.387   .     A
C940   H977    1.079   .     S
C940   C962    1.408   .     A
C941   C956    1.517   .     S
C941   C953    1.422   .     A
C941   C954    1.409   .     A
C942   O997    1.279   .     A
C942   C944    1.469   .     S
C942   O999    1.283   .     A
C943   C961    1.422   .     A
C943   C952    1.479   .     S
C943   C955    1.401   .     A
C944   C811    1.336   1_655 S
C944   O859    1.386   1_655 S
C946   C949    1.453   .     S
C946   C1148   1.342   .     S
C946   H1177   1.088   .     S
C947   C948    1.438   .     S
C948   O1000   1.269   .     A
C948   O994    1.269   .     A
C949   O1001   1.274   .     A
C949   O995    1.265   .     A
C950   C955    1.394   .     A
C950   C354    1.505   1_556 S
C950   C356    1.403   1_556 S
C951   O987    1.283   .     A
C951   C954    1.466   .     S
C951   O985    1.271   .     A
C952   O988    1.288   .     A
C952   O986    1.284   .     A
C955   H978    1.084   .     S
C956   H980    1.111   .     S
C956   H981    1.110   .     S
C956   H979    1.109   .     S
C957   H970    1.110   .     S
C957   H971    1.110   .     S
C958   C965    1.518   .     S
C958   H972    1.111   .     S
C958   H974    1.109   .     S
C958   H973    1.109   .     S
C959   O992    1.380   .     S
C960   C961    1.417   .     A
C960   C356    1.431   1_556 S
C960   C359    1.427   1_556 S
C961   C965    1.418   .     A
C963   C964    1.419   .     A
C963   C359    1.425   1_556 S
C963   C350    1.426   1_556 S
C964   O990    1.384   .     S
C964   C965    1.414   .     A
H966   C811    1.086   1_655 S
H968   O992    0.992   .     S
H969   C354    1.111   1_556 S
H975   O993    0.990   .     S
H983   O990    0.990   .     S
O984   Zn1005  1.931   .     S
O984   Zn1004  1.937   .     S
O984   Zn1003  1.930   .     S
O984   Zn1002  1.955   .     S
O985   Zn1003  1.915   .     S
O986   Zn1005  1.921   .     S
O987   Zn1004  1.912   .     S
O988   Zn1002  1.908   .     S
O989   H1183   0.992   .     S
O989   C1148   1.384   .     S
O991   C350    1.386   1_556 S
O991   H364    0.986   1_556 S
O994   Zn1002  1.933   .     S
O995   Zn1005  1.940   .     S
O996   Zn1003  1.931   .     S
O997   Zn1004  1.937   .     S
O998   Zn1005  1.930   .     S
O999   Zn1002  1.928   .     S
O1000  Zn1003  1.946   .     S
O1001  Zn1004  1.937   .     S
C1006  O1063   1.265   .     A
C1006  O1065   1.266   .     A
C1006  C1012   1.438   .     S
C1007  C1021   1.387   .     A
C1007  H1044   1.079   .     S
C1007  C1029   1.408   .     A
C1008  C1023   1.517   .     S
C1008  C1020   1.422   .     A
C1008  C1021   1.409   .     A
C1009  O1064   1.279   .     A
C1009  C1011   1.469   .     S
C1009  O1066   1.283   .     A
C1010  C1028   1.422   .     A
C1010  C1019   1.479   .     S
C1010  C1022   1.401   .     A
C1011  C1079   1.336   .     S
C1011  O1127   1.386   .     S
C1012  C1145   1.336   1_455 S
C1012  H1167   1.086   1_455 S
C1013  C1016   1.453   .     S
C1013  C612    1.342   1_565 S
C1013  H641    1.088   1_565 S
C1014  C1015   1.438   .     S
C1015  O1067   1.269   .     A
C1015  O1061   1.269   .     A
C1016  O1068   1.274   .     A
C1016  O1062   1.265   .     A
C1017  C1022   1.394   .     A
C1017  C421    1.505   1_556 S
C1017  C423    1.403   1_556 S
C1018  O1054   1.283   .     A
C1018  C1021   1.466   .     S
C1018  O1052   1.271   .     A
C1019  O1055   1.288   .     A
C1019  O1053   1.284   .     A
C1022  H1045   1.084   .     S
C1023  H1047   1.111   .     S
C1023  H1048   1.110   .     S
C1023  H1046   1.109   .     S
C1024  H1037   1.110   .     S
C1024  H1038   1.110   .     S
C1025  C1032   1.518   .     S
C1025  H1039   1.111   .     S
C1025  H1041   1.109   .     S
C1025  H1040   1.109   .     S
C1026  O1059   1.380   .     S
C1027  C1028   1.417   .     A
C1027  C423    1.431   1_556 S
C1027  C426    1.427   1_556 S
C1028  C1032   1.418   .     A
C1030  C1031   1.419   .     A
C1030  C426    1.425   1_556 S
C1030  C417    1.426   1_556 S
C1031  O1057   1.384   .     S
C1031  C1032   1.414   .     A
H1033  C1079   1.086   .     S
H1035  O1059   0.992   .     S
H1036  C421    1.111   1_556 S
H1042  O1060   0.990   .     S
H1050  O1057   0.990   .     S
O1051  Zn1072  1.931   .     S
O1051  Zn1071  1.937   .     S
O1051  Zn1070  1.930   .     S
O1051  Zn1069  1.955   .     S
O1052  Zn1070  1.915   .     S
O1053  Zn1072  1.921   .     S
O1054  Zn1071  1.912   .     S
O1055  Zn1069  1.908   .     S
O1056  H647    0.992   1_565 S
O1056  C612    1.384   1_565 S
O1058  C417    1.386   1_556 S
O1058  H431    0.986   1_556 S
O1060  C1145   1.386   1_455 S
O1061  Zn1069  1.933   .     S
O1062  Zn1072  1.940   .     S
O1063  Zn1070  1.931   .     S
O1064  Zn1071  1.937   .     S
O1065  Zn1072  1.930   .     S
O1066  Zn1069  1.928   .     S
O1067  Zn1070  1.946   .     S
O1068  Zn1071  1.937   .     S
C1073  O1130   1.265   .     A
C1073  O1132   1.266   .     A
C1073  C1079   1.438   .     S
C1074  C1088   1.387   .     A
C1074  H1111   1.079   .     S
C1074  C1096   1.408   .     A
C1075  C1090   1.517   .     S
C1075  C1087   1.422   .     A
C1075  C1088   1.409   .     A
C1076  O1131   1.279   .     A
C1076  C1078   1.469   .     S
C1076  O1133   1.283   .     A
C1077  C1095   1.422   .     A
C1077  C1086   1.479   .     S
C1077  C1089   1.401   .     A
C1078  C1146   1.336   .     S
C1078  O1194   1.386   .     S
C1080  C1083   1.453   .     S
C1080  C679    1.342   1_565 S
C1080  H708    1.088   1_565 S
C1081  C1082   1.438   .     S
C1082  O1134   1.269   .     A
C1082  O1128   1.269   .     A
C1083  O1135   1.274   .     A
C1083  O1129   1.265   .     A
C1084  C1089   1.394   .     A
C1084  C488    1.505   1_556 S
C1084  C490    1.403   1_556 S
C1085  O1121   1.283   .     A
C1085  C1088   1.466   .     S
C1085  O1119   1.271   .     A
C1086  O1122   1.288   .     A
C1086  O1120   1.284   .     A
C1089  H1112   1.084   .     S
C1090  H1114   1.111   .     S
C1090  H1115   1.110   .     S
C1090  H1113   1.109   .     S
C1091  H1104   1.110   .     S
C1091  H1105   1.110   .     S
C1092  C1099   1.518   .     S
C1092  H1106   1.111   .     S
C1092  H1108   1.109   .     S
C1092  H1107   1.109   .     S
C1093  O1126   1.380   .     S
C1094  C1095   1.417   .     A
C1094  C490    1.431   1_556 S
C1094  C493    1.427   1_556 S
C1095  C1099   1.418   .     A
C1097  C1098   1.419   .     A
C1097  C493    1.425   1_556 S
C1097  C484    1.426   1_556 S
C1098  O1124   1.384   .     S
C1098  C1099   1.414   .     A
H1100  C1146   1.086   .     S
H1102  O1126   0.992   .     S
H1103  C488    1.111   1_556 S
H1109  O1127   0.990   .     S
H1117  O1124   0.990   .     S
O1118  Zn1139  1.931   .     S
O1118  Zn1138  1.937   .     S
O1118  Zn1137  1.930   .     S
O1118  Zn1136  1.955   .     S
O1119  Zn1137  1.915   .     S
O1120  Zn1139  1.921   .     S
O1121  Zn1138  1.912   .     S
O1122  Zn1136  1.908   .     S
O1123  H714    0.992   1_565 S
O1123  C679    1.384   1_565 S
O1125  C484    1.386   1_556 S
O1125  H498    0.986   1_556 S
O1128  Zn1136  1.933   .     S
O1129  Zn1139  1.940   .     S
O1130  Zn1137  1.931   .     S
O1131  Zn1138  1.937   .     S
O1132  Zn1139  1.930   .     S
O1133  Zn1136  1.928   .     S
O1134  Zn1137  1.946   .     S
O1135  Zn1138  1.937   .     S
C1140  O1197   1.265   .     A
C1140  O1199   1.266   .     A
C1140  C1146   1.438   .     S
C1141  C1155   1.387   .     A
C1141  H1178   1.079   .     S
C1141  C1163   1.408   .     A
C1142  C1157   1.517   .     S
C1142  C1154   1.422   .     A
C1142  C1155   1.409   .     A
C1143  O1198   1.279   .     A
C1143  C1145   1.469   .     S
C1143  O1200   1.283   .     A
C1144  C1162   1.422   .     A
C1144  C1153   1.479   .     S
C1144  C1156   1.401   .     A
C1145  C1012   1.336   1_655 S
C1145  O1060   1.386   1_655 S
C1147  C1150   1.453   .     S
C1147  C746    1.342   1_565 S
C1147  H775    1.088   1_565 S
C1148  C1149   1.438   .     S
C1149  O1201   1.269   .     A
C1149  O1195   1.269   .     A
C1150  O1202   1.274   .     A
C1150  O1196   1.265   .     A
C1151  C1156   1.394   .     A
C1151  C555    1.505   1_556 S
C1151  C557    1.403   1_556 S
C1152  O1188   1.283   .     A
C1152  C1155   1.466   .     S
C1152  O1186   1.271   .     A
C1153  O1189   1.288   .     A
C1153  O1187   1.284   .     A
C1156  H1179   1.084   .     S
C1157  H1181   1.111   .     S
C1157  H1182   1.110   .     S
C1157  H1180   1.109   .     S
C1158  H1171   1.110   .     S
C1158  H1172   1.110   .     S
C1159  C1166   1.518   .     S
C1159  H1173   1.111   .     S
C1159  H1175   1.109   .     S
C1159  H1174   1.109   .     S
C1160  O1193   1.380   .     S
C1161  C1162   1.417   .     A
C1161  C557    1.431   1_556 S
C1161  C560    1.427   1_556 S
C1162  C1166   1.418   .     A
C1164  C1165   1.419   .     A
C1164  C560    1.425   1_556 S
C1164  C551    1.426   1_556 S
C1165  O1191   1.384   .     S
C1165  C1166   1.414   .     A
H1167  C1012   1.086   1_655 S
H1169  O1193   0.992   .     S
H1170  C555    1.111   1_556 S
H1176  O1194   0.990   .     S
H1184  O1191   0.990   .     S
O1185  Zn1206  1.931   .     S
O1185  Zn1205  1.937   .     S
O1185  Zn1204  1.930   .     S
O1185  Zn1203  1.955   .     S
O1186  Zn1204  1.915   .     S
O1187  Zn1206  1.921   .     S
O1188  Zn1205  1.912   .     S
O1189  Zn1203  1.908   .     S
O1190  H781    0.992   1_565 S
O1190  C746    1.384   1_565 S
O1192  C551    1.386   1_556 S
O1192  H565    0.986   1_556 S
O1195  Zn1203  1.933   .     S
O1196  Zn1206  1.940   .     S
O1197  Zn1204  1.931   .     S
O1198  Zn1205  1.937   .     S
O1199  Zn1206  1.930   .     S
O1200  Zn1203  1.928   .     S
O1201  Zn1204  1.946   .     S
O1202  Zn1205  1.937   .     S
