data_str_m2_o10_o17_pcu_sym.103
_audit_creation_date              2020-01-03
_audit_creation_method            'Materials Studio'
_symmetry_space_group_name_H-M    'P1'
_symmetry_Int_Tables_number       1
_symmetry_cell_setting            triclinic
loop_
_symmetry_equiv_pos_as_xyz
  x,y,z
_cell_length_a                    30.0537
_cell_length_b                    26.0813
_cell_length_c                    22.6067
_cell_angle_alpha                 103.2633
_cell_angle_beta                  93.6859
_cell_angle_gamma                 92.3801
loop_
_atom_site_label
_atom_site_type_symbol
_atom_site_fract_x
_atom_site_fract_y
_atom_site_fract_z
_atom_site_U_iso_or_equiv
_atom_site_adp_type
_atom_site_occupancy
C1     C     0.24862   0.06668   0.15108   0.00000  Uiso   1.00
C2     C     0.25138   0.26666   0.18225   0.00000  Uiso   1.00
C3     C     0.01862   0.07084   0.13826   0.00000  Uiso   1.00
C4     C     0.48138   0.26250   0.19506   0.00000  Uiso   1.00
C5     C     0.24808   0.01056   0.14254   0.00000  Uiso   1.00
C6     C     0.25192   0.32277   0.19080   0.00000  Uiso   1.00
C7     C     0.16491   0.16663   0.16757   0.00000  Uiso   1.00
C8     C     0.33510   0.16671   0.16576   0.00000  Uiso   1.00
C9     C     0.40844   0.21472   0.18112   0.00000  Uiso   1.00
C10    C     0.09156   0.11861   0.15220   0.00000  Uiso   1.00
C11    C     0.38317   0.16628   0.16423   0.00000  Uiso   1.00
C12    C     0.11683   0.16706   0.16911   0.00000  Uiso   1.00
C13    C     0.40355   0.11756   0.15136   0.00000  Uiso   1.00
C14    C     0.09646   0.21578   0.18197   0.00000  Uiso   1.00
C15    C     0.45058   0.11780   0.15137   0.00000  Uiso   1.00
C16    C     0.04942   0.21554   0.18196   0.00000  Uiso   1.00
C17    C     0.47638   0.16649   0.16642   0.00000  Uiso   1.00
C18    C     0.02362   0.16684   0.16690   0.00000  Uiso   1.00
C19    C     0.45523   0.21486   0.18131   0.00000  Uiso   1.00
C20    C     0.04477   0.11847   0.15201   0.00000  Uiso   1.00
C21    C     0.47260   0.07049   0.13714   0.00000  Uiso   1.00
C22    C     0.02740   0.26285   0.19617   0.00000  Uiso   1.00
Cu23   Cu    0.25501   0.17246   0.22813   0.00000  Uiso   1.00
Cu24   Cu    0.24500   0.16087   0.10521   0.00000  Uiso   1.00
H25    H     0.45500   0.03221   0.12453   0.00000  Uiso   1.00
H26    H     0.04500   0.30113   0.20877   0.00000  Uiso   1.00
H27    H     0.03332   0.03294   0.12857   0.00000  Uiso   1.00
H28    H     0.46668   0.30040   0.20474   0.00000  Uiso   1.00
H29    H     0.24454   0.31987   0.09614   0.00000  Uiso   1.00
H30    H     0.25546   0.01346   0.23719   0.00000  Uiso   1.00
N31    N     0.23745   0.15214   0.01284   0.00000  Uiso   1.00
N32    N     0.26256   0.18119   0.32049   0.00000  Uiso   1.00
O33    O     0.25326   0.09538   0.20659   0.00000  Uiso   1.00
O34    O     0.24675   0.23796   0.12674   0.00000  Uiso   1.00
O35    O     0.24480   0.08559   0.10279   0.00000  Uiso   1.00
O36    O     0.25520   0.24774   0.23055   0.00000  Uiso   1.00
O37    O     0.18936   0.17155   0.21857   0.00000  Uiso   1.00
O38    O     0.31065   0.16179   0.11476   0.00000  Uiso   1.00
O39    O     0.18090   0.16176   0.11477   0.00000  Uiso   1.00
O40    O     0.31910   0.17157   0.21857   0.00000  Uiso   1.00
C41    C     0.38555   0.26476   0.20126   0.00000  Uiso   1.00
O42    O     0.35582   0.27645   0.16816   0.00000  Uiso   1.00
O43    O     0.39742   0.29768   0.25870   0.00000  Uiso   1.00
H44    H     0.37942   0.33026   0.26708   0.00000  Uiso   1.00
C45    C     0.11445   0.06858   0.13207   0.00000  Uiso   1.00
O46    O     0.14418   0.05689   0.16517   0.00000  Uiso   1.00
O47    O     0.10257   0.03566   0.07462   0.00000  Uiso   1.00
H48    H     0.12058   0.00308   0.06624   0.00000  Uiso   1.00
C49    C     0.37495   0.06598   0.14082   0.00000  Uiso   1.00
C50    C     0.36392   0.04223   0.07302   0.00000  Uiso   1.00
H51    H     0.34597   0.07045   0.05164   0.00000  Uiso   1.00
H52    H     0.39477   0.03205   0.04957   0.00000  Uiso   1.00
H53    H     0.34191   0.00600   0.06708   0.00000  Uiso   1.00
H54    H     0.39140   0.03730   0.16300   0.00000  Uiso   1.00
H55    H     0.34327   0.07156   0.16331   0.00000  Uiso   1.00
C56    C     0.12505   0.26735   0.19253   0.00000  Uiso   1.00
C57    C     0.13606   0.29110   0.26034   0.00000  Uiso   1.00
H58    H     0.10520   0.30134   0.28375   0.00000  Uiso   1.00
H59    H     0.15396   0.26287   0.28175   0.00000  Uiso   1.00
H60    H     0.15810   0.32731   0.26630   0.00000  Uiso   1.00
H61    H     0.15675   0.26178   0.17007   0.00000  Uiso   1.00
H62    H     0.10861   0.29604   0.17035   0.00000  Uiso   1.00
C63    C     0.19210   0.14537   0.32410   0.00000  Uiso   1.00
O64    O     0.16830   0.18288   0.00061   0.00000  Uiso   1.00
O65    O     0.17386   0.09504   0.29571   0.00000  Uiso   1.00
H66    H     0.14053   0.09470   0.28515   0.00000  Uiso   1.00
C67    C     0.30790   0.18796   0.00923   0.00000  Uiso   1.00
O68    O     0.33169   0.15044   0.33272   0.00000  Uiso   1.00
O69    O     0.32615   0.23828   0.03761   0.00000  Uiso   1.00
H70    H     0.35948   0.23862   0.04817   0.00000  Uiso   1.00
C71    C     0.74862   0.06668   0.15108   0.00000  Uiso   1.00
C72    C     0.75138   0.26666   0.18225   0.00000  Uiso   1.00
C73    C     0.51862   0.07084   0.13826   0.00000  Uiso   1.00
C74    C     0.98138   0.26250   0.19506   0.00000  Uiso   1.00
C75    C     0.74808   0.01056   0.14254   0.00000  Uiso   1.00
C76    C     0.75192   0.32277   0.19080   0.00000  Uiso   1.00
C77    C     0.66491   0.16663   0.16757   0.00000  Uiso   1.00
C78    C     0.83510   0.16671   0.16576   0.00000  Uiso   1.00
C79    C     0.90844   0.21472   0.18112   0.00000  Uiso   1.00
C80    C     0.59156   0.11861   0.15220   0.00000  Uiso   1.00
C81    C     0.88317   0.16628   0.16423   0.00000  Uiso   1.00
C82    C     0.61683   0.16706   0.16911   0.00000  Uiso   1.00
C83    C     0.90355   0.11756   0.15136   0.00000  Uiso   1.00
C84    C     0.59646   0.21578   0.18197   0.00000  Uiso   1.00
C85    C     0.95058   0.11780   0.15137   0.00000  Uiso   1.00
C86    C     0.54942   0.21554   0.18196   0.00000  Uiso   1.00
C87    C     0.97638   0.16649   0.16642   0.00000  Uiso   1.00
C88    C     0.52362   0.16684   0.16690   0.00000  Uiso   1.00
C89    C     0.95523   0.21486   0.18131   0.00000  Uiso   1.00
C90    C     0.54477   0.11847   0.15201   0.00000  Uiso   1.00
C91    C     0.97260   0.07049   0.13714   0.00000  Uiso   1.00
C92    C     0.52740   0.26285   0.19617   0.00000  Uiso   1.00
Cu93   Cu    0.75501   0.17246   0.22813   0.00000  Uiso   1.00
Cu94   Cu    0.74500   0.16087   0.10521   0.00000  Uiso   1.00
H95    H     0.95500   0.03221   0.12453   0.00000  Uiso   1.00
H96    H     0.54500   0.30113   0.20877   0.00000  Uiso   1.00
H97    H     0.53332   0.03294   0.12857   0.00000  Uiso   1.00
H98    H     0.96668   0.30040   0.20474   0.00000  Uiso   1.00
H99    H     0.74454   0.31987   0.09614   0.00000  Uiso   1.00
H100   H     0.75546   0.01346   0.23719   0.00000  Uiso   1.00
N101   N     0.73745   0.15214   0.01284   0.00000  Uiso   1.00
N102   N     0.76256   0.18119   0.32049   0.00000  Uiso   1.00
O103   O     0.75326   0.09538   0.20659   0.00000  Uiso   1.00
O104   O     0.74675   0.23796   0.12674   0.00000  Uiso   1.00
O105   O     0.74480   0.08559   0.10279   0.00000  Uiso   1.00
O106   O     0.75520   0.24774   0.23055   0.00000  Uiso   1.00
O107   O     0.68936   0.17155   0.21857   0.00000  Uiso   1.00
O108   O     0.81065   0.16179   0.11476   0.00000  Uiso   1.00
O109   O     0.68090   0.16176   0.11477   0.00000  Uiso   1.00
O110   O     0.81910   0.17157   0.21857   0.00000  Uiso   1.00
C111   C     0.88555   0.26476   0.20126   0.00000  Uiso   1.00
O112   O     0.85582   0.27645   0.16816   0.00000  Uiso   1.00
O113   O     0.89742   0.29768   0.25870   0.00000  Uiso   1.00
H114   H     0.87942   0.33026   0.26708   0.00000  Uiso   1.00
C115   C     0.61445   0.06858   0.13207   0.00000  Uiso   1.00
O116   O     0.64418   0.05689   0.16517   0.00000  Uiso   1.00
O117   O     0.60257   0.03566   0.07462   0.00000  Uiso   1.00
H118   H     0.62058   0.00308   0.06624   0.00000  Uiso   1.00
C119   C     0.87495   0.06598   0.14082   0.00000  Uiso   1.00
C120   C     0.86392   0.04223   0.07302   0.00000  Uiso   1.00
H121   H     0.84597   0.07045   0.05164   0.00000  Uiso   1.00
H122   H     0.89477   0.03205   0.04957   0.00000  Uiso   1.00
H123   H     0.84191   0.00600   0.06708   0.00000  Uiso   1.00
H124   H     0.89140   0.03730   0.16300   0.00000  Uiso   1.00
H125   H     0.84327   0.07156   0.16331   0.00000  Uiso   1.00
C126   C     0.62505   0.26735   0.19253   0.00000  Uiso   1.00
C127   C     0.63606   0.29110   0.26034   0.00000  Uiso   1.00
H128   H     0.60520   0.30134   0.28375   0.00000  Uiso   1.00
H129   H     0.65396   0.26287   0.28175   0.00000  Uiso   1.00
H130   H     0.65810   0.32731   0.26630   0.00000  Uiso   1.00
H131   H     0.65675   0.26178   0.17007   0.00000  Uiso   1.00
H132   H     0.60861   0.29604   0.17035   0.00000  Uiso   1.00
C133   C     0.69210   0.14537   0.32410   0.00000  Uiso   1.00
O134   O     0.66830   0.18288   0.00061   0.00000  Uiso   1.00
O135   O     0.67386   0.09504   0.29571   0.00000  Uiso   1.00
H136   H     0.64053   0.09470   0.28515   0.00000  Uiso   1.00
C137   C     0.80790   0.18796   0.00923   0.00000  Uiso   1.00
O138   O     0.83169   0.15044   0.33272   0.00000  Uiso   1.00
O139   O     0.82615   0.23828   0.03761   0.00000  Uiso   1.00
H140   H     0.85948   0.23862   0.04817   0.00000  Uiso   1.00
C141   C     0.24862   0.40001   0.15108   0.00000  Uiso   1.00
C142   C     0.25138   0.59999   0.18225   0.00000  Uiso   1.00
C143   C     0.01862   0.40417   0.13826   0.00000  Uiso   1.00
C144   C     0.48138   0.59584   0.19506   0.00000  Uiso   1.00
C145   C     0.24808   0.34390   0.14254   0.00000  Uiso   1.00
C146   C     0.25192   0.65610   0.19080   0.00000  Uiso   1.00
C147   C     0.16491   0.49996   0.16757   0.00000  Uiso   1.00
C148   C     0.33510   0.50004   0.16576   0.00000  Uiso   1.00
C149   C     0.40844   0.54806   0.18112   0.00000  Uiso   1.00
C150   C     0.09156   0.45195   0.15220   0.00000  Uiso   1.00
C151   C     0.38317   0.49961   0.16423   0.00000  Uiso   1.00
C152   C     0.11683   0.50039   0.16911   0.00000  Uiso   1.00
C153   C     0.40355   0.45089   0.15136   0.00000  Uiso   1.00
C154   C     0.09646   0.54911   0.18197   0.00000  Uiso   1.00
C155   C     0.45058   0.45113   0.15137   0.00000  Uiso   1.00
C156   C     0.04942   0.54888   0.18196   0.00000  Uiso   1.00
C157   C     0.47638   0.49983   0.16642   0.00000  Uiso   1.00
C158   C     0.02362   0.50018   0.16690   0.00000  Uiso   1.00
C159   C     0.45523   0.54820   0.18131   0.00000  Uiso   1.00
C160   C     0.04477   0.45181   0.15201   0.00000  Uiso   1.00
C161   C     0.47260   0.40382   0.13714   0.00000  Uiso   1.00
C162   C     0.02740   0.59618   0.19617   0.00000  Uiso   1.00
Cu163  Cu    0.25501   0.50579   0.22813   0.00000  Uiso   1.00
Cu164  Cu    0.24500   0.49421   0.10521   0.00000  Uiso   1.00
H165   H     0.45500   0.36554   0.12453   0.00000  Uiso   1.00
H166   H     0.04500   0.63447   0.20877   0.00000  Uiso   1.00
H167   H     0.03332   0.36627   0.12857   0.00000  Uiso   1.00
H168   H     0.46668   0.63373   0.20474   0.00000  Uiso   1.00
H169   H     0.24454   0.65320   0.09614   0.00000  Uiso   1.00
H170   H     0.25546   0.34680   0.23719   0.00000  Uiso   1.00
N171   N     0.23745   0.48547   0.01284   0.00000  Uiso   1.00
N172   N     0.26256   0.51453   0.32049   0.00000  Uiso   1.00
O173   O     0.25326   0.42871   0.20659   0.00000  Uiso   1.00
O174   O     0.24675   0.57129   0.12674   0.00000  Uiso   1.00
O175   O     0.24480   0.41892   0.10279   0.00000  Uiso   1.00
O176   O     0.25520   0.58108   0.23055   0.00000  Uiso   1.00
O177   O     0.18936   0.50488   0.21857   0.00000  Uiso   1.00
O178   O     0.31065   0.49512   0.11476   0.00000  Uiso   1.00
O179   O     0.18090   0.49510   0.11477   0.00000  Uiso   1.00
O180   O     0.31910   0.50490   0.21857   0.00000  Uiso   1.00
C181   C     0.38555   0.59809   0.20126   0.00000  Uiso   1.00
O182   O     0.35582   0.60978   0.16816   0.00000  Uiso   1.00
O183   O     0.39742   0.63101   0.25870   0.00000  Uiso   1.00
H184   H     0.37942   0.66359   0.26708   0.00000  Uiso   1.00
C185   C     0.11445   0.40191   0.13207   0.00000  Uiso   1.00
O186   O     0.14418   0.39022   0.16517   0.00000  Uiso   1.00
O187   O     0.10257   0.36899   0.07462   0.00000  Uiso   1.00
H188   H     0.12058   0.33642   0.06624   0.00000  Uiso   1.00
C189   C     0.37495   0.39932   0.14082   0.00000  Uiso   1.00
C190   C     0.36392   0.37557   0.07302   0.00000  Uiso   1.00
H191   H     0.34597   0.40378   0.05164   0.00000  Uiso   1.00
H192   H     0.39477   0.36538   0.04957   0.00000  Uiso   1.00
H193   H     0.34191   0.33934   0.06708   0.00000  Uiso   1.00
H194   H     0.39140   0.37063   0.16300   0.00000  Uiso   1.00
H195   H     0.34327   0.40490   0.16331   0.00000  Uiso   1.00
C196   C     0.12505   0.60069   0.19253   0.00000  Uiso   1.00
C197   C     0.13606   0.62444   0.26034   0.00000  Uiso   1.00
H198   H     0.10520   0.63467   0.28375   0.00000  Uiso   1.00
H199   H     0.15396   0.59621   0.28175   0.00000  Uiso   1.00
H200   H     0.15810   0.66064   0.26630   0.00000  Uiso   1.00
H201   H     0.15675   0.59511   0.17007   0.00000  Uiso   1.00
H202   H     0.10861   0.62937   0.17035   0.00000  Uiso   1.00
C203   C     0.19210   0.47870   0.32410   0.00000  Uiso   1.00
O204   O     0.16830   0.51621   0.00061   0.00000  Uiso   1.00
O205   O     0.17386   0.42837   0.29571   0.00000  Uiso   1.00
H206   H     0.14053   0.42804   0.28515   0.00000  Uiso   1.00
C207   C     0.30790   0.52129   0.00923   0.00000  Uiso   1.00
O208   O     0.33169   0.48378   0.33272   0.00000  Uiso   1.00
O209   O     0.32615   0.57162   0.03761   0.00000  Uiso   1.00
H210   H     0.35948   0.57195   0.04817   0.00000  Uiso   1.00
C211   C     0.74862   0.40001   0.15108   0.00000  Uiso   1.00
C212   C     0.75138   0.59999   0.18225   0.00000  Uiso   1.00
C213   C     0.51862   0.40417   0.13826   0.00000  Uiso   1.00
C214   C     0.98138   0.59584   0.19506   0.00000  Uiso   1.00
C215   C     0.74808   0.34390   0.14254   0.00000  Uiso   1.00
C216   C     0.75192   0.65610   0.19080   0.00000  Uiso   1.00
C217   C     0.66491   0.49996   0.16757   0.00000  Uiso   1.00
C218   C     0.83510   0.50004   0.16576   0.00000  Uiso   1.00
C219   C     0.90844   0.54806   0.18112   0.00000  Uiso   1.00
C220   C     0.59156   0.45195   0.15220   0.00000  Uiso   1.00
C221   C     0.88317   0.49961   0.16423   0.00000  Uiso   1.00
C222   C     0.61683   0.50039   0.16911   0.00000  Uiso   1.00
C223   C     0.90355   0.45089   0.15136   0.00000  Uiso   1.00
C224   C     0.59646   0.54911   0.18197   0.00000  Uiso   1.00
C225   C     0.95058   0.45113   0.15137   0.00000  Uiso   1.00
C226   C     0.54942   0.54888   0.18196   0.00000  Uiso   1.00
C227   C     0.97638   0.49983   0.16642   0.00000  Uiso   1.00
C228   C     0.52362   0.50018   0.16690   0.00000  Uiso   1.00
C229   C     0.95523   0.54820   0.18131   0.00000  Uiso   1.00
C230   C     0.54477   0.45181   0.15201   0.00000  Uiso   1.00
C231   C     0.97260   0.40382   0.13714   0.00000  Uiso   1.00
C232   C     0.52740   0.59618   0.19617   0.00000  Uiso   1.00
Cu233  Cu    0.75501   0.50579   0.22813   0.00000  Uiso   1.00
Cu234  Cu    0.74500   0.49421   0.10521   0.00000  Uiso   1.00
H235   H     0.95500   0.36554   0.12453   0.00000  Uiso   1.00
H236   H     0.54500   0.63447   0.20877   0.00000  Uiso   1.00
H237   H     0.53332   0.36627   0.12857   0.00000  Uiso   1.00
H238   H     0.96668   0.63373   0.20474   0.00000  Uiso   1.00
H239   H     0.74454   0.65320   0.09614   0.00000  Uiso   1.00
H240   H     0.75546   0.34680   0.23719   0.00000  Uiso   1.00
N241   N     0.73745   0.48547   0.01284   0.00000  Uiso   1.00
N242   N     0.76256   0.51453   0.32049   0.00000  Uiso   1.00
O243   O     0.75326   0.42871   0.20659   0.00000  Uiso   1.00
O244   O     0.74675   0.57129   0.12674   0.00000  Uiso   1.00
O245   O     0.74480   0.41892   0.10279   0.00000  Uiso   1.00
O246   O     0.75520   0.58108   0.23055   0.00000  Uiso   1.00
O247   O     0.68936   0.50488   0.21857   0.00000  Uiso   1.00
O248   O     0.81065   0.49512   0.11476   0.00000  Uiso   1.00
O249   O     0.68090   0.49510   0.11477   0.00000  Uiso   1.00
O250   O     0.81910   0.50490   0.21857   0.00000  Uiso   1.00
C251   C     0.88555   0.59809   0.20126   0.00000  Uiso   1.00
O252   O     0.85582   0.60978   0.16816   0.00000  Uiso   1.00
O253   O     0.89742   0.63101   0.25870   0.00000  Uiso   1.00
H254   H     0.87942   0.66359   0.26708   0.00000  Uiso   1.00
C255   C     0.61445   0.40191   0.13207   0.00000  Uiso   1.00
O256   O     0.64418   0.39022   0.16517   0.00000  Uiso   1.00
O257   O     0.60257   0.36899   0.07462   0.00000  Uiso   1.00
H258   H     0.62058   0.33642   0.06624   0.00000  Uiso   1.00
C259   C     0.87495   0.39932   0.14082   0.00000  Uiso   1.00
C260   C     0.86392   0.37557   0.07302   0.00000  Uiso   1.00
H261   H     0.84597   0.40378   0.05164   0.00000  Uiso   1.00
H262   H     0.89477   0.36538   0.04957   0.00000  Uiso   1.00
H263   H     0.84191   0.33934   0.06708   0.00000  Uiso   1.00
H264   H     0.89140   0.37063   0.16300   0.00000  Uiso   1.00
H265   H     0.84327   0.40490   0.16331   0.00000  Uiso   1.00
C266   C     0.62505   0.60069   0.19253   0.00000  Uiso   1.00
C267   C     0.63606   0.62444   0.26034   0.00000  Uiso   1.00
H268   H     0.60520   0.63467   0.28375   0.00000  Uiso   1.00
H269   H     0.65396   0.59621   0.28175   0.00000  Uiso   1.00
H270   H     0.65810   0.66064   0.26630   0.00000  Uiso   1.00
H271   H     0.65675   0.59511   0.17007   0.00000  Uiso   1.00
H272   H     0.60861   0.62937   0.17035   0.00000  Uiso   1.00
C273   C     0.69210   0.47870   0.32410   0.00000  Uiso   1.00
O274   O     0.66830   0.51621   0.00061   0.00000  Uiso   1.00
O275   O     0.67386   0.42837   0.29571   0.00000  Uiso   1.00
H276   H     0.64053   0.42804   0.28515   0.00000  Uiso   1.00
C277   C     0.80790   0.52129   0.00923   0.00000  Uiso   1.00
O278   O     0.83169   0.48378   0.33272   0.00000  Uiso   1.00
O279   O     0.82615   0.57162   0.03761   0.00000  Uiso   1.00
H280   H     0.85948   0.57195   0.04817   0.00000  Uiso   1.00
C281   C     0.24862   0.73334   0.15108   0.00000  Uiso   1.00
C282   C     0.25138   0.93332   0.18225   0.00000  Uiso   1.00
C283   C     0.01862   0.73750   0.13826   0.00000  Uiso   1.00
C284   C     0.48138   0.92917   0.19506   0.00000  Uiso   1.00
C285   C     0.24808   0.67723   0.14254   0.00000  Uiso   1.00
C286   C     0.25192   0.98944   0.19080   0.00000  Uiso   1.00
C287   C     0.16491   0.83329   0.16757   0.00000  Uiso   1.00
C288   C     0.33510   0.83337   0.16576   0.00000  Uiso   1.00
C289   C     0.40844   0.88139   0.18112   0.00000  Uiso   1.00
C290   C     0.09156   0.78528   0.15220   0.00000  Uiso   1.00
C291   C     0.38317   0.83295   0.16423   0.00000  Uiso   1.00
C292   C     0.11683   0.83372   0.16911   0.00000  Uiso   1.00
C293   C     0.40355   0.78423   0.15136   0.00000  Uiso   1.00
C294   C     0.09646   0.88245   0.18197   0.00000  Uiso   1.00
C295   C     0.45058   0.78446   0.15137   0.00000  Uiso   1.00
C296   C     0.04942   0.88221   0.18196   0.00000  Uiso   1.00
C297   C     0.47638   0.83316   0.16642   0.00000  Uiso   1.00
C298   C     0.02362   0.83351   0.16690   0.00000  Uiso   1.00
C299   C     0.45523   0.88153   0.18131   0.00000  Uiso   1.00
C300   C     0.04477   0.78514   0.15201   0.00000  Uiso   1.00
C301   C     0.47260   0.73716   0.13714   0.00000  Uiso   1.00
C302   C     0.02740   0.92952   0.19617   0.00000  Uiso   1.00
Cu303  Cu    0.25501   0.83913   0.22813   0.00000  Uiso   1.00
Cu304  Cu    0.24500   0.82754   0.10521   0.00000  Uiso   1.00
H305   H     0.45500   0.69887   0.12453   0.00000  Uiso   1.00
H306   H     0.04500   0.96780   0.20877   0.00000  Uiso   1.00
H307   H     0.03332   0.69961   0.12857   0.00000  Uiso   1.00
H308   H     0.46668   0.96707   0.20474   0.00000  Uiso   1.00
H309   H     0.24454   0.98654   0.09614   0.00000  Uiso   1.00
H310   H     0.25546   0.68013   0.23719   0.00000  Uiso   1.00
N311   N     0.23745   0.81881   0.01284   0.00000  Uiso   1.00
N312   N     0.26256   0.84786   0.32049   0.00000  Uiso   1.00
O313   O     0.25326   0.76204   0.20659   0.00000  Uiso   1.00
O314   O     0.24675   0.90462   0.12674   0.00000  Uiso   1.00
O315   O     0.24480   0.75226   0.10279   0.00000  Uiso   1.00
O316   O     0.25520   0.91441   0.23055   0.00000  Uiso   1.00
O317   O     0.18936   0.83821   0.21857   0.00000  Uiso   1.00
O318   O     0.31065   0.82845   0.11476   0.00000  Uiso   1.00
O319   O     0.18090   0.82843   0.11477   0.00000  Uiso   1.00
O320   O     0.31910   0.83824   0.21857   0.00000  Uiso   1.00
C321   C     0.38555   0.93143   0.20126   0.00000  Uiso   1.00
O322   O     0.35582   0.94312   0.16816   0.00000  Uiso   1.00
O323   O     0.39742   0.96435   0.25870   0.00000  Uiso   1.00
H324   H     0.37942   0.99692   0.26708   0.00000  Uiso   1.00
C325   C     0.11445   0.73524   0.13207   0.00000  Uiso   1.00
O326   O     0.14418   0.72355   0.16517   0.00000  Uiso   1.00
O327   O     0.10257   0.70232   0.07462   0.00000  Uiso   1.00
H328   H     0.12058   0.66975   0.06624   0.00000  Uiso   1.00
C329   C     0.37495   0.73265   0.14082   0.00000  Uiso   1.00
C330   C     0.36392   0.70890   0.07302   0.00000  Uiso   1.00
H331   H     0.34597   0.73711   0.05164   0.00000  Uiso   1.00
H332   H     0.39477   0.69872   0.04957   0.00000  Uiso   1.00
H333   H     0.34191   0.67267   0.06708   0.00000  Uiso   1.00
H334   H     0.39140   0.70396   0.16300   0.00000  Uiso   1.00
H335   H     0.34327   0.73823   0.16331   0.00000  Uiso   1.00
C336   C     0.12505   0.93402   0.19253   0.00000  Uiso   1.00
C337   C     0.13606   0.95777   0.26034   0.00000  Uiso   1.00
H338   H     0.10520   0.96800   0.28375   0.00000  Uiso   1.00
H339   H     0.15396   0.92954   0.28175   0.00000  Uiso   1.00
H340   H     0.15810   0.99397   0.26630   0.00000  Uiso   1.00
H341   H     0.15675   0.92844   0.17007   0.00000  Uiso   1.00
H342   H     0.10861   0.96271   0.17035   0.00000  Uiso   1.00
C343   C     0.19210   0.81204   0.32410   0.00000  Uiso   1.00
O344   O     0.16830   0.84955   0.00061   0.00000  Uiso   1.00
O345   O     0.17386   0.76171   0.29571   0.00000  Uiso   1.00
H346   H     0.14053   0.76137   0.28515   0.00000  Uiso   1.00
C347   C     0.30790   0.85463   0.00923   0.00000  Uiso   1.00
O348   O     0.33169   0.81711   0.33272   0.00000  Uiso   1.00
O349   O     0.32615   0.90495   0.03761   0.00000  Uiso   1.00
H350   H     0.35948   0.90528   0.04817   0.00000  Uiso   1.00
C351   C     0.74862   0.73334   0.15108   0.00000  Uiso   1.00
C352   C     0.75138   0.93332   0.18225   0.00000  Uiso   1.00
C353   C     0.51862   0.73750   0.13826   0.00000  Uiso   1.00
C354   C     0.98138   0.92917   0.19506   0.00000  Uiso   1.00
C355   C     0.74808   0.67723   0.14254   0.00000  Uiso   1.00
C356   C     0.75192   0.98944   0.19080   0.00000  Uiso   1.00
C357   C     0.66491   0.83329   0.16757   0.00000  Uiso   1.00
C358   C     0.83510   0.83337   0.16576   0.00000  Uiso   1.00
C359   C     0.90844   0.88139   0.18112   0.00000  Uiso   1.00
C360   C     0.59156   0.78528   0.15220   0.00000  Uiso   1.00
C361   C     0.88317   0.83295   0.16423   0.00000  Uiso   1.00
C362   C     0.61683   0.83372   0.16911   0.00000  Uiso   1.00
C363   C     0.90355   0.78423   0.15136   0.00000  Uiso   1.00
C364   C     0.59646   0.88245   0.18197   0.00000  Uiso   1.00
C365   C     0.95058   0.78446   0.15137   0.00000  Uiso   1.00
C366   C     0.54942   0.88221   0.18196   0.00000  Uiso   1.00
C367   C     0.97638   0.83316   0.16642   0.00000  Uiso   1.00
C368   C     0.52362   0.83351   0.16690   0.00000  Uiso   1.00
C369   C     0.95523   0.88153   0.18131   0.00000  Uiso   1.00
C370   C     0.54477   0.78514   0.15201   0.00000  Uiso   1.00
C371   C     0.97260   0.73716   0.13714   0.00000  Uiso   1.00
C372   C     0.52740   0.92952   0.19617   0.00000  Uiso   1.00
Cu373  Cu    0.75501   0.83913   0.22813   0.00000  Uiso   1.00
Cu374  Cu    0.74500   0.82754   0.10521   0.00000  Uiso   1.00
H375   H     0.95500   0.69887   0.12453   0.00000  Uiso   1.00
H376   H     0.54500   0.96780   0.20877   0.00000  Uiso   1.00
H377   H     0.53332   0.69961   0.12857   0.00000  Uiso   1.00
H378   H     0.96668   0.96707   0.20474   0.00000  Uiso   1.00
H379   H     0.74454   0.98654   0.09614   0.00000  Uiso   1.00
H380   H     0.75546   0.68013   0.23719   0.00000  Uiso   1.00
N381   N     0.73745   0.81881   0.01284   0.00000  Uiso   1.00
N382   N     0.76256   0.84786   0.32049   0.00000  Uiso   1.00
O383   O     0.75326   0.76204   0.20659   0.00000  Uiso   1.00
O384   O     0.74675   0.90462   0.12674   0.00000  Uiso   1.00
O385   O     0.74480   0.75226   0.10279   0.00000  Uiso   1.00
O386   O     0.75520   0.91441   0.23055   0.00000  Uiso   1.00
O387   O     0.68936   0.83821   0.21857   0.00000  Uiso   1.00
O388   O     0.81065   0.82845   0.11476   0.00000  Uiso   1.00
O389   O     0.68090   0.82843   0.11477   0.00000  Uiso   1.00
O390   O     0.81910   0.83824   0.21857   0.00000  Uiso   1.00
C391   C     0.88555   0.93143   0.20126   0.00000  Uiso   1.00
O392   O     0.85582   0.94312   0.16816   0.00000  Uiso   1.00
O393   O     0.89742   0.96435   0.25870   0.00000  Uiso   1.00
H394   H     0.87942   0.99692   0.26708   0.00000  Uiso   1.00
C395   C     0.61445   0.73524   0.13207   0.00000  Uiso   1.00
O396   O     0.64418   0.72355   0.16517   0.00000  Uiso   1.00
O397   O     0.60257   0.70232   0.07462   0.00000  Uiso   1.00
H398   H     0.62058   0.66975   0.06624   0.00000  Uiso   1.00
C399   C     0.87495   0.73265   0.14082   0.00000  Uiso   1.00
C400   C     0.86392   0.70890   0.07302   0.00000  Uiso   1.00
H401   H     0.84597   0.73711   0.05164   0.00000  Uiso   1.00
H402   H     0.89477   0.69872   0.04957   0.00000  Uiso   1.00
H403   H     0.84191   0.67267   0.06708   0.00000  Uiso   1.00
H404   H     0.89140   0.70396   0.16300   0.00000  Uiso   1.00
H405   H     0.84327   0.73823   0.16331   0.00000  Uiso   1.00
C406   C     0.62505   0.93402   0.19253   0.00000  Uiso   1.00
C407   C     0.63606   0.95777   0.26034   0.00000  Uiso   1.00
H408   H     0.60520   0.96800   0.28375   0.00000  Uiso   1.00
H409   H     0.65396   0.92954   0.28175   0.00000  Uiso   1.00
H410   H     0.65810   0.99397   0.26630   0.00000  Uiso   1.00
H411   H     0.65675   0.92844   0.17007   0.00000  Uiso   1.00
H412   H     0.60861   0.96271   0.17035   0.00000  Uiso   1.00
C413   C     0.69210   0.81204   0.32410   0.00000  Uiso   1.00
O414   O     0.66830   0.84955   0.00061   0.00000  Uiso   1.00
O415   O     0.67386   0.76171   0.29571   0.00000  Uiso   1.00
H416   H     0.64053   0.76137   0.28515   0.00000  Uiso   1.00
C417   C     0.80790   0.85463   0.00923   0.00000  Uiso   1.00
O418   O     0.83169   0.81711   0.33272   0.00000  Uiso   1.00
O419   O     0.82615   0.90495   0.03761   0.00000  Uiso   1.00
H420   H     0.85948   0.90528   0.04817   0.00000  Uiso   1.00
C421   C     0.24862   0.06668   0.48442   0.00000  Uiso   1.00
C422   C     0.25138   0.26666   0.51558   0.00000  Uiso   1.00
C423   C     0.01862   0.07084   0.47159   0.00000  Uiso   1.00
C424   C     0.48138   0.26250   0.52839   0.00000  Uiso   1.00
C425   C     0.24808   0.01056   0.47587   0.00000  Uiso   1.00
C426   C     0.25192   0.32277   0.52413   0.00000  Uiso   1.00
C427   C     0.16491   0.16663   0.50091   0.00000  Uiso   1.00
C428   C     0.33510   0.16671   0.49909   0.00000  Uiso   1.00
C429   C     0.40844   0.21472   0.51446   0.00000  Uiso   1.00
C430   C     0.09156   0.11861   0.48554   0.00000  Uiso   1.00
C431   C     0.38317   0.16628   0.49756   0.00000  Uiso   1.00
C432   C     0.11683   0.16706   0.50244   0.00000  Uiso   1.00
C433   C     0.40355   0.11756   0.48470   0.00000  Uiso   1.00
C434   C     0.09646   0.21578   0.51531   0.00000  Uiso   1.00
C435   C     0.45058   0.11780   0.48470   0.00000  Uiso   1.00
C436   C     0.04942   0.21554   0.51529   0.00000  Uiso   1.00
C437   C     0.47638   0.16649   0.49976   0.00000  Uiso   1.00
C438   C     0.02362   0.16684   0.50023   0.00000  Uiso   1.00
C439   C     0.45523   0.21486   0.51464   0.00000  Uiso   1.00
C440   C     0.04477   0.11847   0.48535   0.00000  Uiso   1.00
C441   C     0.47260   0.07049   0.47048   0.00000  Uiso   1.00
C442   C     0.02740   0.26285   0.52951   0.00000  Uiso   1.00
Cu443  Cu    0.25501   0.17246   0.56146   0.00000  Uiso   1.00
Cu444  Cu    0.24500   0.16087   0.43854   0.00000  Uiso   1.00
H445   H     0.45500   0.03221   0.45787   0.00000  Uiso   1.00
H446   H     0.04500   0.30113   0.54211   0.00000  Uiso   1.00
H447   H     0.03332   0.03294   0.46191   0.00000  Uiso   1.00
H448   H     0.46668   0.30040   0.53807   0.00000  Uiso   1.00
H449   H     0.24454   0.31987   0.42948   0.00000  Uiso   1.00
H450   H     0.25546   0.01346   0.57052   0.00000  Uiso   1.00
N451   N     0.23745   0.15214   0.34617   0.00000  Uiso   1.00
N452   N     0.26256   0.18119   0.65383   0.00000  Uiso   1.00
O453   O     0.25326   0.09538   0.53992   0.00000  Uiso   1.00
O454   O     0.24675   0.23796   0.46008   0.00000  Uiso   1.00
O455   O     0.24480   0.08559   0.43612   0.00000  Uiso   1.00
O456   O     0.25520   0.24774   0.56388   0.00000  Uiso   1.00
O457   O     0.18936   0.17155   0.55191   0.00000  Uiso   1.00
O458   O     0.31065   0.16179   0.44809   0.00000  Uiso   1.00
O459   O     0.18090   0.16176   0.44810   0.00000  Uiso   1.00
O460   O     0.31910   0.17157   0.55190   0.00000  Uiso   1.00
C461   C     0.38555   0.26476   0.53459   0.00000  Uiso   1.00
O462   O     0.35582   0.27645   0.50149   0.00000  Uiso   1.00
O463   O     0.39742   0.29768   0.59203   0.00000  Uiso   1.00
H464   H     0.37942   0.33026   0.60041   0.00000  Uiso   1.00
C465   C     0.11445   0.06858   0.46540   0.00000  Uiso   1.00
O466   O     0.14418   0.05689   0.49850   0.00000  Uiso   1.00
O467   O     0.10257   0.03566   0.40796   0.00000  Uiso   1.00
H468   H     0.12058   0.00308   0.39957   0.00000  Uiso   1.00
C469   C     0.37495   0.06598   0.47415   0.00000  Uiso   1.00
C470   C     0.36392   0.04223   0.40636   0.00000  Uiso   1.00
H471   H     0.34597   0.07045   0.38497   0.00000  Uiso   1.00
H472   H     0.39477   0.03205   0.38291   0.00000  Uiso   1.00
H473   H     0.34191   0.00600   0.40041   0.00000  Uiso   1.00
H474   H     0.39140   0.03730   0.49633   0.00000  Uiso   1.00
H475   H     0.34327   0.07156   0.49664   0.00000  Uiso   1.00
C476   C     0.12505   0.26735   0.52587   0.00000  Uiso   1.00
C477   C     0.13606   0.29110   0.59367   0.00000  Uiso   1.00
H478   H     0.10520   0.30134   0.61709   0.00000  Uiso   1.00
H479   H     0.15396   0.26287   0.61508   0.00000  Uiso   1.00
H480   H     0.15810   0.32731   0.59964   0.00000  Uiso   1.00
H481   H     0.15675   0.26178   0.50341   0.00000  Uiso   1.00
H482   H     0.10861   0.29604   0.50368   0.00000  Uiso   1.00
C483   C     0.19210   0.14537   0.65744   0.00000  Uiso   1.00
O484   O     0.16830   0.18288   0.33394   0.00000  Uiso   1.00
O485   O     0.17386   0.09504   0.62905   0.00000  Uiso   1.00
H486   H     0.14053   0.09470   0.61848   0.00000  Uiso   1.00
C487   C     0.30790   0.18796   0.34256   0.00000  Uiso   1.00
O488   O     0.33169   0.15044   0.66606   0.00000  Uiso   1.00
O489   O     0.32615   0.23828   0.37094   0.00000  Uiso   1.00
H490   H     0.35948   0.23862   0.38150   0.00000  Uiso   1.00
C491   C     0.74862   0.06668   0.48442   0.00000  Uiso   1.00
C492   C     0.75138   0.26666   0.51558   0.00000  Uiso   1.00
C493   C     0.51862   0.07084   0.47159   0.00000  Uiso   1.00
C494   C     0.98138   0.26250   0.52839   0.00000  Uiso   1.00
C495   C     0.74808   0.01056   0.47587   0.00000  Uiso   1.00
C496   C     0.75192   0.32277   0.52413   0.00000  Uiso   1.00
C497   C     0.66491   0.16663   0.50091   0.00000  Uiso   1.00
C498   C     0.83510   0.16671   0.49909   0.00000  Uiso   1.00
C499   C     0.90844   0.21472   0.51446   0.00000  Uiso   1.00
C500   C     0.59156   0.11861   0.48554   0.00000  Uiso   1.00
C501   C     0.88317   0.16628   0.49756   0.00000  Uiso   1.00
C502   C     0.61683   0.16706   0.50244   0.00000  Uiso   1.00
C503   C     0.90355   0.11756   0.48470   0.00000  Uiso   1.00
C504   C     0.59646   0.21578   0.51531   0.00000  Uiso   1.00
C505   C     0.95058   0.11780   0.48470   0.00000  Uiso   1.00
C506   C     0.54942   0.21554   0.51529   0.00000  Uiso   1.00
C507   C     0.97638   0.16649   0.49976   0.00000  Uiso   1.00
C508   C     0.52362   0.16684   0.50023   0.00000  Uiso   1.00
C509   C     0.95523   0.21486   0.51464   0.00000  Uiso   1.00
C510   C     0.54477   0.11847   0.48535   0.00000  Uiso   1.00
C511   C     0.97260   0.07049   0.47048   0.00000  Uiso   1.00
C512   C     0.52740   0.26285   0.52951   0.00000  Uiso   1.00
Cu513  Cu    0.75501   0.17246   0.56146   0.00000  Uiso   1.00
Cu514  Cu    0.74500   0.16087   0.43854   0.00000  Uiso   1.00
H515   H     0.95500   0.03221   0.45787   0.00000  Uiso   1.00
H516   H     0.54500   0.30113   0.54211   0.00000  Uiso   1.00
H517   H     0.53332   0.03294   0.46191   0.00000  Uiso   1.00
H518   H     0.96668   0.30040   0.53807   0.00000  Uiso   1.00
H519   H     0.74454   0.31987   0.42948   0.00000  Uiso   1.00
H520   H     0.75546   0.01346   0.57052   0.00000  Uiso   1.00
N521   N     0.73745   0.15214   0.34617   0.00000  Uiso   1.00
N522   N     0.76256   0.18119   0.65383   0.00000  Uiso   1.00
O523   O     0.75326   0.09538   0.53992   0.00000  Uiso   1.00
O524   O     0.74675   0.23796   0.46008   0.00000  Uiso   1.00
O525   O     0.74480   0.08559   0.43612   0.00000  Uiso   1.00
O526   O     0.75520   0.24774   0.56388   0.00000  Uiso   1.00
O527   O     0.68936   0.17155   0.55191   0.00000  Uiso   1.00
O528   O     0.81065   0.16179   0.44809   0.00000  Uiso   1.00
O529   O     0.68090   0.16176   0.44810   0.00000  Uiso   1.00
O530   O     0.81910   0.17157   0.55190   0.00000  Uiso   1.00
C531   C     0.88555   0.26476   0.53459   0.00000  Uiso   1.00
O532   O     0.85582   0.27645   0.50149   0.00000  Uiso   1.00
O533   O     0.89742   0.29768   0.59203   0.00000  Uiso   1.00
H534   H     0.87942   0.33026   0.60041   0.00000  Uiso   1.00
C535   C     0.61445   0.06858   0.46540   0.00000  Uiso   1.00
O536   O     0.64418   0.05689   0.49850   0.00000  Uiso   1.00
O537   O     0.60257   0.03566   0.40796   0.00000  Uiso   1.00
H538   H     0.62058   0.00308   0.39957   0.00000  Uiso   1.00
C539   C     0.87495   0.06598   0.47415   0.00000  Uiso   1.00
C540   C     0.86392   0.04223   0.40636   0.00000  Uiso   1.00
H541   H     0.84597   0.07045   0.38497   0.00000  Uiso   1.00
H542   H     0.89477   0.03205   0.38291   0.00000  Uiso   1.00
H543   H     0.84191   0.00600   0.40041   0.00000  Uiso   1.00
H544   H     0.89140   0.03730   0.49633   0.00000  Uiso   1.00
H545   H     0.84327   0.07156   0.49664   0.00000  Uiso   1.00
C546   C     0.62505   0.26735   0.52587   0.00000  Uiso   1.00
C547   C     0.63606   0.29110   0.59367   0.00000  Uiso   1.00
H548   H     0.60520   0.30134   0.61709   0.00000  Uiso   1.00
H549   H     0.65396   0.26287   0.61508   0.00000  Uiso   1.00
H550   H     0.65810   0.32731   0.59964   0.00000  Uiso   1.00
H551   H     0.65675   0.26178   0.50341   0.00000  Uiso   1.00
H552   H     0.60861   0.29604   0.50368   0.00000  Uiso   1.00
C553   C     0.69210   0.14537   0.65744   0.00000  Uiso   1.00
O554   O     0.66830   0.18288   0.33394   0.00000  Uiso   1.00
O555   O     0.67386   0.09504   0.62905   0.00000  Uiso   1.00
H556   H     0.64053   0.09470   0.61848   0.00000  Uiso   1.00
C557   C     0.80790   0.18796   0.34256   0.00000  Uiso   1.00
O558   O     0.83169   0.15044   0.66606   0.00000  Uiso   1.00
O559   O     0.82615   0.23828   0.37094   0.00000  Uiso   1.00
H560   H     0.85948   0.23862   0.38150   0.00000  Uiso   1.00
C561   C     0.24862   0.40001   0.48442   0.00000  Uiso   1.00
C562   C     0.25138   0.59999   0.51558   0.00000  Uiso   1.00
C563   C     0.01862   0.40417   0.47159   0.00000  Uiso   1.00
C564   C     0.48138   0.59584   0.52839   0.00000  Uiso   1.00
C565   C     0.24808   0.34390   0.47587   0.00000  Uiso   1.00
C566   C     0.25192   0.65610   0.52413   0.00000  Uiso   1.00
C567   C     0.16491   0.49996   0.50091   0.00000  Uiso   1.00
C568   C     0.33510   0.50004   0.49909   0.00000  Uiso   1.00
C569   C     0.40844   0.54806   0.51446   0.00000  Uiso   1.00
C570   C     0.09156   0.45195   0.48554   0.00000  Uiso   1.00
C571   C     0.38317   0.49961   0.49756   0.00000  Uiso   1.00
C572   C     0.11683   0.50039   0.50244   0.00000  Uiso   1.00
C573   C     0.40355   0.45089   0.48470   0.00000  Uiso   1.00
C574   C     0.09646   0.54911   0.51531   0.00000  Uiso   1.00
C575   C     0.45058   0.45113   0.48470   0.00000  Uiso   1.00
C576   C     0.04942   0.54888   0.51529   0.00000  Uiso   1.00
C577   C     0.47638   0.49983   0.49976   0.00000  Uiso   1.00
C578   C     0.02362   0.50018   0.50023   0.00000  Uiso   1.00
C579   C     0.45523   0.54820   0.51464   0.00000  Uiso   1.00
C580   C     0.04477   0.45181   0.48535   0.00000  Uiso   1.00
C581   C     0.47260   0.40382   0.47048   0.00000  Uiso   1.00
C582   C     0.02740   0.59618   0.52951   0.00000  Uiso   1.00
Cu583  Cu    0.25501   0.50579   0.56146   0.00000  Uiso   1.00
Cu584  Cu    0.24500   0.49421   0.43854   0.00000  Uiso   1.00
H585   H     0.45500   0.36554   0.45787   0.00000  Uiso   1.00
H586   H     0.04500   0.63447   0.54211   0.00000  Uiso   1.00
H587   H     0.03332   0.36627   0.46191   0.00000  Uiso   1.00
H588   H     0.46668   0.63373   0.53807   0.00000  Uiso   1.00
H589   H     0.24454   0.65320   0.42948   0.00000  Uiso   1.00
H590   H     0.25546   0.34680   0.57052   0.00000  Uiso   1.00
N591   N     0.23745   0.48547   0.34617   0.00000  Uiso   1.00
N592   N     0.26256   0.51453   0.65383   0.00000  Uiso   1.00
O593   O     0.25326   0.42871   0.53992   0.00000  Uiso   1.00
O594   O     0.24675   0.57129   0.46008   0.00000  Uiso   1.00
O595   O     0.24480   0.41892   0.43612   0.00000  Uiso   1.00
O596   O     0.25520   0.58108   0.56388   0.00000  Uiso   1.00
O597   O     0.18936   0.50488   0.55191   0.00000  Uiso   1.00
O598   O     0.31065   0.49512   0.44809   0.00000  Uiso   1.00
O599   O     0.18090   0.49510   0.44810   0.00000  Uiso   1.00
O600   O     0.31910   0.50490   0.55190   0.00000  Uiso   1.00
C601   C     0.38555   0.59809   0.53459   0.00000  Uiso   1.00
O602   O     0.35582   0.60978   0.50149   0.00000  Uiso   1.00
O603   O     0.39742   0.63101   0.59203   0.00000  Uiso   1.00
H604   H     0.37942   0.66359   0.60041   0.00000  Uiso   1.00
C605   C     0.11445   0.40191   0.46540   0.00000  Uiso   1.00
O606   O     0.14418   0.39022   0.49850   0.00000  Uiso   1.00
O607   O     0.10257   0.36899   0.40796   0.00000  Uiso   1.00
H608   H     0.12058   0.33642   0.39957   0.00000  Uiso   1.00
C609   C     0.37495   0.39932   0.47415   0.00000  Uiso   1.00
C610   C     0.36392   0.37557   0.40636   0.00000  Uiso   1.00
H611   H     0.34597   0.40378   0.38497   0.00000  Uiso   1.00
H612   H     0.39477   0.36538   0.38291   0.00000  Uiso   1.00
H613   H     0.34191   0.33934   0.40041   0.00000  Uiso   1.00
H614   H     0.39140   0.37063   0.49633   0.00000  Uiso   1.00
H615   H     0.34327   0.40490   0.49664   0.00000  Uiso   1.00
C616   C     0.12505   0.60069   0.52587   0.00000  Uiso   1.00
C617   C     0.13606   0.62444   0.59367   0.00000  Uiso   1.00
H618   H     0.10520   0.63467   0.61709   0.00000  Uiso   1.00
H619   H     0.15396   0.59621   0.61508   0.00000  Uiso   1.00
H620   H     0.15810   0.66064   0.59964   0.00000  Uiso   1.00
H621   H     0.15675   0.59511   0.50341   0.00000  Uiso   1.00
H622   H     0.10861   0.62937   0.50368   0.00000  Uiso   1.00
C623   C     0.19210   0.47870   0.65744   0.00000  Uiso   1.00
O624   O     0.16830   0.51621   0.33394   0.00000  Uiso   1.00
O625   O     0.17386   0.42837   0.62905   0.00000  Uiso   1.00
H626   H     0.14053   0.42804   0.61848   0.00000  Uiso   1.00
C627   C     0.30790   0.52129   0.34256   0.00000  Uiso   1.00
O628   O     0.33169   0.48378   0.66606   0.00000  Uiso   1.00
O629   O     0.32615   0.57162   0.37094   0.00000  Uiso   1.00
H630   H     0.35948   0.57195   0.38150   0.00000  Uiso   1.00
C631   C     0.74862   0.40001   0.48442   0.00000  Uiso   1.00
C632   C     0.75138   0.59999   0.51558   0.00000  Uiso   1.00
C633   C     0.51862   0.40417   0.47159   0.00000  Uiso   1.00
C634   C     0.98138   0.59584   0.52839   0.00000  Uiso   1.00
C635   C     0.74808   0.34390   0.47587   0.00000  Uiso   1.00
C636   C     0.75192   0.65610   0.52413   0.00000  Uiso   1.00
C637   C     0.66491   0.49996   0.50091   0.00000  Uiso   1.00
C638   C     0.83510   0.50004   0.49909   0.00000  Uiso   1.00
C639   C     0.90844   0.54806   0.51446   0.00000  Uiso   1.00
C640   C     0.59156   0.45195   0.48554   0.00000  Uiso   1.00
C641   C     0.88317   0.49961   0.49756   0.00000  Uiso   1.00
C642   C     0.61683   0.50039   0.50244   0.00000  Uiso   1.00
C643   C     0.90355   0.45089   0.48470   0.00000  Uiso   1.00
C644   C     0.59646   0.54911   0.51531   0.00000  Uiso   1.00
C645   C     0.95058   0.45113   0.48470   0.00000  Uiso   1.00
C646   C     0.54942   0.54888   0.51529   0.00000  Uiso   1.00
C647   C     0.97638   0.49983   0.49976   0.00000  Uiso   1.00
C648   C     0.52362   0.50018   0.50023   0.00000  Uiso   1.00
C649   C     0.95523   0.54820   0.51464   0.00000  Uiso   1.00
C650   C     0.54477   0.45181   0.48535   0.00000  Uiso   1.00
C651   C     0.97260   0.40382   0.47048   0.00000  Uiso   1.00
C652   C     0.52740   0.59618   0.52951   0.00000  Uiso   1.00
Cu653  Cu    0.75501   0.50579   0.56146   0.00000  Uiso   1.00
Cu654  Cu    0.74500   0.49421   0.43854   0.00000  Uiso   1.00
H655   H     0.95500   0.36554   0.45787   0.00000  Uiso   1.00
H656   H     0.54500   0.63447   0.54211   0.00000  Uiso   1.00
H657   H     0.53332   0.36627   0.46191   0.00000  Uiso   1.00
H658   H     0.96668   0.63373   0.53807   0.00000  Uiso   1.00
H659   H     0.74454   0.65320   0.42948   0.00000  Uiso   1.00
H660   H     0.75546   0.34680   0.57052   0.00000  Uiso   1.00
N661   N     0.73745   0.48547   0.34617   0.00000  Uiso   1.00
N662   N     0.76256   0.51453   0.65383   0.00000  Uiso   1.00
O663   O     0.75326   0.42871   0.53992   0.00000  Uiso   1.00
O664   O     0.74675   0.57129   0.46008   0.00000  Uiso   1.00
O665   O     0.74480   0.41892   0.43612   0.00000  Uiso   1.00
O666   O     0.75520   0.58108   0.56388   0.00000  Uiso   1.00
O667   O     0.68936   0.50488   0.55191   0.00000  Uiso   1.00
O668   O     0.81065   0.49512   0.44809   0.00000  Uiso   1.00
O669   O     0.68090   0.49510   0.44810   0.00000  Uiso   1.00
O670   O     0.81910   0.50490   0.55190   0.00000  Uiso   1.00
C671   C     0.88555   0.59809   0.53459   0.00000  Uiso   1.00
O672   O     0.85582   0.60978   0.50149   0.00000  Uiso   1.00
O673   O     0.89742   0.63101   0.59203   0.00000  Uiso   1.00
H674   H     0.87942   0.66359   0.60041   0.00000  Uiso   1.00
C675   C     0.61445   0.40191   0.46540   0.00000  Uiso   1.00
O676   O     0.64418   0.39022   0.49850   0.00000  Uiso   1.00
O677   O     0.60257   0.36899   0.40796   0.00000  Uiso   1.00
H678   H     0.62058   0.33642   0.39957   0.00000  Uiso   1.00
C679   C     0.87495   0.39932   0.47415   0.00000  Uiso   1.00
C680   C     0.86392   0.37557   0.40636   0.00000  Uiso   1.00
H681   H     0.84597   0.40378   0.38497   0.00000  Uiso   1.00
H682   H     0.89477   0.36538   0.38291   0.00000  Uiso   1.00
H683   H     0.84191   0.33934   0.40041   0.00000  Uiso   1.00
H684   H     0.89140   0.37063   0.49633   0.00000  Uiso   1.00
H685   H     0.84327   0.40490   0.49664   0.00000  Uiso   1.00
C686   C     0.62505   0.60069   0.52587   0.00000  Uiso   1.00
C687   C     0.63606   0.62444   0.59367   0.00000  Uiso   1.00
H688   H     0.60520   0.63467   0.61709   0.00000  Uiso   1.00
H689   H     0.65396   0.59621   0.61508   0.00000  Uiso   1.00
H690   H     0.65810   0.66064   0.59964   0.00000  Uiso   1.00
H691   H     0.65675   0.59511   0.50341   0.00000  Uiso   1.00
H692   H     0.60861   0.62937   0.50368   0.00000  Uiso   1.00
C693   C     0.69210   0.47870   0.65744   0.00000  Uiso   1.00
O694   O     0.66830   0.51621   0.33394   0.00000  Uiso   1.00
O695   O     0.67386   0.42837   0.62905   0.00000  Uiso   1.00
H696   H     0.64053   0.42804   0.61848   0.00000  Uiso   1.00
C697   C     0.80790   0.52129   0.34256   0.00000  Uiso   1.00
O698   O     0.83169   0.48378   0.66606   0.00000  Uiso   1.00
O699   O     0.82615   0.57162   0.37094   0.00000  Uiso   1.00
H700   H     0.85948   0.57195   0.38150   0.00000  Uiso   1.00
C701   C     0.24862   0.73334   0.48442   0.00000  Uiso   1.00
C702   C     0.25138   0.93332   0.51558   0.00000  Uiso   1.00
C703   C     0.01862   0.73750   0.47159   0.00000  Uiso   1.00
C704   C     0.48138   0.92917   0.52839   0.00000  Uiso   1.00
C705   C     0.24808   0.67723   0.47587   0.00000  Uiso   1.00
C706   C     0.25192   0.98944   0.52413   0.00000  Uiso   1.00
C707   C     0.16491   0.83329   0.50091   0.00000  Uiso   1.00
C708   C     0.33510   0.83337   0.49909   0.00000  Uiso   1.00
C709   C     0.40844   0.88139   0.51446   0.00000  Uiso   1.00
C710   C     0.09156   0.78528   0.48554   0.00000  Uiso   1.00
C711   C     0.38317   0.83295   0.49756   0.00000  Uiso   1.00
C712   C     0.11683   0.83372   0.50244   0.00000  Uiso   1.00
C713   C     0.40355   0.78423   0.48470   0.00000  Uiso   1.00
C714   C     0.09646   0.88245   0.51531   0.00000  Uiso   1.00
C715   C     0.45058   0.78446   0.48470   0.00000  Uiso   1.00
C716   C     0.04942   0.88221   0.51529   0.00000  Uiso   1.00
C717   C     0.47638   0.83316   0.49976   0.00000  Uiso   1.00
C718   C     0.02362   0.83351   0.50023   0.00000  Uiso   1.00
C719   C     0.45523   0.88153   0.51464   0.00000  Uiso   1.00
C720   C     0.04477   0.78514   0.48535   0.00000  Uiso   1.00
C721   C     0.47260   0.73716   0.47048   0.00000  Uiso   1.00
C722   C     0.02740   0.92952   0.52951   0.00000  Uiso   1.00
Cu723  Cu    0.25501   0.83913   0.56146   0.00000  Uiso   1.00
Cu724  Cu    0.24500   0.82754   0.43854   0.00000  Uiso   1.00
H725   H     0.45500   0.69887   0.45787   0.00000  Uiso   1.00
H726   H     0.04500   0.96780   0.54211   0.00000  Uiso   1.00
H727   H     0.03332   0.69961   0.46191   0.00000  Uiso   1.00
H728   H     0.46668   0.96707   0.53807   0.00000  Uiso   1.00
H729   H     0.24454   0.98654   0.42948   0.00000  Uiso   1.00
H730   H     0.25546   0.68013   0.57052   0.00000  Uiso   1.00
N731   N     0.23745   0.81881   0.34617   0.00000  Uiso   1.00
N732   N     0.26256   0.84786   0.65383   0.00000  Uiso   1.00
O733   O     0.25326   0.76204   0.53992   0.00000  Uiso   1.00
O734   O     0.24675   0.90462   0.46008   0.00000  Uiso   1.00
O735   O     0.24480   0.75226   0.43612   0.00000  Uiso   1.00
O736   O     0.25520   0.91441   0.56388   0.00000  Uiso   1.00
O737   O     0.18936   0.83821   0.55191   0.00000  Uiso   1.00
O738   O     0.31065   0.82845   0.44809   0.00000  Uiso   1.00
O739   O     0.18090   0.82843   0.44810   0.00000  Uiso   1.00
O740   O     0.31910   0.83824   0.55190   0.00000  Uiso   1.00
C741   C     0.38555   0.93143   0.53459   0.00000  Uiso   1.00
O742   O     0.35582   0.94312   0.50149   0.00000  Uiso   1.00
O743   O     0.39742   0.96435   0.59203   0.00000  Uiso   1.00
H744   H     0.37942   0.99692   0.60041   0.00000  Uiso   1.00
C745   C     0.11445   0.73524   0.46540   0.00000  Uiso   1.00
O746   O     0.14418   0.72355   0.49850   0.00000  Uiso   1.00
O747   O     0.10257   0.70232   0.40796   0.00000  Uiso   1.00
H748   H     0.12058   0.66975   0.39957   0.00000  Uiso   1.00
C749   C     0.37495   0.73265   0.47415   0.00000  Uiso   1.00
C750   C     0.36392   0.70890   0.40636   0.00000  Uiso   1.00
H751   H     0.34597   0.73711   0.38497   0.00000  Uiso   1.00
H752   H     0.39477   0.69872   0.38291   0.00000  Uiso   1.00
H753   H     0.34191   0.67267   0.40041   0.00000  Uiso   1.00
H754   H     0.39140   0.70396   0.49633   0.00000  Uiso   1.00
H755   H     0.34327   0.73823   0.49664   0.00000  Uiso   1.00
C756   C     0.12505   0.93402   0.52587   0.00000  Uiso   1.00
C757   C     0.13606   0.95777   0.59367   0.00000  Uiso   1.00
H758   H     0.10520   0.96800   0.61709   0.00000  Uiso   1.00
H759   H     0.15396   0.92954   0.61508   0.00000  Uiso   1.00
H760   H     0.15810   0.99397   0.59964   0.00000  Uiso   1.00
H761   H     0.15675   0.92844   0.50341   0.00000  Uiso   1.00
H762   H     0.10861   0.96271   0.50368   0.00000  Uiso   1.00
C763   C     0.19210   0.81204   0.65744   0.00000  Uiso   1.00
O764   O     0.16830   0.84955   0.33394   0.00000  Uiso   1.00
O765   O     0.17386   0.76171   0.62905   0.00000  Uiso   1.00
H766   H     0.14053   0.76137   0.61848   0.00000  Uiso   1.00
C767   C     0.30790   0.85463   0.34256   0.00000  Uiso   1.00
O768   O     0.33169   0.81711   0.66606   0.00000  Uiso   1.00
O769   O     0.32615   0.90495   0.37094   0.00000  Uiso   1.00
H770   H     0.35948   0.90528   0.38150   0.00000  Uiso   1.00
C771   C     0.74862   0.73334   0.48442   0.00000  Uiso   1.00
C772   C     0.75138   0.93332   0.51558   0.00000  Uiso   1.00
C773   C     0.51862   0.73750   0.47159   0.00000  Uiso   1.00
C774   C     0.98138   0.92917   0.52839   0.00000  Uiso   1.00
C775   C     0.74808   0.67723   0.47587   0.00000  Uiso   1.00
C776   C     0.75192   0.98944   0.52413   0.00000  Uiso   1.00
C777   C     0.66491   0.83329   0.50091   0.00000  Uiso   1.00
C778   C     0.83510   0.83337   0.49909   0.00000  Uiso   1.00
C779   C     0.90844   0.88139   0.51446   0.00000  Uiso   1.00
C780   C     0.59156   0.78528   0.48554   0.00000  Uiso   1.00
C781   C     0.88317   0.83295   0.49756   0.00000  Uiso   1.00
C782   C     0.61683   0.83372   0.50244   0.00000  Uiso   1.00
C783   C     0.90355   0.78423   0.48470   0.00000  Uiso   1.00
C784   C     0.59646   0.88245   0.51531   0.00000  Uiso   1.00
C785   C     0.95058   0.78446   0.48470   0.00000  Uiso   1.00
C786   C     0.54942   0.88221   0.51529   0.00000  Uiso   1.00
C787   C     0.97638   0.83316   0.49976   0.00000  Uiso   1.00
C788   C     0.52362   0.83351   0.50023   0.00000  Uiso   1.00
C789   C     0.95523   0.88153   0.51464   0.00000  Uiso   1.00
C790   C     0.54477   0.78514   0.48535   0.00000  Uiso   1.00
C791   C     0.97260   0.73716   0.47048   0.00000  Uiso   1.00
C792   C     0.52740   0.92952   0.52951   0.00000  Uiso   1.00
Cu793  Cu    0.75501   0.83913   0.56146   0.00000  Uiso   1.00
Cu794  Cu    0.74500   0.82754   0.43854   0.00000  Uiso   1.00
H795   H     0.95500   0.69887   0.45787   0.00000  Uiso   1.00
H796   H     0.54500   0.96780   0.54211   0.00000  Uiso   1.00
H797   H     0.53332   0.69961   0.46191   0.00000  Uiso   1.00
H798   H     0.96668   0.96707   0.53807   0.00000  Uiso   1.00
H799   H     0.74454   0.98654   0.42948   0.00000  Uiso   1.00
H800   H     0.75546   0.68013   0.57052   0.00000  Uiso   1.00
N801   N     0.73745   0.81881   0.34617   0.00000  Uiso   1.00
N802   N     0.76256   0.84786   0.65383   0.00000  Uiso   1.00
O803   O     0.75326   0.76204   0.53992   0.00000  Uiso   1.00
O804   O     0.74675   0.90462   0.46008   0.00000  Uiso   1.00
O805   O     0.74480   0.75226   0.43612   0.00000  Uiso   1.00
O806   O     0.75520   0.91441   0.56388   0.00000  Uiso   1.00
O807   O     0.68936   0.83821   0.55191   0.00000  Uiso   1.00
O808   O     0.81065   0.82845   0.44809   0.00000  Uiso   1.00
O809   O     0.68090   0.82843   0.44810   0.00000  Uiso   1.00
O810   O     0.81910   0.83824   0.55190   0.00000  Uiso   1.00
C811   C     0.88555   0.93143   0.53459   0.00000  Uiso   1.00
O812   O     0.85582   0.94312   0.50149   0.00000  Uiso   1.00
O813   O     0.89742   0.96435   0.59203   0.00000  Uiso   1.00
H814   H     0.87942   0.99692   0.60041   0.00000  Uiso   1.00
C815   C     0.61445   0.73524   0.46540   0.00000  Uiso   1.00
O816   O     0.64418   0.72355   0.49850   0.00000  Uiso   1.00
O817   O     0.60257   0.70232   0.40796   0.00000  Uiso   1.00
H818   H     0.62058   0.66975   0.39957   0.00000  Uiso   1.00
C819   C     0.87495   0.73265   0.47415   0.00000  Uiso   1.00
C820   C     0.86392   0.70890   0.40636   0.00000  Uiso   1.00
H821   H     0.84597   0.73711   0.38497   0.00000  Uiso   1.00
H822   H     0.89477   0.69872   0.38291   0.00000  Uiso   1.00
H823   H     0.84191   0.67267   0.40041   0.00000  Uiso   1.00
H824   H     0.89140   0.70396   0.49633   0.00000  Uiso   1.00
H825   H     0.84327   0.73823   0.49664   0.00000  Uiso   1.00
C826   C     0.62505   0.93402   0.52587   0.00000  Uiso   1.00
C827   C     0.63606   0.95777   0.59367   0.00000  Uiso   1.00
H828   H     0.60520   0.96800   0.61709   0.00000  Uiso   1.00
H829   H     0.65396   0.92954   0.61508   0.00000  Uiso   1.00
H830   H     0.65810   0.99397   0.59964   0.00000  Uiso   1.00
H831   H     0.65675   0.92844   0.50341   0.00000  Uiso   1.00
H832   H     0.60861   0.96271   0.50368   0.00000  Uiso   1.00
C833   C     0.69210   0.81204   0.65744   0.00000  Uiso   1.00
O834   O     0.66830   0.84955   0.33394   0.00000  Uiso   1.00
O835   O     0.67386   0.76171   0.62905   0.00000  Uiso   1.00
H836   H     0.64053   0.76137   0.61848   0.00000  Uiso   1.00
C837   C     0.80790   0.85463   0.34256   0.00000  Uiso   1.00
O838   O     0.83169   0.81711   0.66606   0.00000  Uiso   1.00
O839   O     0.82615   0.90495   0.37094   0.00000  Uiso   1.00
H840   H     0.85948   0.90528   0.38150   0.00000  Uiso   1.00
C841   C     0.24862   0.06668   0.81775   0.00000  Uiso   1.00
C842   C     0.25138   0.26666   0.84892   0.00000  Uiso   1.00
C843   C     0.01862   0.07084   0.80493   0.00000  Uiso   1.00
C844   C     0.48138   0.26250   0.86172   0.00000  Uiso   1.00
C845   C     0.24808   0.01056   0.80920   0.00000  Uiso   1.00
C846   C     0.25192   0.32277   0.85746   0.00000  Uiso   1.00
C847   C     0.16491   0.16663   0.83424   0.00000  Uiso   1.00
C848   C     0.33510   0.16671   0.83243   0.00000  Uiso   1.00
C849   C     0.40844   0.21472   0.84779   0.00000  Uiso   1.00
C850   C     0.09156   0.11861   0.81887   0.00000  Uiso   1.00
C851   C     0.38317   0.16628   0.83089   0.00000  Uiso   1.00
C852   C     0.11683   0.16706   0.83577   0.00000  Uiso   1.00
C853   C     0.40355   0.11756   0.81803   0.00000  Uiso   1.00
C854   C     0.09646   0.21578   0.84864   0.00000  Uiso   1.00
C855   C     0.45058   0.11780   0.81804   0.00000  Uiso   1.00
C856   C     0.04942   0.21554   0.84862   0.00000  Uiso   1.00
C857   C     0.47638   0.16649   0.83309   0.00000  Uiso   1.00
C858   C     0.02362   0.16684   0.83357   0.00000  Uiso   1.00
C859   C     0.45523   0.21486   0.84798   0.00000  Uiso   1.00
C860   C     0.04477   0.11847   0.81868   0.00000  Uiso   1.00
C861   C     0.47260   0.07049   0.80381   0.00000  Uiso   1.00
C862   C     0.02740   0.26285   0.86284   0.00000  Uiso   1.00
Cu863  Cu    0.25501   0.17246   0.89479   0.00000  Uiso   1.00
Cu864  Cu    0.24500   0.16087   0.77187   0.00000  Uiso   1.00
H865   H     0.45500   0.03221   0.79120   0.00000  Uiso   1.00
H866   H     0.04500   0.30113   0.87544   0.00000  Uiso   1.00
H867   H     0.03332   0.03294   0.79524   0.00000  Uiso   1.00
H868   H     0.46668   0.30040   0.87140   0.00000  Uiso   1.00
H869   H     0.24454   0.31987   0.76281   0.00000  Uiso   1.00
H870   H     0.25546   0.01346   0.90386   0.00000  Uiso   1.00
N871   N     0.23745   0.15214   0.67951   0.00000  Uiso   1.00
N872   N     0.26256   0.18119   0.98716   0.00000  Uiso   1.00
O873   O     0.25326   0.09538   0.87326   0.00000  Uiso   1.00
O874   O     0.24675   0.23796   0.79341   0.00000  Uiso   1.00
O875   O     0.24480   0.08559   0.76945   0.00000  Uiso   1.00
O876   O     0.25520   0.24774   0.89721   0.00000  Uiso   1.00
O877   O     0.18936   0.17155   0.88524   0.00000  Uiso   1.00
O878   O     0.31065   0.16179   0.78143   0.00000  Uiso   1.00
O879   O     0.18090   0.16176   0.78143   0.00000  Uiso   1.00
O880   O     0.31910   0.17157   0.88523   0.00000  Uiso   1.00
C881   C     0.38555   0.26476   0.86792   0.00000  Uiso   1.00
O882   O     0.35582   0.27645   0.83482   0.00000  Uiso   1.00
O883   O     0.39742   0.29768   0.92537   0.00000  Uiso   1.00
H884   H     0.37942   0.33026   0.93375   0.00000  Uiso   1.00
C885   C     0.11445   0.06858   0.79874   0.00000  Uiso   1.00
O886   O     0.14418   0.05689   0.83183   0.00000  Uiso   1.00
O887   O     0.10257   0.03566   0.74129   0.00000  Uiso   1.00
H888   H     0.12058   0.00308   0.73291   0.00000  Uiso   1.00
C889   C     0.37495   0.06598   0.80749   0.00000  Uiso   1.00
C890   C     0.36392   0.04223   0.73969   0.00000  Uiso   1.00
H891   H     0.34597   0.07045   0.71830   0.00000  Uiso   1.00
H892   H     0.39477   0.03205   0.71624   0.00000  Uiso   1.00
H893   H     0.34191   0.00600   0.73374   0.00000  Uiso   1.00
H894   H     0.39140   0.03730   0.82966   0.00000  Uiso   1.00
H895   H     0.34327   0.07156   0.82998   0.00000  Uiso   1.00
C896   C     0.12505   0.26735   0.85920   0.00000  Uiso   1.00
C897   C     0.13606   0.29110   0.92700   0.00000  Uiso   1.00
H898   H     0.10520   0.30134   0.95042   0.00000  Uiso   1.00
H899   H     0.15396   0.26287   0.94842   0.00000  Uiso   1.00
H900   H     0.15810   0.32731   0.93297   0.00000  Uiso   1.00
H901   H     0.15675   0.26178   0.83674   0.00000  Uiso   1.00
H902   H     0.10861   0.29604   0.83702   0.00000  Uiso   1.00
C903   C     0.19210   0.14537   0.99077   0.00000  Uiso   1.00
O904   O     0.16830   0.18288   0.66728   0.00000  Uiso   1.00
O905   O     0.17386   0.09504   0.96238   0.00000  Uiso   1.00
H906   H     0.14053   0.09470   0.95182   0.00000  Uiso   1.00
C907   C     0.30790   0.18796   0.67589   0.00000  Uiso   1.00
O908   O     0.33169   0.15044   0.99939   0.00000  Uiso   1.00
O909   O     0.32615   0.23828   0.70427   0.00000  Uiso   1.00
H910   H     0.35948   0.23862   0.71484   0.00000  Uiso   1.00
C911   C     0.74862   0.06668   0.81775   0.00000  Uiso   1.00
C912   C     0.75138   0.26666   0.84892   0.00000  Uiso   1.00
C913   C     0.51862   0.07084   0.80493   0.00000  Uiso   1.00
C914   C     0.98138   0.26250   0.86172   0.00000  Uiso   1.00
C915   C     0.74808   0.01056   0.80920   0.00000  Uiso   1.00
C916   C     0.75192   0.32277   0.85746   0.00000  Uiso   1.00
C917   C     0.66491   0.16663   0.83424   0.00000  Uiso   1.00
C918   C     0.83510   0.16671   0.83243   0.00000  Uiso   1.00
C919   C     0.90844   0.21472   0.84779   0.00000  Uiso   1.00
C920   C     0.59156   0.11861   0.81887   0.00000  Uiso   1.00
C921   C     0.88317   0.16628   0.83089   0.00000  Uiso   1.00
C922   C     0.61683   0.16706   0.83577   0.00000  Uiso   1.00
C923   C     0.90355   0.11756   0.81803   0.00000  Uiso   1.00
C924   C     0.59646   0.21578   0.84864   0.00000  Uiso   1.00
C925   C     0.95058   0.11780   0.81804   0.00000  Uiso   1.00
C926   C     0.54942   0.21554   0.84862   0.00000  Uiso   1.00
C927   C     0.97638   0.16649   0.83309   0.00000  Uiso   1.00
C928   C     0.52362   0.16684   0.83357   0.00000  Uiso   1.00
C929   C     0.95523   0.21486   0.84798   0.00000  Uiso   1.00
C930   C     0.54477   0.11847   0.81868   0.00000  Uiso   1.00
C931   C     0.97260   0.07049   0.80381   0.00000  Uiso   1.00
C932   C     0.52740   0.26285   0.86284   0.00000  Uiso   1.00
Cu933  Cu    0.75501   0.17246   0.89479   0.00000  Uiso   1.00
Cu934  Cu    0.74500   0.16087   0.77187   0.00000  Uiso   1.00
H935   H     0.95500   0.03221   0.79120   0.00000  Uiso   1.00
H936   H     0.54500   0.30113   0.87544   0.00000  Uiso   1.00
H937   H     0.53332   0.03294   0.79524   0.00000  Uiso   1.00
H938   H     0.96668   0.30040   0.87140   0.00000  Uiso   1.00
H939   H     0.74454   0.31987   0.76281   0.00000  Uiso   1.00
H940   H     0.75546   0.01346   0.90386   0.00000  Uiso   1.00
N941   N     0.73745   0.15214   0.67951   0.00000  Uiso   1.00
N942   N     0.76256   0.18119   0.98716   0.00000  Uiso   1.00
O943   O     0.75326   0.09538   0.87326   0.00000  Uiso   1.00
O944   O     0.74675   0.23796   0.79341   0.00000  Uiso   1.00
O945   O     0.74480   0.08559   0.76945   0.00000  Uiso   1.00
O946   O     0.75520   0.24774   0.89721   0.00000  Uiso   1.00
O947   O     0.68936   0.17155   0.88524   0.00000  Uiso   1.00
O948   O     0.81065   0.16179   0.78143   0.00000  Uiso   1.00
O949   O     0.68090   0.16176   0.78143   0.00000  Uiso   1.00
O950   O     0.81910   0.17157   0.88523   0.00000  Uiso   1.00
C951   C     0.88555   0.26476   0.86792   0.00000  Uiso   1.00
O952   O     0.85582   0.27645   0.83482   0.00000  Uiso   1.00
O953   O     0.89742   0.29768   0.92537   0.00000  Uiso   1.00
H954   H     0.87942   0.33026   0.93375   0.00000  Uiso   1.00
C955   C     0.61445   0.06858   0.79874   0.00000  Uiso   1.00
O956   O     0.64418   0.05689   0.83183   0.00000  Uiso   1.00
O957   O     0.60257   0.03566   0.74129   0.00000  Uiso   1.00
H958   H     0.62058   0.00308   0.73291   0.00000  Uiso   1.00
C959   C     0.87495   0.06598   0.80749   0.00000  Uiso   1.00
C960   C     0.86392   0.04223   0.73969   0.00000  Uiso   1.00
H961   H     0.84597   0.07045   0.71830   0.00000  Uiso   1.00
H962   H     0.89477   0.03205   0.71624   0.00000  Uiso   1.00
H963   H     0.84191   0.00600   0.73374   0.00000  Uiso   1.00
H964   H     0.89140   0.03730   0.82966   0.00000  Uiso   1.00
H965   H     0.84327   0.07156   0.82998   0.00000  Uiso   1.00
C966   C     0.62505   0.26735   0.85920   0.00000  Uiso   1.00
C967   C     0.63606   0.29110   0.92700   0.00000  Uiso   1.00
H968   H     0.60520   0.30134   0.95042   0.00000  Uiso   1.00
H969   H     0.65396   0.26287   0.94842   0.00000  Uiso   1.00
H970   H     0.65810   0.32731   0.93297   0.00000  Uiso   1.00
H971   H     0.65675   0.26178   0.83674   0.00000  Uiso   1.00
H972   H     0.60861   0.29604   0.83702   0.00000  Uiso   1.00
C973   C     0.69210   0.14537   0.99077   0.00000  Uiso   1.00
O974   O     0.66830   0.18288   0.66728   0.00000  Uiso   1.00
O975   O     0.67386   0.09504   0.96238   0.00000  Uiso   1.00
H976   H     0.64053   0.09470   0.95182   0.00000  Uiso   1.00
C977   C     0.80790   0.18796   0.67589   0.00000  Uiso   1.00
O978   O     0.83169   0.15044   0.99939   0.00000  Uiso   1.00
O979   O     0.82615   0.23828   0.70427   0.00000  Uiso   1.00
H980   H     0.85948   0.23862   0.71484   0.00000  Uiso   1.00
C981   C     0.24862   0.40001   0.81775   0.00000  Uiso   1.00
C982   C     0.25138   0.59999   0.84892   0.00000  Uiso   1.00
C983   C     0.01862   0.40417   0.80493   0.00000  Uiso   1.00
C984   C     0.48138   0.59584   0.86172   0.00000  Uiso   1.00
C985   C     0.24808   0.34390   0.80920   0.00000  Uiso   1.00
C986   C     0.25192   0.65610   0.85746   0.00000  Uiso   1.00
C987   C     0.16491   0.49996   0.83424   0.00000  Uiso   1.00
C988   C     0.33510   0.50004   0.83243   0.00000  Uiso   1.00
C989   C     0.40844   0.54806   0.84779   0.00000  Uiso   1.00
C990   C     0.09156   0.45195   0.81887   0.00000  Uiso   1.00
C991   C     0.38317   0.49961   0.83089   0.00000  Uiso   1.00
C992   C     0.11683   0.50039   0.83577   0.00000  Uiso   1.00
C993   C     0.40355   0.45089   0.81803   0.00000  Uiso   1.00
C994   C     0.09646   0.54911   0.84864   0.00000  Uiso   1.00
C995   C     0.45058   0.45113   0.81804   0.00000  Uiso   1.00
C996   C     0.04942   0.54888   0.84862   0.00000  Uiso   1.00
C997   C     0.47638   0.49983   0.83309   0.00000  Uiso   1.00
C998   C     0.02362   0.50018   0.83357   0.00000  Uiso   1.00
C999   C     0.45523   0.54820   0.84798   0.00000  Uiso   1.00
C1000  C     0.04477   0.45181   0.81868   0.00000  Uiso   1.00
C1001  C     0.47260   0.40382   0.80381   0.00000  Uiso   1.00
C1002  C     0.02740   0.59618   0.86284   0.00000  Uiso   1.00
Cu1003 Cu    0.25501   0.50579   0.89479   0.00000  Uiso   1.00
Cu1004 Cu    0.24500   0.49421   0.77187   0.00000  Uiso   1.00
H1005  H     0.45500   0.36554   0.79120   0.00000  Uiso   1.00
H1006  H     0.04500   0.63447   0.87544   0.00000  Uiso   1.00
H1007  H     0.03332   0.36627   0.79524   0.00000  Uiso   1.00
H1008  H     0.46668   0.63373   0.87140   0.00000  Uiso   1.00
H1009  H     0.24454   0.65320   0.76281   0.00000  Uiso   1.00
H1010  H     0.25546   0.34680   0.90386   0.00000  Uiso   1.00
N1011  N     0.23745   0.48547   0.67951   0.00000  Uiso   1.00
N1012  N     0.26256   0.51453   0.98716   0.00000  Uiso   1.00
O1013  O     0.25326   0.42871   0.87326   0.00000  Uiso   1.00
O1014  O     0.24675   0.57129   0.79341   0.00000  Uiso   1.00
O1015  O     0.24480   0.41892   0.76945   0.00000  Uiso   1.00
O1016  O     0.25520   0.58108   0.89721   0.00000  Uiso   1.00
O1017  O     0.18936   0.50488   0.88524   0.00000  Uiso   1.00
O1018  O     0.31065   0.49512   0.78143   0.00000  Uiso   1.00
O1019  O     0.18090   0.49510   0.78143   0.00000  Uiso   1.00
O1020  O     0.31910   0.50490   0.88523   0.00000  Uiso   1.00
C1021  C     0.38555   0.59809   0.86792   0.00000  Uiso   1.00
O1022  O     0.35582   0.60978   0.83482   0.00000  Uiso   1.00
O1023  O     0.39742   0.63101   0.92537   0.00000  Uiso   1.00
H1024  H     0.37942   0.66359   0.93375   0.00000  Uiso   1.00
C1025  C     0.11445   0.40191   0.79874   0.00000  Uiso   1.00
O1026  O     0.14418   0.39022   0.83183   0.00000  Uiso   1.00
O1027  O     0.10257   0.36899   0.74129   0.00000  Uiso   1.00
H1028  H     0.12058   0.33642   0.73291   0.00000  Uiso   1.00
C1029  C     0.37495   0.39932   0.80749   0.00000  Uiso   1.00
C1030  C     0.36392   0.37557   0.73969   0.00000  Uiso   1.00
H1031  H     0.34597   0.40378   0.71830   0.00000  Uiso   1.00
H1032  H     0.39477   0.36538   0.71624   0.00000  Uiso   1.00
H1033  H     0.34191   0.33934   0.73374   0.00000  Uiso   1.00
H1034  H     0.39140   0.37063   0.82966   0.00000  Uiso   1.00
H1035  H     0.34327   0.40490   0.82998   0.00000  Uiso   1.00
C1036  C     0.12505   0.60069   0.85920   0.00000  Uiso   1.00
C1037  C     0.13606   0.62444   0.92700   0.00000  Uiso   1.00
H1038  H     0.10520   0.63467   0.95042   0.00000  Uiso   1.00
H1039  H     0.15396   0.59621   0.94842   0.00000  Uiso   1.00
H1040  H     0.15810   0.66064   0.93297   0.00000  Uiso   1.00
H1041  H     0.15675   0.59511   0.83674   0.00000  Uiso   1.00
H1042  H     0.10861   0.62937   0.83702   0.00000  Uiso   1.00
C1043  C     0.19210   0.47870   0.99077   0.00000  Uiso   1.00
O1044  O     0.16830   0.51621   0.66728   0.00000  Uiso   1.00
O1045  O     0.17386   0.42837   0.96238   0.00000  Uiso   1.00
H1046  H     0.14053   0.42804   0.95182   0.00000  Uiso   1.00
C1047  C     0.30790   0.52129   0.67589   0.00000  Uiso   1.00
O1048  O     0.33169   0.48378   0.99939   0.00000  Uiso   1.00
O1049  O     0.32615   0.57162   0.70427   0.00000  Uiso   1.00
H1050  H     0.35948   0.57195   0.71484   0.00000  Uiso   1.00
C1051  C     0.74862   0.40001   0.81775   0.00000  Uiso   1.00
C1052  C     0.75138   0.59999   0.84892   0.00000  Uiso   1.00
C1053  C     0.51862   0.40417   0.80493   0.00000  Uiso   1.00
C1054  C     0.98138   0.59584   0.86172   0.00000  Uiso   1.00
C1055  C     0.74808   0.34390   0.80920   0.00000  Uiso   1.00
C1056  C     0.75192   0.65610   0.85746   0.00000  Uiso   1.00
C1057  C     0.66491   0.49996   0.83424   0.00000  Uiso   1.00
C1058  C     0.83510   0.50004   0.83243   0.00000  Uiso   1.00
C1059  C     0.90844   0.54806   0.84779   0.00000  Uiso   1.00
C1060  C     0.59156   0.45195   0.81887   0.00000  Uiso   1.00
C1061  C     0.88317   0.49961   0.83089   0.00000  Uiso   1.00
C1062  C     0.61683   0.50039   0.83577   0.00000  Uiso   1.00
C1063  C     0.90355   0.45089   0.81803   0.00000  Uiso   1.00
C1064  C     0.59646   0.54911   0.84864   0.00000  Uiso   1.00
C1065  C     0.95058   0.45113   0.81804   0.00000  Uiso   1.00
C1066  C     0.54942   0.54888   0.84862   0.00000  Uiso   1.00
C1067  C     0.97638   0.49983   0.83309   0.00000  Uiso   1.00
C1068  C     0.52362   0.50018   0.83357   0.00000  Uiso   1.00
C1069  C     0.95523   0.54820   0.84798   0.00000  Uiso   1.00
C1070  C     0.54477   0.45181   0.81868   0.00000  Uiso   1.00
C1071  C     0.97260   0.40382   0.80381   0.00000  Uiso   1.00
C1072  C     0.52740   0.59618   0.86284   0.00000  Uiso   1.00
Cu1073 Cu    0.75501   0.50579   0.89479   0.00000  Uiso   1.00
Cu1074 Cu    0.74500   0.49421   0.77187   0.00000  Uiso   1.00
H1075  H     0.95500   0.36554   0.79120   0.00000  Uiso   1.00
H1076  H     0.54500   0.63447   0.87544   0.00000  Uiso   1.00
H1077  H     0.53332   0.36627   0.79524   0.00000  Uiso   1.00
H1078  H     0.96668   0.63373   0.87140   0.00000  Uiso   1.00
H1079  H     0.74454   0.65320   0.76281   0.00000  Uiso   1.00
H1080  H     0.75546   0.34680   0.90386   0.00000  Uiso   1.00
N1081  N     0.73745   0.48547   0.67951   0.00000  Uiso   1.00
N1082  N     0.76256   0.51453   0.98716   0.00000  Uiso   1.00
O1083  O     0.75326   0.42871   0.87326   0.00000  Uiso   1.00
O1084  O     0.74675   0.57129   0.79341   0.00000  Uiso   1.00
O1085  O     0.74480   0.41892   0.76945   0.00000  Uiso   1.00
O1086  O     0.75520   0.58108   0.89721   0.00000  Uiso   1.00
O1087  O     0.68936   0.50488   0.88524   0.00000  Uiso   1.00
O1088  O     0.81065   0.49512   0.78143   0.00000  Uiso   1.00
O1089  O     0.68090   0.49510   0.78143   0.00000  Uiso   1.00
O1090  O     0.81910   0.50490   0.88523   0.00000  Uiso   1.00
C1091  C     0.88555   0.59809   0.86792   0.00000  Uiso   1.00
O1092  O     0.85582   0.60978   0.83482   0.00000  Uiso   1.00
O1093  O     0.89742   0.63101   0.92537   0.00000  Uiso   1.00
H1094  H     0.87942   0.66359   0.93375   0.00000  Uiso   1.00
C1095  C     0.61445   0.40191   0.79874   0.00000  Uiso   1.00
O1096  O     0.64418   0.39022   0.83183   0.00000  Uiso   1.00
O1097  O     0.60257   0.36899   0.74129   0.00000  Uiso   1.00
H1098  H     0.62058   0.33642   0.73291   0.00000  Uiso   1.00
C1099  C     0.87495   0.39932   0.80749   0.00000  Uiso   1.00
C1100  C     0.86392   0.37557   0.73969   0.00000  Uiso   1.00
H1101  H     0.84597   0.40378   0.71830   0.00000  Uiso   1.00
H1102  H     0.89477   0.36538   0.71624   0.00000  Uiso   1.00
H1103  H     0.84191   0.33934   0.73374   0.00000  Uiso   1.00
H1104  H     0.89140   0.37063   0.82966   0.00000  Uiso   1.00
H1105  H     0.84327   0.40490   0.82998   0.00000  Uiso   1.00
C1106  C     0.62505   0.60069   0.85920   0.00000  Uiso   1.00
C1107  C     0.63606   0.62444   0.92700   0.00000  Uiso   1.00
H1108  H     0.60520   0.63467   0.95042   0.00000  Uiso   1.00
H1109  H     0.65396   0.59621   0.94842   0.00000  Uiso   1.00
H1110  H     0.65810   0.66064   0.93297   0.00000  Uiso   1.00
H1111  H     0.65675   0.59511   0.83674   0.00000  Uiso   1.00
H1112  H     0.60861   0.62937   0.83702   0.00000  Uiso   1.00
C1113  C     0.69210   0.47870   0.99077   0.00000  Uiso   1.00
O1114  O     0.66830   0.51621   0.66728   0.00000  Uiso   1.00
O1115  O     0.67386   0.42837   0.96238   0.00000  Uiso   1.00
H1116  H     0.64053   0.42804   0.95182   0.00000  Uiso   1.00
C1117  C     0.80790   0.52129   0.67589   0.00000  Uiso   1.00
O1118  O     0.83169   0.48378   0.99939   0.00000  Uiso   1.00
O1119  O     0.82615   0.57162   0.70427   0.00000  Uiso   1.00
H1120  H     0.85948   0.57195   0.71484   0.00000  Uiso   1.00
C1121  C     0.24862   0.73334   0.81775   0.00000  Uiso   1.00
C1122  C     0.25138   0.93332   0.84892   0.00000  Uiso   1.00
C1123  C     0.01862   0.73750   0.80493   0.00000  Uiso   1.00
C1124  C     0.48138   0.92917   0.86172   0.00000  Uiso   1.00
C1125  C     0.24808   0.67723   0.80920   0.00000  Uiso   1.00
C1126  C     0.25192   0.98944   0.85746   0.00000  Uiso   1.00
C1127  C     0.16491   0.83329   0.83424   0.00000  Uiso   1.00
C1128  C     0.33510   0.83337   0.83243   0.00000  Uiso   1.00
C1129  C     0.40844   0.88139   0.84779   0.00000  Uiso   1.00
C1130  C     0.09156   0.78528   0.81887   0.00000  Uiso   1.00
C1131  C     0.38317   0.83295   0.83089   0.00000  Uiso   1.00
C1132  C     0.11683   0.83372   0.83577   0.00000  Uiso   1.00
C1133  C     0.40355   0.78423   0.81803   0.00000  Uiso   1.00
C1134  C     0.09646   0.88245   0.84864   0.00000  Uiso   1.00
C1135  C     0.45058   0.78446   0.81804   0.00000  Uiso   1.00
C1136  C     0.04942   0.88221   0.84862   0.00000  Uiso   1.00
C1137  C     0.47638   0.83316   0.83309   0.00000  Uiso   1.00
C1138  C     0.02362   0.83351   0.83357   0.00000  Uiso   1.00
C1139  C     0.45523   0.88153   0.84798   0.00000  Uiso   1.00
C1140  C     0.04477   0.78514   0.81868   0.00000  Uiso   1.00
C1141  C     0.47260   0.73716   0.80381   0.00000  Uiso   1.00
C1142  C     0.02740   0.92952   0.86284   0.00000  Uiso   1.00
Cu1143 Cu    0.25501   0.83913   0.89479   0.00000  Uiso   1.00
Cu1144 Cu    0.24500   0.82754   0.77187   0.00000  Uiso   1.00
H1145  H     0.45500   0.69887   0.79120   0.00000  Uiso   1.00
H1146  H     0.04500   0.96780   0.87544   0.00000  Uiso   1.00
H1147  H     0.03332   0.69961   0.79524   0.00000  Uiso   1.00
H1148  H     0.46668   0.96707   0.87140   0.00000  Uiso   1.00
H1149  H     0.24454   0.98654   0.76281   0.00000  Uiso   1.00
H1150  H     0.25546   0.68013   0.90386   0.00000  Uiso   1.00
N1151  N     0.23745   0.81881   0.67951   0.00000  Uiso   1.00
N1152  N     0.26256   0.84786   0.98716   0.00000  Uiso   1.00
O1153  O     0.25326   0.76204   0.87326   0.00000  Uiso   1.00
O1154  O     0.24675   0.90462   0.79341   0.00000  Uiso   1.00
O1155  O     0.24480   0.75226   0.76945   0.00000  Uiso   1.00
O1156  O     0.25520   0.91441   0.89721   0.00000  Uiso   1.00
O1157  O     0.18936   0.83821   0.88524   0.00000  Uiso   1.00
O1158  O     0.31065   0.82845   0.78143   0.00000  Uiso   1.00
O1159  O     0.18090   0.82843   0.78143   0.00000  Uiso   1.00
O1160  O     0.31910   0.83824   0.88523   0.00000  Uiso   1.00
C1161  C     0.38555   0.93143   0.86792   0.00000  Uiso   1.00
O1162  O     0.35582   0.94312   0.83482   0.00000  Uiso   1.00
O1163  O     0.39742   0.96435   0.92537   0.00000  Uiso   1.00
H1164  H     0.37942   0.99692   0.93375   0.00000  Uiso   1.00
C1165  C     0.11445   0.73524   0.79874   0.00000  Uiso   1.00
O1166  O     0.14418   0.72355   0.83183   0.00000  Uiso   1.00
O1167  O     0.10257   0.70232   0.74129   0.00000  Uiso   1.00
H1168  H     0.12058   0.66975   0.73291   0.00000  Uiso   1.00
C1169  C     0.37495   0.73265   0.80749   0.00000  Uiso   1.00
C1170  C     0.36392   0.70890   0.73969   0.00000  Uiso   1.00
H1171  H     0.34597   0.73711   0.71830   0.00000  Uiso   1.00
H1172  H     0.39477   0.69872   0.71624   0.00000  Uiso   1.00
H1173  H     0.34191   0.67267   0.73374   0.00000  Uiso   1.00
H1174  H     0.39140   0.70396   0.82966   0.00000  Uiso   1.00
H1175  H     0.34327   0.73823   0.82998   0.00000  Uiso   1.00
C1176  C     0.12505   0.93402   0.85920   0.00000  Uiso   1.00
C1177  C     0.13606   0.95777   0.92700   0.00000  Uiso   1.00
H1178  H     0.10520   0.96800   0.95042   0.00000  Uiso   1.00
H1179  H     0.15396   0.92954   0.94842   0.00000  Uiso   1.00
H1180  H     0.15810   0.99397   0.93297   0.00000  Uiso   1.00
H1181  H     0.15675   0.92844   0.83674   0.00000  Uiso   1.00
H1182  H     0.10861   0.96271   0.83702   0.00000  Uiso   1.00
C1183  C     0.19210   0.81204   0.99077   0.00000  Uiso   1.00
O1184  O     0.16830   0.84955   0.66728   0.00000  Uiso   1.00
O1185  O     0.17386   0.76171   0.96238   0.00000  Uiso   1.00
H1186  H     0.14053   0.76137   0.95182   0.00000  Uiso   1.00
C1187  C     0.30790   0.85463   0.67589   0.00000  Uiso   1.00
O1188  O     0.33169   0.81711   0.99939   0.00000  Uiso   1.00
O1189  O     0.32615   0.90495   0.70427   0.00000  Uiso   1.00
H1190  H     0.35948   0.90528   0.71484   0.00000  Uiso   1.00
C1191  C     0.74862   0.73334   0.81775   0.00000  Uiso   1.00
C1192  C     0.75138   0.93332   0.84892   0.00000  Uiso   1.00
C1193  C     0.51862   0.73750   0.80493   0.00000  Uiso   1.00
C1194  C     0.98138   0.92917   0.86172   0.00000  Uiso   1.00
C1195  C     0.74808   0.67723   0.80920   0.00000  Uiso   1.00
C1196  C     0.75192   0.98944   0.85746   0.00000  Uiso   1.00
C1197  C     0.66491   0.83329   0.83424   0.00000  Uiso   1.00
C1198  C     0.83510   0.83337   0.83243   0.00000  Uiso   1.00
C1199  C     0.90844   0.88139   0.84779   0.00000  Uiso   1.00
C1200  C     0.59156   0.78528   0.81887   0.00000  Uiso   1.00
C1201  C     0.88317   0.83295   0.83089   0.00000  Uiso   1.00
C1202  C     0.61683   0.83372   0.83577   0.00000  Uiso   1.00
C1203  C     0.90355   0.78423   0.81803   0.00000  Uiso   1.00
C1204  C     0.59646   0.88245   0.84864   0.00000  Uiso   1.00
C1205  C     0.95058   0.78446   0.81804   0.00000  Uiso   1.00
C1206  C     0.54942   0.88221   0.84862   0.00000  Uiso   1.00
C1207  C     0.97638   0.83316   0.83309   0.00000  Uiso   1.00
C1208  C     0.52362   0.83351   0.83357   0.00000  Uiso   1.00
C1209  C     0.95523   0.88153   0.84798   0.00000  Uiso   1.00
C1210  C     0.54477   0.78514   0.81868   0.00000  Uiso   1.00
C1211  C     0.97260   0.73716   0.80381   0.00000  Uiso   1.00
C1212  C     0.52740   0.92952   0.86284   0.00000  Uiso   1.00
Cu1213 Cu    0.75501   0.83913   0.89479   0.00000  Uiso   1.00
Cu1214 Cu    0.74500   0.82754   0.77187   0.00000  Uiso   1.00
H1215  H     0.95500   0.69887   0.79120   0.00000  Uiso   1.00
H1216  H     0.54500   0.96780   0.87544   0.00000  Uiso   1.00
H1217  H     0.53332   0.69961   0.79524   0.00000  Uiso   1.00
H1218  H     0.96668   0.96707   0.87140   0.00000  Uiso   1.00
H1219  H     0.74454   0.98654   0.76281   0.00000  Uiso   1.00
H1220  H     0.75546   0.68013   0.90386   0.00000  Uiso   1.00
N1221  N     0.73745   0.81881   0.67951   0.00000  Uiso   1.00
N1222  N     0.76256   0.84786   0.98716   0.00000  Uiso   1.00
O1223  O     0.75326   0.76204   0.87326   0.00000  Uiso   1.00
O1224  O     0.74675   0.90462   0.79341   0.00000  Uiso   1.00
O1225  O     0.74480   0.75226   0.76945   0.00000  Uiso   1.00
O1226  O     0.75520   0.91441   0.89721   0.00000  Uiso   1.00
O1227  O     0.68936   0.83821   0.88524   0.00000  Uiso   1.00
O1228  O     0.81065   0.82845   0.78143   0.00000  Uiso   1.00
O1229  O     0.68090   0.82843   0.78143   0.00000  Uiso   1.00
O1230  O     0.81910   0.83824   0.88523   0.00000  Uiso   1.00
C1231  C     0.88555   0.93143   0.86792   0.00000  Uiso   1.00
O1232  O     0.85582   0.94312   0.83482   0.00000  Uiso   1.00
O1233  O     0.89742   0.96435   0.92537   0.00000  Uiso   1.00
H1234  H     0.87942   0.99692   0.93375   0.00000  Uiso   1.00
C1235  C     0.61445   0.73524   0.79874   0.00000  Uiso   1.00
O1236  O     0.64418   0.72355   0.83183   0.00000  Uiso   1.00
O1237  O     0.60257   0.70232   0.74129   0.00000  Uiso   1.00
H1238  H     0.62058   0.66975   0.73291   0.00000  Uiso   1.00
C1239  C     0.87495   0.73265   0.80749   0.00000  Uiso   1.00
C1240  C     0.86392   0.70890   0.73969   0.00000  Uiso   1.00
H1241  H     0.84597   0.73711   0.71830   0.00000  Uiso   1.00
H1242  H     0.89477   0.69872   0.71624   0.00000  Uiso   1.00
H1243  H     0.84191   0.67267   0.73374   0.00000  Uiso   1.00
H1244  H     0.89140   0.70396   0.82966   0.00000  Uiso   1.00
H1245  H     0.84327   0.73823   0.82998   0.00000  Uiso   1.00
C1246  C     0.62505   0.93402   0.85920   0.00000  Uiso   1.00
C1247  C     0.63606   0.95777   0.92700   0.00000  Uiso   1.00
H1248  H     0.60520   0.96800   0.95042   0.00000  Uiso   1.00
H1249  H     0.65396   0.92954   0.94842   0.00000  Uiso   1.00
H1250  H     0.65810   0.99397   0.93297   0.00000  Uiso   1.00
H1251  H     0.65675   0.92844   0.83674   0.00000  Uiso   1.00
H1252  H     0.60861   0.96271   0.83702   0.00000  Uiso   1.00
C1253  C     0.69210   0.81204   0.99077   0.00000  Uiso   1.00
O1254  O     0.66830   0.84955   0.66728   0.00000  Uiso   1.00
O1255  O     0.67386   0.76171   0.96238   0.00000  Uiso   1.00
H1256  H     0.64053   0.76137   0.95182   0.00000  Uiso   1.00
C1257  C     0.80790   0.85463   0.67589   0.00000  Uiso   1.00
O1258  O     0.83169   0.81711   0.99939   0.00000  Uiso   1.00
O1259  O     0.82615   0.90495   0.70427   0.00000  Uiso   1.00
H1260  H     0.85948   0.90528   0.71484   0.00000  Uiso   1.00
loop_
_geom_bond_atom_site_label_1
_geom_bond_atom_site_label_2
_geom_bond_distance
_geom_bond_site_symmetry_2
_ccdc_geom_bond_type
C1     O33     1.301   .     A
C1     C5      1.431   .     S
C1     O35     1.298   .     A
C2     O34     1.301   .     A
C2     C6      1.431   .     S
C2     O36     1.298   .     A
C3     H27     1.081   .     S
C3     C20     1.403   .     A
C3     C91     1.381   1_455 S
C4     C19     1.403   .     A
C4     H28     1.081   .     S
C4     C92     1.381   .     S
C5     C286    1.331   1_545 S
C5     H309    1.087   1_545 S
C6     C145    1.331   .     S
C6     H170    1.087   .     S
C7     O37     1.304   .     A
C7     C12     1.448   .     S
C7     O39     1.297   .     A
C8     C11     1.448   .     S
C8     O38     1.304   .     A
C8     O40     1.297   .     A
C9     C41     1.492   .     S
C9     C11     1.407   .     A
C9     C19     1.406   .     A
C10    C45     1.492   .     S
C10    C12     1.407   .     A
C10    C20     1.406   .     A
C11    C13     1.411   .     A
C12    C14     1.412   .     A
C13    C15     1.413   .     A
C13    C49     1.528   .     S
C14    C56     1.528   .     S
C14    C16     1.413   .     A
C15    C17     1.420   .     A
C15    C21     1.406   .     A
C16    C18     1.420   .     A
C16    C22     1.406   .     A
C17    C19     1.417   .     A
C17    C88     1.419   .     S
C18    C20     1.417   .     A
C18    C87     1.419   1_455 S
C21    H25     1.079   .     S
C21    C73     1.381   .     S
C22    H26     1.079   .     S
C22    C74     1.381   1_455 S
Cu23   O40     1.953   .     S
Cu23   O36     1.951   .     S
Cu23   Cu24    2.721   .     S
Cu23   N32     2.045   .     S
Cu23   O37     1.970   .     S
Cu23   O33     1.955   .     S
Cu24   O38     1.970   .     S
Cu24   N31     2.045   .     S
Cu24   O35     1.951   .     S
Cu24   O39     1.953   .     S
Cu24   O34     1.955   .     S
H29    C145    1.087   .     S
H30    C286    1.087   1_545 S
N31    N872    1.301   1_554 S
N31    C903    1.411   1_554 S
N32    N451    1.301   .     S
N32    C487    1.411   .     S
C41    O43     1.398   .     S
C41    O42     1.222   .     D
O43    H44     1.014   .     S
C45    O46     1.222   .     D
C45    O47     1.398   .     S
O47    H48     1.014   .     S
C49    H54     1.107   .     S
C49    C50     1.525   .     S
C49    H55     1.107   .     S
C50    H51     1.109   .     S
C50    H53     1.108   .     S
C50    H52     1.109   .     S
C56    H62     1.107   .     S
C56    C57     1.525   .     S
C56    H61     1.107   .     S
C57    H58     1.109   .     S
C57    H59     1.109   .     S
C57    H60     1.108   .     S
C63    O65     1.394   .     S
C63    N451    1.411   .     S
C63    O484    1.223   .     S
O64    C903    1.223   1_554 S
O65    H66     1.014   .     S
C67    O69     1.394   .     S
C67    N872    1.411   1_554 S
C67    O908    1.223   1_554 S
O68    C487    1.223   .     S
O69    H70     1.014   .     S
C71    O103    1.301   .     A
C71    C75     1.431   .     S
C71    O105    1.298   .     A
C72    O104    1.301   .     A
C72    C76     1.431   .     S
C72    O106    1.298   .     A
C73    H97     1.081   .     S
C73    C90     1.403   .     A
C74    C89     1.403   .     A
C74    H98     1.081   .     S
C74    C22     1.381   1_655 S
C75    C356    1.331   1_545 S
C75    H379    1.087   1_545 S
C76    C215    1.331   .     S
C76    H240    1.087   .     S
C77    O107    1.304   .     A
C77    C82     1.448   .     S
C77    O109    1.297   .     A
C78    C81     1.448   .     S
C78    O108    1.304   .     A
C78    O110    1.297   .     A
C79    C111    1.492   .     S
C79    C81     1.407   .     A
C79    C89     1.406   .     A
C80    C115    1.492   .     S
C80    C82     1.407   .     A
C80    C90     1.406   .     A
C81    C83     1.411   .     A
C82    C84     1.412   .     A
C83    C85     1.413   .     A
C83    C119    1.528   .     S
C84    C126    1.528   .     S
C84    C86     1.413   .     A
C85    C87     1.420   .     A
C85    C91     1.406   .     A
C86    C88     1.420   .     A
C86    C92     1.406   .     A
C87    C89     1.417   .     A
C87    C18     1.419   1_655 S
C88    C90     1.417   .     A
C91    H95     1.079   .     S
C91    C3      1.381   1_655 S
C92    H96     1.079   .     S
Cu93   O110    1.953   .     S
Cu93   O106    1.951   .     S
Cu93   Cu94    2.721   .     S
Cu93   N102    2.045   .     S
Cu93   O107    1.970   .     S
Cu93   O103    1.955   .     S
Cu94   O108    1.970   .     S
Cu94   N101    2.045   .     S
Cu94   O105    1.951   .     S
Cu94   O109    1.953   .     S
Cu94   O104    1.955   .     S
H99    C215    1.087   .     S
H100   C356    1.087   1_545 S
N101   N942    1.301   1_554 S
N101   C973    1.411   1_554 S
N102   N521    1.301   .     S
N102   C557    1.411   .     S
C111   O113    1.398   .     S
C111   O112    1.222   .     D
O113   H114    1.014   .     S
C115   O116    1.222   .     D
C115   O117    1.398   .     S
O117   H118    1.014   .     S
C119   H124    1.107   .     S
C119   C120    1.525   .     S
C119   H125    1.107   .     S
C120   H121    1.109   .     S
C120   H123    1.108   .     S
C120   H122    1.109   .     S
C126   H132    1.107   .     S
C126   C127    1.525   .     S
C126   H131    1.107   .     S
C127   H128    1.109   .     S
C127   H129    1.109   .     S
C127   H130    1.108   .     S
C133   O135    1.394   .     S
C133   N521    1.411   .     S
C133   O554    1.223   .     S
O134   C973    1.223   1_554 S
O135   H136    1.014   .     S
C137   O139    1.394   .     S
C137   N942    1.411   1_554 S
C137   O978    1.223   1_554 S
O138   C557    1.223   .     S
O139   H140    1.014   .     S
C141   O173    1.301   .     A
C141   C145    1.431   .     S
C141   O175    1.298   .     A
C142   O174    1.301   .     A
C142   C146    1.431   .     S
C142   O176    1.298   .     A
C143   H167    1.081   .     S
C143   C160    1.403   .     A
C143   C231    1.381   1_455 S
C144   C159    1.403   .     A
C144   H168    1.081   .     S
C144   C232    1.381   .     S
C146   C285    1.331   .     S
C146   H310    1.087   .     S
C147   O177    1.304   .     A
C147   C152    1.448   .     S
C147   O179    1.297   .     A
C148   C151    1.448   .     S
C148   O178    1.304   .     A
C148   O180    1.297   .     A
C149   C181    1.492   .     S
C149   C151    1.407   .     A
C149   C159    1.406   .     A
C150   C185    1.492   .     S
C150   C152    1.407   .     A
C150   C160    1.406   .     A
C151   C153    1.411   .     A
C152   C154    1.412   .     A
C153   C155    1.413   .     A
C153   C189    1.528   .     S
C154   C196    1.528   .     S
C154   C156    1.413   .     A
C155   C157    1.420   .     A
C155   C161    1.406   .     A
C156   C158    1.420   .     A
C156   C162    1.406   .     A
C157   C159    1.417   .     A
C157   C228    1.419   .     S
C158   C160    1.417   .     A
C158   C227    1.419   1_455 S
C161   H165    1.079   .     S
C161   C213    1.381   .     S
C162   H166    1.079   .     S
C162   C214    1.381   1_455 S
Cu163  O180    1.953   .     S
Cu163  O176    1.951   .     S
Cu163  Cu164   2.721   .     S
Cu163  N172    2.045   .     S
Cu163  O177    1.970   .     S
Cu163  O173    1.955   .     S
Cu164  O178    1.970   .     S
Cu164  N171    2.045   .     S
Cu164  O175    1.951   .     S
Cu164  O179    1.953   .     S
Cu164  O174    1.955   .     S
H169   C285    1.087   .     S
N171   N1012   1.301   1_554 S
N171   C1043   1.411   1_554 S
N172   N591    1.301   .     S
N172   C627    1.411   .     S
C181   O183    1.398   .     S
C181   O182    1.222   .     D
O183   H184    1.014   .     S
C185   O186    1.222   .     D
C185   O187    1.398   .     S
O187   H188    1.014   .     S
C189   H194    1.107   .     S
C189   C190    1.525   .     S
C189   H195    1.107   .     S
C190   H191    1.109   .     S
C190   H193    1.108   .     S
C190   H192    1.109   .     S
C196   H202    1.107   .     S
C196   C197    1.525   .     S
C196   H201    1.107   .     S
C197   H198    1.109   .     S
C197   H199    1.109   .     S
C197   H200    1.108   .     S
C203   O205    1.394   .     S
C203   N591    1.411   .     S
C203   O624    1.223   .     S
O204   C1043   1.223   1_554 S
O205   H206    1.014   .     S
C207   O209    1.394   .     S
C207   N1012   1.411   1_554 S
C207   O1048   1.223   1_554 S
O208   C627    1.223   .     S
O209   H210    1.014   .     S
C211   O243    1.301   .     A
C211   C215    1.431   .     S
C211   O245    1.298   .     A
C212   O244    1.301   .     A
C212   C216    1.431   .     S
C212   O246    1.298   .     A
C213   H237    1.081   .     S
C213   C230    1.403   .     A
C214   C229    1.403   .     A
C214   H238    1.081   .     S
C214   C162    1.381   1_655 S
C216   C355    1.331   .     S
C216   H380    1.087   .     S
C217   O247    1.304   .     A
C217   C222    1.448   .     S
C217   O249    1.297   .     A
C218   C221    1.448   .     S
C218   O248    1.304   .     A
C218   O250    1.297   .     A
C219   C251    1.492   .     S
C219   C221    1.407   .     A
C219   C229    1.406   .     A
C220   C255    1.492   .     S
C220   C222    1.407   .     A
C220   C230    1.406   .     A
C221   C223    1.411   .     A
C222   C224    1.412   .     A
C223   C225    1.413   .     A
C223   C259    1.528   .     S
C224   C266    1.528   .     S
C224   C226    1.413   .     A
C225   C227    1.420   .     A
C225   C231    1.406   .     A
C226   C228    1.420   .     A
C226   C232    1.406   .     A
C227   C229    1.417   .     A
C227   C158    1.419   1_655 S
C228   C230    1.417   .     A
C231   H235    1.079   .     S
C231   C143    1.381   1_655 S
C232   H236    1.079   .     S
Cu233  O250    1.953   .     S
Cu233  O246    1.951   .     S
Cu233  Cu234   2.721   .     S
Cu233  N242    2.045   .     S
Cu233  O247    1.970   .     S
Cu233  O243    1.955   .     S
Cu234  O248    1.970   .     S
Cu234  N241    2.045   .     S
Cu234  O245    1.951   .     S
Cu234  O249    1.953   .     S
Cu234  O244    1.955   .     S
H239   C355    1.087   .     S
N241   N1082   1.301   1_554 S
N241   C1113   1.411   1_554 S
N242   N661    1.301   .     S
N242   C697    1.411   .     S
C251   O253    1.398   .     S
C251   O252    1.222   .     D
O253   H254    1.014   .     S
C255   O256    1.222   .     D
C255   O257    1.398   .     S
O257   H258    1.014   .     S
C259   H264    1.107   .     S
C259   C260    1.525   .     S
C259   H265    1.107   .     S
C260   H261    1.109   .     S
C260   H263    1.108   .     S
C260   H262    1.109   .     S
C266   H272    1.107   .     S
C266   C267    1.525   .     S
C266   H271    1.107   .     S
C267   H268    1.109   .     S
C267   H269    1.109   .     S
C267   H270    1.108   .     S
C273   O275    1.394   .     S
C273   N661    1.411   .     S
C273   O694    1.223   .     S
O274   C1113   1.223   1_554 S
O275   H276    1.014   .     S
C277   O279    1.394   .     S
C277   N1082   1.411   1_554 S
C277   O1118   1.223   1_554 S
O278   C697    1.223   .     S
O279   H280    1.014   .     S
C281   O313    1.301   .     A
C281   C285    1.431   .     S
C281   O315    1.298   .     A
C282   O314    1.301   .     A
C282   C286    1.431   .     S
C282   O316    1.298   .     A
C283   H307    1.081   .     S
C283   C300    1.403   .     A
C283   C371    1.381   1_455 S
C284   C299    1.403   .     A
C284   H308    1.081   .     S
C284   C372    1.381   .     S
C286   C5      1.331   1_565 S
C286   H30     1.087   1_565 S
C287   O317    1.304   .     A
C287   C292    1.448   .     S
C287   O319    1.297   .     A
C288   C291    1.448   .     S
C288   O318    1.304   .     A
C288   O320    1.297   .     A
C289   C321    1.492   .     S
C289   C291    1.407   .     A
C289   C299    1.406   .     A
C290   C325    1.492   .     S
C290   C292    1.407   .     A
C290   C300    1.406   .     A
C291   C293    1.411   .     A
C292   C294    1.412   .     A
C293   C295    1.413   .     A
C293   C329    1.528   .     S
C294   C336    1.528   .     S
C294   C296    1.413   .     A
C295   C297    1.420   .     A
C295   C301    1.406   .     A
C296   C298    1.420   .     A
C296   C302    1.406   .     A
C297   C299    1.417   .     A
C297   C368    1.419   .     S
C298   C300    1.417   .     A
C298   C367    1.419   1_455 S
C301   H305    1.079   .     S
C301   C353    1.381   .     S
C302   H306    1.079   .     S
C302   C354    1.381   1_455 S
Cu303  O320    1.953   .     S
Cu303  O316    1.951   .     S
Cu303  Cu304   2.721   .     S
Cu303  N312    2.045   .     S
Cu303  O317    1.970   .     S
Cu303  O313    1.955   .     S
Cu304  O318    1.970   .     S
Cu304  N311    2.045   .     S
Cu304  O315    1.951   .     S
Cu304  O319    1.953   .     S
Cu304  O314    1.955   .     S
H309   C5      1.087   1_565 S
N311   N1152   1.301   1_554 S
N311   C1183   1.411   1_554 S
N312   N731    1.301   .     S
N312   C767    1.411   .     S
C321   O323    1.398   .     S
C321   O322    1.222   .     D
O323   H324    1.014   .     S
C325   O326    1.222   .     D
C325   O327    1.398   .     S
O327   H328    1.014   .     S
C329   H334    1.107   .     S
C329   C330    1.525   .     S
C329   H335    1.107   .     S
C330   H331    1.109   .     S
C330   H333    1.108   .     S
C330   H332    1.109   .     S
C336   H342    1.107   .     S
C336   C337    1.525   .     S
C336   H341    1.107   .     S
C337   H338    1.109   .     S
C337   H339    1.109   .     S
C337   H340    1.108   .     S
C343   O345    1.394   .     S
C343   N731    1.411   .     S
C343   O764    1.223   .     S
O344   C1183   1.223   1_554 S
O345   H346    1.014   .     S
C347   O349    1.394   .     S
C347   N1152   1.411   1_554 S
C347   O1188   1.223   1_554 S
O348   C767    1.223   .     S
O349   H350    1.014   .     S
C351   O383    1.301   .     A
C351   C355    1.431   .     S
C351   O385    1.298   .     A
C352   O384    1.301   .     A
C352   C356    1.431   .     S
C352   O386    1.298   .     A
C353   H377    1.081   .     S
C353   C370    1.403   .     A
C354   C369    1.403   .     A
C354   H378    1.081   .     S
C354   C302    1.381   1_655 S
C356   C75     1.331   1_565 S
C356   H100    1.087   1_565 S
C357   O387    1.304   .     A
C357   C362    1.448   .     S
C357   O389    1.297   .     A
C358   C361    1.448   .     S
C358   O388    1.304   .     A
C358   O390    1.297   .     A
C359   C391    1.492   .     S
C359   C361    1.407   .     A
C359   C369    1.406   .     A
C360   C395    1.492   .     S
C360   C362    1.407   .     A
C360   C370    1.406   .     A
C361   C363    1.411   .     A
C362   C364    1.412   .     A
C363   C365    1.413   .     A
C363   C399    1.528   .     S
C364   C406    1.528   .     S
C364   C366    1.413   .     A
C365   C367    1.420   .     A
C365   C371    1.406   .     A
C366   C368    1.420   .     A
C366   C372    1.406   .     A
C367   C369    1.417   .     A
C367   C298    1.419   1_655 S
C368   C370    1.417   .     A
C371   H375    1.079   .     S
C371   C283    1.381   1_655 S
C372   H376    1.079   .     S
Cu373  O390    1.953   .     S
Cu373  O386    1.951   .     S
Cu373  Cu374   2.721   .     S
Cu373  N382    2.045   .     S
Cu373  O387    1.970   .     S
Cu373  O383    1.955   .     S
Cu374  O388    1.970   .     S
Cu374  N381    2.045   .     S
Cu374  O385    1.951   .     S
Cu374  O389    1.953   .     S
Cu374  O384    1.955   .     S
H379   C75     1.087   1_565 S
N381   N1222   1.301   1_554 S
N381   C1253   1.411   1_554 S
N382   N801    1.301   .     S
N382   C837    1.411   .     S
C391   O393    1.398   .     S
C391   O392    1.222   .     D
O393   H394    1.014   .     S
C395   O396    1.222   .     D
C395   O397    1.398   .     S
O397   H398    1.014   .     S
C399   H404    1.107   .     S
C399   C400    1.525   .     S
C399   H405    1.107   .     S
C400   H401    1.109   .     S
C400   H403    1.108   .     S
C400   H402    1.109   .     S
C406   H412    1.107   .     S
C406   C407    1.525   .     S
C406   H411    1.107   .     S
C407   H408    1.109   .     S
C407   H409    1.109   .     S
C407   H410    1.108   .     S
C413   O415    1.394   .     S
C413   N801    1.411   .     S
C413   O834    1.223   .     S
O414   C1253   1.223   1_554 S
O415   H416    1.014   .     S
C417   O419    1.394   .     S
C417   N1222   1.411   1_554 S
C417   O1258   1.223   1_554 S
O418   C837    1.223   .     S
O419   H420    1.014   .     S
C421   O453    1.301   .     A
C421   C425    1.431   .     S
C421   O455    1.298   .     A
C422   O454    1.301   .     A
C422   C426    1.431   .     S
C422   O456    1.298   .     A
C423   H447    1.081   .     S
C423   C440    1.403   .     A
C423   C511    1.381   1_455 S
C424   C439    1.403   .     A
C424   H448    1.081   .     S
C424   C512    1.381   .     S
C425   C706    1.331   1_545 S
C425   H729    1.087   1_545 S
C426   C565    1.331   .     S
C426   H590    1.087   .     S
C427   O457    1.304   .     A
C427   C432    1.448   .     S
C427   O459    1.297   .     A
C428   C431    1.448   .     S
C428   O458    1.304   .     A
C428   O460    1.297   .     A
C429   C461    1.492   .     S
C429   C431    1.407   .     A
C429   C439    1.406   .     A
C430   C465    1.492   .     S
C430   C432    1.407   .     A
C430   C440    1.406   .     A
C431   C433    1.411   .     A
C432   C434    1.412   .     A
C433   C435    1.413   .     A
C433   C469    1.528   .     S
C434   C476    1.528   .     S
C434   C436    1.413   .     A
C435   C437    1.420   .     A
C435   C441    1.406   .     A
C436   C438    1.420   .     A
C436   C442    1.406   .     A
C437   C439    1.417   .     A
C437   C508    1.419   .     S
C438   C440    1.417   .     A
C438   C507    1.419   1_455 S
C441   H445    1.079   .     S
C441   C493    1.381   .     S
C442   H446    1.079   .     S
C442   C494    1.381   1_455 S
Cu443  O460    1.953   .     S
Cu443  O456    1.951   .     S
Cu443  Cu444   2.721   .     S
Cu443  N452    2.045   .     S
Cu443  O457    1.970   .     S
Cu443  O453    1.955   .     S
Cu444  O458    1.970   .     S
Cu444  N451    2.045   .     S
Cu444  O455    1.951   .     S
Cu444  O459    1.953   .     S
Cu444  O454    1.955   .     S
H449   C565    1.087   .     S
H450   C706    1.087   1_545 S
N452   N871    1.301   .     S
N452   C907    1.411   .     S
C461   O463    1.398   .     S
C461   O462    1.222   .     D
O463   H464    1.014   .     S
C465   O466    1.222   .     D
C465   O467    1.398   .     S
O467   H468    1.014   .     S
C469   H474    1.107   .     S
C469   C470    1.525   .     S
C469   H475    1.107   .     S
C470   H471    1.109   .     S
C470   H473    1.108   .     S
C470   H472    1.109   .     S
C476   H482    1.107   .     S
C476   C477    1.525   .     S
C476   H481    1.107   .     S
C477   H478    1.109   .     S
C477   H479    1.109   .     S
C477   H480    1.108   .     S
C483   O485    1.394   .     S
C483   N871    1.411   .     S
C483   O904    1.223   .     S
O485   H486    1.014   .     S
C487   O489    1.394   .     S
O488   C907    1.223   .     S
O489   H490    1.014   .     S
C491   O523    1.301   .     A
C491   C495    1.431   .     S
C491   O525    1.298   .     A
C492   O524    1.301   .     A
C492   C496    1.431   .     S
C492   O526    1.298   .     A
C493   H517    1.081   .     S
C493   C510    1.403   .     A
C494   C509    1.403   .     A
C494   H518    1.081   .     S
C494   C442    1.381   1_655 S
C495   C776    1.331   1_545 S
C495   H799    1.087   1_545 S
C496   C635    1.331   .     S
C496   H660    1.087   .     S
C497   O527    1.304   .     A
C497   C502    1.448   .     S
C497   O529    1.297   .     A
C498   C501    1.448   .     S
C498   O528    1.304   .     A
C498   O530    1.297   .     A
C499   C531    1.492   .     S
C499   C501    1.407   .     A
C499   C509    1.406   .     A
C500   C535    1.492   .     S
C500   C502    1.407   .     A
C500   C510    1.406   .     A
C501   C503    1.411   .     A
C502   C504    1.412   .     A
C503   C505    1.413   .     A
C503   C539    1.528   .     S
C504   C546    1.528   .     S
C504   C506    1.413   .     A
C505   C507    1.420   .     A
C505   C511    1.406   .     A
C506   C508    1.420   .     A
C506   C512    1.406   .     A
C507   C509    1.417   .     A
C507   C438    1.419   1_655 S
C508   C510    1.417   .     A
C511   H515    1.079   .     S
C511   C423    1.381   1_655 S
C512   H516    1.079   .     S
Cu513  O530    1.953   .     S
Cu513  O526    1.951   .     S
Cu513  Cu514   2.721   .     S
Cu513  N522    2.045   .     S
Cu513  O527    1.970   .     S
Cu513  O523    1.955   .     S
Cu514  O528    1.970   .     S
Cu514  N521    2.045   .     S
Cu514  O525    1.951   .     S
Cu514  O529    1.953   .     S
Cu514  O524    1.955   .     S
H519   C635    1.087   .     S
H520   C776    1.087   1_545 S
N522   N941    1.301   .     S
N522   C977    1.411   .     S
C531   O533    1.398   .     S
C531   O532    1.222   .     D
O533   H534    1.014   .     S
C535   O536    1.222   .     D
C535   O537    1.398   .     S
O537   H538    1.014   .     S
C539   H544    1.107   .     S
C539   C540    1.525   .     S
C539   H545    1.107   .     S
C540   H541    1.109   .     S
C540   H543    1.108   .     S
C540   H542    1.109   .     S
C546   H552    1.107   .     S
C546   C547    1.525   .     S
C546   H551    1.107   .     S
C547   H548    1.109   .     S
C547   H549    1.109   .     S
C547   H550    1.108   .     S
C553   O555    1.394   .     S
C553   N941    1.411   .     S
C553   O974    1.223   .     S
O555   H556    1.014   .     S
C557   O559    1.394   .     S
O558   C977    1.223   .     S
O559   H560    1.014   .     S
C561   O593    1.301   .     A
C561   C565    1.431   .     S
C561   O595    1.298   .     A
C562   O594    1.301   .     A
C562   C566    1.431   .     S
C562   O596    1.298   .     A
C563   H587    1.081   .     S
C563   C580    1.403   .     A
C563   C651    1.381   1_455 S
C564   C579    1.403   .     A
C564   H588    1.081   .     S
C564   C652    1.381   .     S
C566   C705    1.331   .     S
C566   H730    1.087   .     S
C567   O597    1.304   .     A
C567   C572    1.448   .     S
C567   O599    1.297   .     A
C568   C571    1.448   .     S
C568   O598    1.304   .     A
C568   O600    1.297   .     A
C569   C601    1.492   .     S
C569   C571    1.407   .     A
C569   C579    1.406   .     A
C570   C605    1.492   .     S
C570   C572    1.407   .     A
C570   C580    1.406   .     A
C571   C573    1.411   .     A
C572   C574    1.412   .     A
C573   C575    1.413   .     A
C573   C609    1.528   .     S
C574   C616    1.528   .     S
C574   C576    1.413   .     A
C575   C577    1.420   .     A
C575   C581    1.406   .     A
C576   C578    1.420   .     A
C576   C582    1.406   .     A
C577   C579    1.417   .     A
C577   C648    1.419   .     S
C578   C580    1.417   .     A
C578   C647    1.419   1_455 S
C581   H585    1.079   .     S
C581   C633    1.381   .     S
C582   H586    1.079   .     S
C582   C634    1.381   1_455 S
Cu583  O600    1.953   .     S
Cu583  O596    1.951   .     S
Cu583  Cu584   2.721   .     S
Cu583  N592    2.045   .     S
Cu583  O597    1.970   .     S
Cu583  O593    1.955   .     S
Cu584  O598    1.970   .     S
Cu584  N591    2.045   .     S
Cu584  O595    1.951   .     S
Cu584  O599    1.953   .     S
Cu584  O594    1.955   .     S
H589   C705    1.087   .     S
N592   N1011   1.301   .     S
N592   C1047   1.411   .     S
C601   O603    1.398   .     S
C601   O602    1.222   .     D
O603   H604    1.014   .     S
C605   O606    1.222   .     D
C605   O607    1.398   .     S
O607   H608    1.014   .     S
C609   H614    1.107   .     S
C609   C610    1.525   .     S
C609   H615    1.107   .     S
C610   H611    1.109   .     S
C610   H613    1.108   .     S
C610   H612    1.109   .     S
C616   H622    1.107   .     S
C616   C617    1.525   .     S
C616   H621    1.107   .     S
C617   H618    1.109   .     S
C617   H619    1.109   .     S
C617   H620    1.108   .     S
C623   O625    1.394   .     S
C623   N1011   1.411   .     S
C623   O1044   1.223   .     S
O625   H626    1.014   .     S
C627   O629    1.394   .     S
O628   C1047   1.223   .     S
O629   H630    1.014   .     S
C631   O663    1.301   .     A
C631   C635    1.431   .     S
C631   O665    1.298   .     A
C632   O664    1.301   .     A
C632   C636    1.431   .     S
C632   O666    1.298   .     A
C633   H657    1.081   .     S
C633   C650    1.403   .     A
C634   C649    1.403   .     A
C634   H658    1.081   .     S
C634   C582    1.381   1_655 S
C636   C775    1.331   .     S
C636   H800    1.087   .     S
C637   O667    1.304   .     A
C637   C642    1.448   .     S
C637   O669    1.297   .     A
C638   C641    1.448   .     S
C638   O668    1.304   .     A
C638   O670    1.297   .     A
C639   C671    1.492   .     S
C639   C641    1.407   .     A
C639   C649    1.406   .     A
C640   C675    1.492   .     S
C640   C642    1.407   .     A
C640   C650    1.406   .     A
C641   C643    1.411   .     A
C642   C644    1.412   .     A
C643   C645    1.413   .     A
C643   C679    1.528   .     S
C644   C686    1.528   .     S
C644   C646    1.413   .     A
C645   C647    1.420   .     A
C645   C651    1.406   .     A
C646   C648    1.420   .     A
C646   C652    1.406   .     A
C647   C649    1.417   .     A
C647   C578    1.419   1_655 S
C648   C650    1.417   .     A
C651   H655    1.079   .     S
C651   C563    1.381   1_655 S
C652   H656    1.079   .     S
Cu653  O670    1.953   .     S
Cu653  O666    1.951   .     S
Cu653  Cu654   2.721   .     S
Cu653  N662    2.045   .     S
Cu653  O667    1.970   .     S
Cu653  O663    1.955   .     S
Cu654  O668    1.970   .     S
Cu654  N661    2.045   .     S
Cu654  O665    1.951   .     S
Cu654  O669    1.953   .     S
Cu654  O664    1.955   .     S
H659   C775    1.087   .     S
N662   N1081   1.301   .     S
N662   C1117   1.411   .     S
C671   O673    1.398   .     S
C671   O672    1.222   .     D
O673   H674    1.014   .     S
C675   O676    1.222   .     D
C675   O677    1.398   .     S
O677   H678    1.014   .     S
C679   H684    1.107   .     S
C679   C680    1.525   .     S
C679   H685    1.107   .     S
C680   H681    1.109   .     S
C680   H683    1.108   .     S
C680   H682    1.109   .     S
C686   H692    1.107   .     S
C686   C687    1.525   .     S
C686   H691    1.107   .     S
C687   H688    1.109   .     S
C687   H689    1.109   .     S
C687   H690    1.108   .     S
C693   O695    1.394   .     S
C693   N1081   1.411   .     S
C693   O1114   1.223   .     S
O695   H696    1.014   .     S
C697   O699    1.394   .     S
O698   C1117   1.223   .     S
O699   H700    1.014   .     S
C701   O733    1.301   .     A
C701   C705    1.431   .     S
C701   O735    1.298   .     A
C702   O734    1.301   .     A
C702   C706    1.431   .     S
C702   O736    1.298   .     A
C703   H727    1.081   .     S
C703   C720    1.403   .     A
C703   C791    1.381   1_455 S
C704   C719    1.403   .     A
C704   H728    1.081   .     S
C704   C792    1.381   .     S
C706   C425    1.331   1_565 S
C706   H450    1.087   1_565 S
C707   O737    1.304   .     A
C707   C712    1.448   .     S
C707   O739    1.297   .     A
C708   C711    1.448   .     S
C708   O738    1.304   .     A
C708   O740    1.297   .     A
C709   C741    1.492   .     S
C709   C711    1.407   .     A
C709   C719    1.406   .     A
C710   C745    1.492   .     S
C710   C712    1.407   .     A
C710   C720    1.406   .     A
C711   C713    1.411   .     A
C712   C714    1.412   .     A
C713   C715    1.413   .     A
C713   C749    1.528   .     S
C714   C756    1.528   .     S
C714   C716    1.413   .     A
C715   C717    1.420   .     A
C715   C721    1.406   .     A
C716   C718    1.420   .     A
C716   C722    1.406   .     A
C717   C719    1.417   .     A
C717   C788    1.419   .     S
C718   C720    1.417   .     A
C718   C787    1.419   1_455 S
C721   H725    1.079   .     S
C721   C773    1.381   .     S
C722   H726    1.079   .     S
C722   C774    1.381   1_455 S
Cu723  O740    1.953   .     S
Cu723  O736    1.951   .     S
Cu723  Cu724   2.721   .     S
Cu723  N732    2.045   .     S
Cu723  O737    1.970   .     S
Cu723  O733    1.955   .     S
Cu724  O738    1.970   .     S
Cu724  N731    2.045   .     S
Cu724  O735    1.951   .     S
Cu724  O739    1.953   .     S
Cu724  O734    1.955   .     S
H729   C425    1.087   1_565 S
N732   N1151   1.301   .     S
N732   C1187   1.411   .     S
C741   O743    1.398   .     S
C741   O742    1.222   .     D
O743   H744    1.014   .     S
C745   O746    1.222   .     D
C745   O747    1.398   .     S
O747   H748    1.014   .     S
C749   H754    1.107   .     S
C749   C750    1.525   .     S
C749   H755    1.107   .     S
C750   H751    1.109   .     S
C750   H753    1.108   .     S
C750   H752    1.109   .     S
C756   H762    1.107   .     S
C756   C757    1.525   .     S
C756   H761    1.107   .     S
C757   H758    1.109   .     S
C757   H759    1.109   .     S
C757   H760    1.108   .     S
C763   O765    1.394   .     S
C763   N1151   1.411   .     S
C763   O1184   1.223   .     S
O765   H766    1.014   .     S
C767   O769    1.394   .     S
O768   C1187   1.223   .     S
O769   H770    1.014   .     S
C771   O803    1.301   .     A
C771   C775    1.431   .     S
C771   O805    1.298   .     A
C772   O804    1.301   .     A
C772   C776    1.431   .     S
C772   O806    1.298   .     A
C773   H797    1.081   .     S
C773   C790    1.403   .     A
C774   C789    1.403   .     A
C774   H798    1.081   .     S
C774   C722    1.381   1_655 S
C776   C495    1.331   1_565 S
C776   H520    1.087   1_565 S
C777   O807    1.304   .     A
C777   C782    1.448   .     S
C777   O809    1.297   .     A
C778   C781    1.448   .     S
C778   O808    1.304   .     A
C778   O810    1.297   .     A
C779   C811    1.492   .     S
C779   C781    1.407   .     A
C779   C789    1.406   .     A
C780   C815    1.492   .     S
C780   C782    1.407   .     A
C780   C790    1.406   .     A
C781   C783    1.411   .     A
C782   C784    1.412   .     A
C783   C785    1.413   .     A
C783   C819    1.528   .     S
C784   C826    1.528   .     S
C784   C786    1.413   .     A
C785   C787    1.420   .     A
C785   C791    1.406   .     A
C786   C788    1.420   .     A
C786   C792    1.406   .     A
C787   C789    1.417   .     A
C787   C718    1.419   1_655 S
C788   C790    1.417   .     A
C791   H795    1.079   .     S
C791   C703    1.381   1_655 S
C792   H796    1.079   .     S
Cu793  O810    1.953   .     S
Cu793  O806    1.951   .     S
Cu793  Cu794   2.721   .     S
Cu793  N802    2.045   .     S
Cu793  O807    1.970   .     S
Cu793  O803    1.955   .     S
Cu794  O808    1.970   .     S
Cu794  N801    2.045   .     S
Cu794  O805    1.951   .     S
Cu794  O809    1.953   .     S
Cu794  O804    1.955   .     S
H799   C495    1.087   1_565 S
N802   N1221   1.301   .     S
N802   C1257   1.411   .     S
C811   O813    1.398   .     S
C811   O812    1.222   .     D
O813   H814    1.014   .     S
C815   O816    1.222   .     D
C815   O817    1.398   .     S
O817   H818    1.014   .     S
C819   H824    1.107   .     S
C819   C820    1.525   .     S
C819   H825    1.107   .     S
C820   H821    1.109   .     S
C820   H823    1.108   .     S
C820   H822    1.109   .     S
C826   H832    1.107   .     S
C826   C827    1.525   .     S
C826   H831    1.107   .     S
C827   H828    1.109   .     S
C827   H829    1.109   .     S
C827   H830    1.108   .     S
C833   O835    1.394   .     S
C833   N1221   1.411   .     S
C833   O1254   1.223   .     S
O835   H836    1.014   .     S
C837   O839    1.394   .     S
O838   C1257   1.223   .     S
O839   H840    1.014   .     S
C841   O873    1.301   .     A
C841   C845    1.431   .     S
C841   O875    1.298   .     A
C842   O874    1.301   .     A
C842   C846    1.431   .     S
C842   O876    1.298   .     A
C843   H867    1.081   .     S
C843   C860    1.403   .     A
C843   C931    1.381   1_455 S
C844   C859    1.403   .     A
C844   H868    1.081   .     S
C844   C932    1.381   .     S
C845   C1126   1.331   1_545 S
C845   H1149   1.087   1_545 S
C846   C985    1.331   .     S
C846   H1010   1.087   .     S
C847   O877    1.304   .     A
C847   C852    1.448   .     S
C847   O879    1.297   .     A
C848   C851    1.448   .     S
C848   O878    1.304   .     A
C848   O880    1.297   .     A
C849   C881    1.492   .     S
C849   C851    1.407   .     A
C849   C859    1.406   .     A
C850   C885    1.492   .     S
C850   C852    1.407   .     A
C850   C860    1.406   .     A
C851   C853    1.411   .     A
C852   C854    1.412   .     A
C853   C855    1.413   .     A
C853   C889    1.528   .     S
C854   C896    1.528   .     S
C854   C856    1.413   .     A
C855   C857    1.420   .     A
C855   C861    1.406   .     A
C856   C858    1.420   .     A
C856   C862    1.406   .     A
C857   C859    1.417   .     A
C857   C928    1.419   .     S
C858   C860    1.417   .     A
C858   C927    1.419   1_455 S
C861   H865    1.079   .     S
C861   C913    1.381   .     S
C862   H866    1.079   .     S
C862   C914    1.381   1_455 S
Cu863  O880    1.953   .     S
Cu863  O876    1.951   .     S
Cu863  Cu864   2.721   .     S
Cu863  N872    2.045   .     S
Cu863  O877    1.970   .     S
Cu863  O873    1.955   .     S
Cu864  O878    1.970   .     S
Cu864  N871    2.045   .     S
Cu864  O875    1.951   .     S
Cu864  O879    1.953   .     S
Cu864  O874    1.955   .     S
H869   C985    1.087   .     S
H870   C1126   1.087   1_545 S
N872   N31     1.301   1_556 S
N872   C67     1.411   1_556 S
C881   O883    1.398   .     S
C881   O882    1.222   .     D
O883   H884    1.014   .     S
C885   O886    1.222   .     D
C885   O887    1.398   .     S
O887   H888    1.014   .     S
C889   H894    1.107   .     S
C889   C890    1.525   .     S
C889   H895    1.107   .     S
C890   H891    1.109   .     S
C890   H893    1.108   .     S
C890   H892    1.109   .     S
C896   H902    1.107   .     S
C896   C897    1.525   .     S
C896   H901    1.107   .     S
C897   H898    1.109   .     S
C897   H899    1.109   .     S
C897   H900    1.108   .     S
C903   O905    1.394   .     S
C903   N31     1.411   1_556 S
C903   O64     1.223   1_556 S
O905   H906    1.014   .     S
C907   O909    1.394   .     S
O908   C67     1.223   1_556 S
O909   H910    1.014   .     S
C911   O943    1.301   .     A
C911   C915    1.431   .     S
C911   O945    1.298   .     A
C912   O944    1.301   .     A
C912   C916    1.431   .     S
C912   O946    1.298   .     A
C913   H937    1.081   .     S
C913   C930    1.403   .     A
C914   C929    1.403   .     A
C914   H938    1.081   .     S
C914   C862    1.381   1_655 S
C915   C1196   1.331   1_545 S
C915   H1219   1.087   1_545 S
C916   C1055   1.331   .     S
C916   H1080   1.087   .     S
C917   O947    1.304   .     A
C917   C922    1.448   .     S
C917   O949    1.297   .     A
C918   C921    1.448   .     S
C918   O948    1.304   .     A
C918   O950    1.297   .     A
C919   C951    1.492   .     S
C919   C921    1.407   .     A
C919   C929    1.406   .     A
C920   C955    1.492   .     S
C920   C922    1.407   .     A
C920   C930    1.406   .     A
C921   C923    1.411   .     A
C922   C924    1.412   .     A
C923   C925    1.413   .     A
C923   C959    1.528   .     S
C924   C966    1.528   .     S
C924   C926    1.413   .     A
C925   C927    1.420   .     A
C925   C931    1.406   .     A
C926   C928    1.420   .     A
C926   C932    1.406   .     A
C927   C929    1.417   .     A
C927   C858    1.419   1_655 S
C928   C930    1.417   .     A
C931   H935    1.079   .     S
C931   C843    1.381   1_655 S
C932   H936    1.079   .     S
Cu933  O950    1.953   .     S
Cu933  O946    1.951   .     S
Cu933  Cu934   2.721   .     S
Cu933  N942    2.045   .     S
Cu933  O947    1.970   .     S
Cu933  O943    1.955   .     S
Cu934  O948    1.970   .     S
Cu934  N941    2.045   .     S
Cu934  O945    1.951   .     S
Cu934  O949    1.953   .     S
Cu934  O944    1.955   .     S
H939   C1055   1.087   .     S
H940   C1196   1.087   1_545 S
N942   N101    1.301   1_556 S
N942   C137    1.411   1_556 S
C951   O953    1.398   .     S
C951   O952    1.222   .     D
O953   H954    1.014   .     S
C955   O956    1.222   .     D
C955   O957    1.398   .     S
O957   H958    1.014   .     S
C959   H964    1.107   .     S
C959   C960    1.525   .     S
C959   H965    1.107   .     S
C960   H961    1.109   .     S
C960   H963    1.108   .     S
C960   H962    1.109   .     S
C966   H972    1.107   .     S
C966   C967    1.525   .     S
C966   H971    1.107   .     S
C967   H968    1.109   .     S
C967   H969    1.109   .     S
C967   H970    1.108   .     S
C973   O975    1.394   .     S
C973   N101    1.411   1_556 S
C973   O134    1.223   1_556 S
O975   H976    1.014   .     S
C977   O979    1.394   .     S
O978   C137    1.223   1_556 S
O979   H980    1.014   .     S
C981   O1013   1.301   .     A
C981   C985    1.431   .     S
C981   O1015   1.298   .     A
C982   O1014   1.301   .     A
C982   C986    1.431   .     S
C982   O1016   1.298   .     A
C983   H1007   1.081   .     S
C983   C1000   1.403   .     A
C983   C1071   1.381   1_455 S
C984   C999    1.403   .     A
C984   H1008   1.081   .     S
C984   C1072   1.381   .     S
C986   C1125   1.331   .     S
C986   H1150   1.087   .     S
C987   O1017   1.304   .     A
C987   C992    1.448   .     S
C987   O1019   1.297   .     A
C988   C991    1.448   .     S
C988   O1018   1.304   .     A
C988   O1020   1.297   .     A
C989   C1021   1.492   .     S
C989   C991    1.407   .     A
C989   C999    1.406   .     A
C990   C1025   1.492   .     S
C990   C992    1.407   .     A
C990   C1000   1.406   .     A
C991   C993    1.411   .     A
C992   C994    1.412   .     A
C993   C995    1.413   .     A
C993   C1029   1.528   .     S
C994   C1036   1.528   .     S
C994   C996    1.413   .     A
C995   C997    1.420   .     A
C995   C1001   1.406   .     A
C996   C998    1.420   .     A
C996   C1002   1.406   .     A
C997   C999    1.417   .     A
C997   C1068   1.419   .     S
C998   C1000   1.417   .     A
C998   C1067   1.419   1_455 S
C1001  H1005   1.079   .     S
C1001  C1053   1.381   .     S
C1002  H1006   1.079   .     S
C1002  C1054   1.381   1_455 S
Cu1003 O1020   1.953   .     S
Cu1003 O1016   1.951   .     S
Cu1003 Cu1004  2.721   .     S
Cu1003 N1012   2.045   .     S
Cu1003 O1017   1.970   .     S
Cu1003 O1013   1.955   .     S
Cu1004 O1018   1.970   .     S
Cu1004 N1011   2.045   .     S
Cu1004 O1015   1.951   .     S
Cu1004 O1019   1.953   .     S
Cu1004 O1014   1.955   .     S
H1009  C1125   1.087   .     S
N1012  N171    1.301   1_556 S
N1012  C207    1.411   1_556 S
C1021  O1023   1.398   .     S
C1021  O1022   1.222   .     D
O1023  H1024   1.014   .     S
C1025  O1026   1.222   .     D
C1025  O1027   1.398   .     S
O1027  H1028   1.014   .     S
C1029  H1034   1.107   .     S
C1029  C1030   1.525   .     S
C1029  H1035   1.107   .     S
C1030  H1031   1.109   .     S
C1030  H1033   1.108   .     S
C1030  H1032   1.109   .     S
C1036  H1042   1.107   .     S
C1036  C1037   1.525   .     S
C1036  H1041   1.107   .     S
C1037  H1038   1.109   .     S
C1037  H1039   1.109   .     S
C1037  H1040   1.108   .     S
C1043  O1045   1.394   .     S
C1043  N171    1.411   1_556 S
C1043  O204    1.223   1_556 S
O1045  H1046   1.014   .     S
C1047  O1049   1.394   .     S
O1048  C207    1.223   1_556 S
O1049  H1050   1.014   .     S
C1051  O1083   1.301   .     A
C1051  C1055   1.431   .     S
C1051  O1085   1.298   .     A
C1052  O1084   1.301   .     A
C1052  C1056   1.431   .     S
C1052  O1086   1.298   .     A
C1053  H1077   1.081   .     S
C1053  C1070   1.403   .     A
C1054  C1069   1.403   .     A
C1054  H1078   1.081   .     S
C1054  C1002   1.381   1_655 S
C1056  C1195   1.331   .     S
C1056  H1220   1.087   .     S
C1057  O1087   1.304   .     A
C1057  C1062   1.448   .     S
C1057  O1089   1.297   .     A
C1058  C1061   1.448   .     S
C1058  O1088   1.304   .     A
C1058  O1090   1.297   .     A
C1059  C1091   1.492   .     S
C1059  C1061   1.407   .     A
C1059  C1069   1.406   .     A
C1060  C1095   1.492   .     S
C1060  C1062   1.407   .     A
C1060  C1070   1.406   .     A
C1061  C1063   1.411   .     A
C1062  C1064   1.412   .     A
C1063  C1065   1.413   .     A
C1063  C1099   1.528   .     S
C1064  C1106   1.528   .     S
C1064  C1066   1.413   .     A
C1065  C1067   1.420   .     A
C1065  C1071   1.406   .     A
C1066  C1068   1.420   .     A
C1066  C1072   1.406   .     A
C1067  C1069   1.417   .     A
C1067  C998    1.419   1_655 S
C1068  C1070   1.417   .     A
C1071  H1075   1.079   .     S
C1071  C983    1.381   1_655 S
C1072  H1076   1.079   .     S
Cu1073 O1090   1.953   .     S
Cu1073 O1086   1.951   .     S
Cu1073 Cu1074  2.721   .     S
Cu1073 N1082   2.045   .     S
Cu1073 O1087   1.970   .     S
Cu1073 O1083   1.955   .     S
Cu1074 O1088   1.970   .     S
Cu1074 N1081   2.045   .     S
Cu1074 O1085   1.951   .     S
Cu1074 O1089   1.953   .     S
Cu1074 O1084   1.955   .     S
H1079  C1195   1.087   .     S
N1082  N241    1.301   1_556 S
N1082  C277    1.411   1_556 S
C1091  O1093   1.398   .     S
C1091  O1092   1.222   .     D
O1093  H1094   1.014   .     S
C1095  O1096   1.222   .     D
C1095  O1097   1.398   .     S
O1097  H1098   1.014   .     S
C1099  H1104   1.107   .     S
C1099  C1100   1.525   .     S
C1099  H1105   1.107   .     S
C1100  H1101   1.109   .     S
C1100  H1103   1.108   .     S
C1100  H1102   1.109   .     S
C1106  H1112   1.107   .     S
C1106  C1107   1.525   .     S
C1106  H1111   1.107   .     S
C1107  H1108   1.109   .     S
C1107  H1109   1.109   .     S
C1107  H1110   1.108   .     S
C1113  O1115   1.394   .     S
C1113  N241    1.411   1_556 S
C1113  O274    1.223   1_556 S
O1115  H1116   1.014   .     S
C1117  O1119   1.394   .     S
O1118  C277    1.223   1_556 S
O1119  H1120   1.014   .     S
C1121  O1153   1.301   .     A
C1121  C1125   1.431   .     S
C1121  O1155   1.298   .     A
C1122  O1154   1.301   .     A
C1122  C1126   1.431   .     S
C1122  O1156   1.298   .     A
C1123  H1147   1.081   .     S
C1123  C1140   1.403   .     A
C1123  C1211   1.381   1_455 S
C1124  C1139   1.403   .     A
C1124  H1148   1.081   .     S
C1124  C1212   1.381   .     S
C1126  C845    1.331   1_565 S
C1126  H870    1.087   1_565 S
C1127  O1157   1.304   .     A
C1127  C1132   1.448   .     S
C1127  O1159   1.297   .     A
C1128  C1131   1.448   .     S
C1128  O1158   1.304   .     A
C1128  O1160   1.297   .     A
C1129  C1161   1.492   .     S
C1129  C1131   1.407   .     A
C1129  C1139   1.406   .     A
C1130  C1165   1.492   .     S
C1130  C1132   1.407   .     A
C1130  C1140   1.406   .     A
C1131  C1133   1.411   .     A
C1132  C1134   1.412   .     A
C1133  C1135   1.413   .     A
C1133  C1169   1.528   .     S
C1134  C1176   1.528   .     S
C1134  C1136   1.413   .     A
C1135  C1137   1.420   .     A
C1135  C1141   1.406   .     A
C1136  C1138   1.420   .     A
C1136  C1142   1.406   .     A
C1137  C1139   1.417   .     A
C1137  C1208   1.419   .     S
C1138  C1140   1.417   .     A
C1138  C1207   1.419   1_455 S
C1141  H1145   1.079   .     S
C1141  C1193   1.381   .     S
C1142  H1146   1.079   .     S
C1142  C1194   1.381   1_455 S
Cu1143 O1160   1.953   .     S
Cu1143 O1156   1.951   .     S
Cu1143 Cu1144  2.721   .     S
Cu1143 N1152   2.045   .     S
Cu1143 O1157   1.970   .     S
Cu1143 O1153   1.955   .     S
Cu1144 O1158   1.970   .     S
Cu1144 N1151   2.045   .     S
Cu1144 O1155   1.951   .     S
Cu1144 O1159   1.953   .     S
Cu1144 O1154   1.955   .     S
H1149  C845    1.087   1_565 S
N1152  N311    1.301   1_556 S
N1152  C347    1.411   1_556 S
C1161  O1163   1.398   .     S
C1161  O1162   1.222   .     D
O1163  H1164   1.014   .     S
C1165  O1166   1.222   .     D
C1165  O1167   1.398   .     S
O1167  H1168   1.014   .     S
C1169  H1174   1.107   .     S
C1169  C1170   1.525   .     S
C1169  H1175   1.107   .     S
C1170  H1171   1.109   .     S
C1170  H1173   1.108   .     S
C1170  H1172   1.109   .     S
C1176  H1182   1.107   .     S
C1176  C1177   1.525   .     S
C1176  H1181   1.107   .     S
C1177  H1178   1.109   .     S
C1177  H1179   1.109   .     S
C1177  H1180   1.108   .     S
C1183  O1185   1.394   .     S
C1183  N311    1.411   1_556 S
C1183  O344    1.223   1_556 S
O1185  H1186   1.014   .     S
C1187  O1189   1.394   .     S
O1188  C347    1.223   1_556 S
O1189  H1190   1.014   .     S
C1191  O1223   1.301   .     A
C1191  C1195   1.431   .     S
C1191  O1225   1.298   .     A
C1192  O1224   1.301   .     A
C1192  C1196   1.431   .     S
C1192  O1226   1.298   .     A
C1193  H1217   1.081   .     S
C1193  C1210   1.403   .     A
C1194  C1209   1.403   .     A
C1194  H1218   1.081   .     S
C1194  C1142   1.381   1_655 S
C1196  C915    1.331   1_565 S
C1196  H940    1.087   1_565 S
C1197  O1227   1.304   .     A
C1197  C1202   1.448   .     S
C1197  O1229   1.297   .     A
C1198  C1201   1.448   .     S
C1198  O1228   1.304   .     A
C1198  O1230   1.297   .     A
C1199  C1231   1.492   .     S
C1199  C1201   1.407   .     A
C1199  C1209   1.406   .     A
C1200  C1235   1.492   .     S
C1200  C1202   1.407   .     A
C1200  C1210   1.406   .     A
C1201  C1203   1.411   .     A
C1202  C1204   1.412   .     A
C1203  C1205   1.413   .     A
C1203  C1239   1.528   .     S
C1204  C1246   1.528   .     S
C1204  C1206   1.413   .     A
C1205  C1207   1.420   .     A
C1205  C1211   1.406   .     A
C1206  C1208   1.420   .     A
C1206  C1212   1.406   .     A
C1207  C1209   1.417   .     A
C1207  C1138   1.419   1_655 S
C1208  C1210   1.417   .     A
C1211  H1215   1.079   .     S
C1211  C1123   1.381   1_655 S
C1212  H1216   1.079   .     S
Cu1213 O1230   1.953   .     S
Cu1213 O1226   1.951   .     S
Cu1213 Cu1214  2.721   .     S
Cu1213 N1222   2.045   .     S
Cu1213 O1227   1.970   .     S
Cu1213 O1223   1.955   .     S
Cu1214 O1228   1.970   .     S
Cu1214 N1221   2.045   .     S
Cu1214 O1225   1.951   .     S
Cu1214 O1229   1.953   .     S
Cu1214 O1224   1.955   .     S
H1219  C915    1.087   1_565 S
N1222  N381    1.301   1_556 S
N1222  C417    1.411   1_556 S
C1231  O1233   1.398   .     S
C1231  O1232   1.222   .     D
O1233  H1234   1.014   .     S
C1235  O1236   1.222   .     D
C1235  O1237   1.398   .     S
O1237  H1238   1.014   .     S
C1239  H1244   1.107   .     S
C1239  C1240   1.525   .     S
C1239  H1245   1.107   .     S
C1240  H1241   1.109   .     S
C1240  H1243   1.108   .     S
C1240  H1242   1.109   .     S
C1246  H1252   1.107   .     S
C1246  C1247   1.525   .     S
C1246  H1251   1.107   .     S
C1247  H1248   1.109   .     S
C1247  H1249   1.109   .     S
C1247  H1250   1.108   .     S
C1253  O1255   1.394   .     S
C1253  N381    1.411   1_556 S
C1253  O414    1.223   1_556 S
O1255  H1256   1.014   .     S
C1257  O1259   1.394   .     S
O1258  C417    1.223   1_556 S
O1259  H1260   1.014   .     S
