data_str_m2_o10_o17_pcu_sym.212
_audit_creation_date              2020-01-03
_audit_creation_method            'Materials Studio'
_symmetry_space_group_name_H-M    'P1'
_symmetry_Int_Tables_number       1
_symmetry_cell_setting            triclinic
loop_
_symmetry_equiv_pos_as_xyz
  x,y,z
_cell_length_a                    30.0644
_cell_length_b                    26.0961
_cell_length_c                    22.6482
_cell_angle_alpha                 103.5318
_cell_angle_beta                  94.6713
_cell_angle_gamma                 94.0202
loop_
_atom_site_label
_atom_site_type_symbol
_atom_site_fract_x
_atom_site_fract_y
_atom_site_fract_z
_atom_site_U_iso_or_equiv
_atom_site_adp_type
_atom_site_occupancy
C1     C     0.24859   0.06660   0.15095   0.00000  Uiso   1.00
C2     C     0.25141   0.26673   0.18238   0.00000  Uiso   1.00
C3     C     0.01441   0.12936   0.05681   0.00000  Uiso   1.00
C4     C     0.48559   0.20397   0.27652   0.00000  Uiso   1.00
C5     C     0.24802   0.01040   0.14242   0.00000  Uiso   1.00
C6     C     0.25198   0.32293   0.19091   0.00000  Uiso   1.00
C7     C     0.16448   0.16649   0.16704   0.00000  Uiso   1.00
C8     C     0.33552   0.16684   0.16629   0.00000  Uiso   1.00
C9     C     0.41157   0.18545   0.22101   0.00000  Uiso   1.00
C10    C     0.08843   0.14788   0.11233   0.00000  Uiso   1.00
C11    C     0.38396   0.16701   0.16596   0.00000  Uiso   1.00
C12    C     0.11604   0.16632   0.16737   0.00000  Uiso   1.00
C13    C     0.40272   0.14831   0.11123   0.00000  Uiso   1.00
C14    C     0.09728   0.18503   0.22211   0.00000  Uiso   1.00
C15    C     0.44902   0.14815   0.11107   0.00000  Uiso   1.00
C16    C     0.05098   0.18518   0.22226   0.00000  Uiso   1.00
C17    C     0.47671   0.16676   0.16651   0.00000  Uiso   1.00
C18    C     0.02329   0.16657   0.16682   0.00000  Uiso   1.00
C19    C     0.45787   0.18550   0.22167   0.00000  Uiso   1.00
C20    C     0.04213   0.14784   0.11166   0.00000  Uiso   1.00
C21    C     0.46806   0.12952   0.05652   0.00000  Uiso   1.00
C22    C     0.03194   0.20381   0.27682   0.00000  Uiso   1.00
Cu23   Cu    0.25501   0.17246   0.22813   0.00000  Uiso   1.00
Cu24   Cu    0.24500   0.16087   0.10521   0.00000  Uiso   1.00
H25    H     0.39709   0.20005   0.26340   0.00000  Uiso   1.00
H26    H     0.10291   0.13329   0.06993   0.00000  Uiso   1.00
H27    H     0.38138   0.13309   0.06895   0.00000  Uiso   1.00
H28    H     0.11862   0.20025   0.26439   0.00000  Uiso   1.00
H29    H     0.44713   0.11522   0.01368   0.00000  Uiso   1.00
H30    H     0.05287   0.21811   0.31966   0.00000  Uiso   1.00
H31    H     0.02858   0.11488   0.01420   0.00000  Uiso   1.00
H32    H     0.47142   0.21845   0.31913   0.00000  Uiso   1.00
H33    H     0.24437   0.31939   0.09594   0.00000  Uiso   1.00
H34    H     0.25563   0.01394   0.23740   0.00000  Uiso   1.00
N35    N     0.23745   0.15214   0.01284   0.00000  Uiso   1.00
N36    N     0.26256   0.18119   0.32049   0.00000  Uiso   1.00
O37    O     0.25326   0.09538   0.20659   0.00000  Uiso   1.00
O38    O     0.24675   0.23796   0.12674   0.00000  Uiso   1.00
O39    O     0.24480   0.08559   0.10279   0.00000  Uiso   1.00
O40    O     0.25520   0.24774   0.23055   0.00000  Uiso   1.00
O41    O     0.18936   0.17155   0.21857   0.00000  Uiso   1.00
O42    O     0.31065   0.16179   0.11476   0.00000  Uiso   1.00
O43    O     0.18090   0.16176   0.11477   0.00000  Uiso   1.00
O44    O     0.31910   0.17157   0.21857   0.00000  Uiso   1.00
C45    C     0.19429   0.12818   0.31636   0.00000  Uiso   1.00
H46    H     0.18049   0.10117   0.00957   0.00000  Uiso   1.00
H47    H     0.17071   0.15896   0.31656   0.00000  Uiso   1.00
H48    H     0.19647   0.10273   0.27074   0.00000  Uiso   1.00
C49    C     0.30571   0.20515   0.01697   0.00000  Uiso   1.00
H50    H     0.31951   0.23216   0.32376   0.00000  Uiso   1.00
H51    H     0.30353   0.23060   0.06259   0.00000  Uiso   1.00
H52    H     0.32929   0.17438   0.01677   0.00000  Uiso   1.00
C53    C     0.74859   0.06660   0.15095   0.00000  Uiso   1.00
C54    C     0.75141   0.26673   0.18238   0.00000  Uiso   1.00
C55    C     0.51441   0.12936   0.05681   0.00000  Uiso   1.00
C56    C     0.98559   0.20397   0.27652   0.00000  Uiso   1.00
C57    C     0.74802   0.01040   0.14242   0.00000  Uiso   1.00
C58    C     0.75198   0.32293   0.19091   0.00000  Uiso   1.00
C59    C     0.66448   0.16649   0.16704   0.00000  Uiso   1.00
C60    C     0.83552   0.16684   0.16629   0.00000  Uiso   1.00
C61    C     0.91157   0.18545   0.22101   0.00000  Uiso   1.00
C62    C     0.58843   0.14788   0.11233   0.00000  Uiso   1.00
C63    C     0.88396   0.16701   0.16596   0.00000  Uiso   1.00
C64    C     0.61604   0.16632   0.16737   0.00000  Uiso   1.00
C65    C     0.90272   0.14831   0.11123   0.00000  Uiso   1.00
C66    C     0.59728   0.18503   0.22211   0.00000  Uiso   1.00
C67    C     0.94902   0.14815   0.11107   0.00000  Uiso   1.00
C68    C     0.55098   0.18518   0.22226   0.00000  Uiso   1.00
C69    C     0.97671   0.16676   0.16651   0.00000  Uiso   1.00
C70    C     0.52329   0.16657   0.16682   0.00000  Uiso   1.00
C71    C     0.95787   0.18550   0.22167   0.00000  Uiso   1.00
C72    C     0.54213   0.14784   0.11166   0.00000  Uiso   1.00
C73    C     0.96806   0.12952   0.05652   0.00000  Uiso   1.00
C74    C     0.53194   0.20381   0.27682   0.00000  Uiso   1.00
Cu75   Cu    0.75501   0.17246   0.22813   0.00000  Uiso   1.00
Cu76   Cu    0.74500   0.16087   0.10521   0.00000  Uiso   1.00
H77    H     0.89709   0.20005   0.26340   0.00000  Uiso   1.00
H78    H     0.60291   0.13329   0.06993   0.00000  Uiso   1.00
H79    H     0.88138   0.13309   0.06895   0.00000  Uiso   1.00
H80    H     0.61862   0.20025   0.26439   0.00000  Uiso   1.00
H81    H     0.94713   0.11522   0.01368   0.00000  Uiso   1.00
H82    H     0.55287   0.21811   0.31966   0.00000  Uiso   1.00
H83    H     0.52858   0.11488   0.01420   0.00000  Uiso   1.00
H84    H     0.97142   0.21845   0.31913   0.00000  Uiso   1.00
H85    H     0.74437   0.31939   0.09594   0.00000  Uiso   1.00
H86    H     0.75563   0.01394   0.23740   0.00000  Uiso   1.00
N87    N     0.73745   0.15214   0.01284   0.00000  Uiso   1.00
N88    N     0.76256   0.18119   0.32049   0.00000  Uiso   1.00
O89    O     0.75326   0.09538   0.20659   0.00000  Uiso   1.00
O90    O     0.74675   0.23796   0.12674   0.00000  Uiso   1.00
O91    O     0.74480   0.08559   0.10279   0.00000  Uiso   1.00
O92    O     0.75520   0.24774   0.23055   0.00000  Uiso   1.00
O93    O     0.68936   0.17155   0.21857   0.00000  Uiso   1.00
O94    O     0.81065   0.16179   0.11476   0.00000  Uiso   1.00
O95    O     0.68090   0.16176   0.11477   0.00000  Uiso   1.00
O96    O     0.81910   0.17157   0.21857   0.00000  Uiso   1.00
C97    C     0.69429   0.12818   0.31636   0.00000  Uiso   1.00
H98    H     0.68049   0.10117   0.00957   0.00000  Uiso   1.00
H99    H     0.67071   0.15896   0.31656   0.00000  Uiso   1.00
H100   H     0.69647   0.10273   0.27074   0.00000  Uiso   1.00
C101   C     0.80571   0.20515   0.01697   0.00000  Uiso   1.00
H102   H     0.81951   0.23216   0.32376   0.00000  Uiso   1.00
H103   H     0.80353   0.23060   0.06259   0.00000  Uiso   1.00
H104   H     0.82929   0.17438   0.01677   0.00000  Uiso   1.00
C105   C     0.24859   0.39993   0.15095   0.00000  Uiso   1.00
C106   C     0.25141   0.60007   0.18238   0.00000  Uiso   1.00
C107   C     0.01441   0.46270   0.05681   0.00000  Uiso   1.00
C108   C     0.48559   0.53730   0.27652   0.00000  Uiso   1.00
C109   C     0.24802   0.34373   0.14242   0.00000  Uiso   1.00
C110   C     0.25198   0.65627   0.19091   0.00000  Uiso   1.00
C111   C     0.16448   0.49983   0.16704   0.00000  Uiso   1.00
C112   C     0.33552   0.50017   0.16629   0.00000  Uiso   1.00
C113   C     0.41157   0.51878   0.22101   0.00000  Uiso   1.00
C114   C     0.08843   0.48121   0.11233   0.00000  Uiso   1.00
C115   C     0.38396   0.50035   0.16596   0.00000  Uiso   1.00
C116   C     0.11604   0.49965   0.16737   0.00000  Uiso   1.00
C117   C     0.40272   0.48164   0.11123   0.00000  Uiso   1.00
C118   C     0.09728   0.51836   0.22211   0.00000  Uiso   1.00
C119   C     0.44902   0.48148   0.11107   0.00000  Uiso   1.00
C120   C     0.05098   0.51852   0.22226   0.00000  Uiso   1.00
C121   C     0.47671   0.50010   0.16651   0.00000  Uiso   1.00
C122   C     0.02329   0.49990   0.16682   0.00000  Uiso   1.00
C123   C     0.45787   0.51883   0.22167   0.00000  Uiso   1.00
C124   C     0.04213   0.48117   0.11166   0.00000  Uiso   1.00
C125   C     0.46806   0.46286   0.05652   0.00000  Uiso   1.00
C126   C     0.03194   0.53714   0.27682   0.00000  Uiso   1.00
Cu127  Cu    0.25501   0.50579   0.22813   0.00000  Uiso   1.00
Cu128  Cu    0.24500   0.49421   0.10521   0.00000  Uiso   1.00
H129   H     0.39709   0.53338   0.26340   0.00000  Uiso   1.00
H130   H     0.10291   0.46662   0.06993   0.00000  Uiso   1.00
H131   H     0.38138   0.46642   0.06895   0.00000  Uiso   1.00
H132   H     0.11862   0.53358   0.26439   0.00000  Uiso   1.00
H133   H     0.44713   0.44856   0.01368   0.00000  Uiso   1.00
H134   H     0.05287   0.55144   0.31966   0.00000  Uiso   1.00
H135   H     0.02858   0.44822   0.01420   0.00000  Uiso   1.00
H136   H     0.47142   0.55178   0.31913   0.00000  Uiso   1.00
H137   H     0.24437   0.65272   0.09594   0.00000  Uiso   1.00
H138   H     0.25563   0.34728   0.23740   0.00000  Uiso   1.00
N139   N     0.23745   0.48547   0.01284   0.00000  Uiso   1.00
N140   N     0.26256   0.51453   0.32049   0.00000  Uiso   1.00
O141   O     0.25326   0.42871   0.20659   0.00000  Uiso   1.00
O142   O     0.24675   0.57129   0.12674   0.00000  Uiso   1.00
O143   O     0.24480   0.41892   0.10279   0.00000  Uiso   1.00
O144   O     0.25520   0.58108   0.23055   0.00000  Uiso   1.00
O145   O     0.18936   0.50488   0.21857   0.00000  Uiso   1.00
O146   O     0.31065   0.49512   0.11476   0.00000  Uiso   1.00
O147   O     0.18090   0.49510   0.11477   0.00000  Uiso   1.00
O148   O     0.31910   0.50490   0.21857   0.00000  Uiso   1.00
C149   C     0.19429   0.46151   0.31636   0.00000  Uiso   1.00
H150   H     0.18049   0.43451   0.00957   0.00000  Uiso   1.00
H151   H     0.17071   0.49229   0.31656   0.00000  Uiso   1.00
H152   H     0.19647   0.43606   0.27074   0.00000  Uiso   1.00
C153   C     0.30571   0.53849   0.01697   0.00000  Uiso   1.00
H154   H     0.31951   0.56549   0.32376   0.00000  Uiso   1.00
H155   H     0.30353   0.56394   0.06259   0.00000  Uiso   1.00
H156   H     0.32929   0.50771   0.01677   0.00000  Uiso   1.00
C157   C     0.74859   0.39993   0.15095   0.00000  Uiso   1.00
C158   C     0.75141   0.60007   0.18238   0.00000  Uiso   1.00
C159   C     0.51441   0.46270   0.05681   0.00000  Uiso   1.00
C160   C     0.98559   0.53730   0.27652   0.00000  Uiso   1.00
C161   C     0.74802   0.34373   0.14242   0.00000  Uiso   1.00
C162   C     0.75198   0.65627   0.19091   0.00000  Uiso   1.00
C163   C     0.66448   0.49983   0.16704   0.00000  Uiso   1.00
C164   C     0.83552   0.50017   0.16629   0.00000  Uiso   1.00
C165   C     0.91157   0.51878   0.22101   0.00000  Uiso   1.00
C166   C     0.58843   0.48121   0.11233   0.00000  Uiso   1.00
C167   C     0.88396   0.50035   0.16596   0.00000  Uiso   1.00
C168   C     0.61604   0.49965   0.16737   0.00000  Uiso   1.00
C169   C     0.90272   0.48164   0.11123   0.00000  Uiso   1.00
C170   C     0.59728   0.51836   0.22211   0.00000  Uiso   1.00
C171   C     0.94902   0.48148   0.11107   0.00000  Uiso   1.00
C172   C     0.55098   0.51852   0.22226   0.00000  Uiso   1.00
C173   C     0.97671   0.50010   0.16651   0.00000  Uiso   1.00
C174   C     0.52329   0.49990   0.16682   0.00000  Uiso   1.00
C175   C     0.95787   0.51883   0.22167   0.00000  Uiso   1.00
C176   C     0.54213   0.48117   0.11166   0.00000  Uiso   1.00
C177   C     0.96806   0.46286   0.05652   0.00000  Uiso   1.00
C178   C     0.53194   0.53714   0.27682   0.00000  Uiso   1.00
Cu179  Cu    0.75501   0.50579   0.22813   0.00000  Uiso   1.00
Cu180  Cu    0.74500   0.49421   0.10521   0.00000  Uiso   1.00
H181   H     0.89709   0.53338   0.26340   0.00000  Uiso   1.00
H182   H     0.60291   0.46662   0.06993   0.00000  Uiso   1.00
H183   H     0.88138   0.46642   0.06895   0.00000  Uiso   1.00
H184   H     0.61862   0.53358   0.26439   0.00000  Uiso   1.00
H185   H     0.94713   0.44856   0.01368   0.00000  Uiso   1.00
H186   H     0.55287   0.55144   0.31966   0.00000  Uiso   1.00
H187   H     0.52858   0.44822   0.01420   0.00000  Uiso   1.00
H188   H     0.97142   0.55178   0.31913   0.00000  Uiso   1.00
H189   H     0.74437   0.65272   0.09594   0.00000  Uiso   1.00
H190   H     0.75563   0.34728   0.23740   0.00000  Uiso   1.00
N191   N     0.73745   0.48547   0.01284   0.00000  Uiso   1.00
N192   N     0.76256   0.51453   0.32049   0.00000  Uiso   1.00
O193   O     0.75326   0.42871   0.20659   0.00000  Uiso   1.00
O194   O     0.74675   0.57129   0.12674   0.00000  Uiso   1.00
O195   O     0.74480   0.41892   0.10279   0.00000  Uiso   1.00
O196   O     0.75520   0.58108   0.23055   0.00000  Uiso   1.00
O197   O     0.68936   0.50488   0.21857   0.00000  Uiso   1.00
O198   O     0.81065   0.49512   0.11476   0.00000  Uiso   1.00
O199   O     0.68090   0.49510   0.11477   0.00000  Uiso   1.00
O200   O     0.81910   0.50490   0.21857   0.00000  Uiso   1.00
C201   C     0.69429   0.46151   0.31636   0.00000  Uiso   1.00
H202   H     0.68049   0.43451   0.00957   0.00000  Uiso   1.00
H203   H     0.67071   0.49229   0.31656   0.00000  Uiso   1.00
H204   H     0.69647   0.43606   0.27074   0.00000  Uiso   1.00
C205   C     0.80571   0.53849   0.01697   0.00000  Uiso   1.00
H206   H     0.81951   0.56549   0.32376   0.00000  Uiso   1.00
H207   H     0.80353   0.56394   0.06259   0.00000  Uiso   1.00
H208   H     0.82929   0.50771   0.01677   0.00000  Uiso   1.00
C209   C     0.24859   0.73327   0.15095   0.00000  Uiso   1.00
C210   C     0.25141   0.93340   0.18238   0.00000  Uiso   1.00
C211   C     0.01441   0.79603   0.05681   0.00000  Uiso   1.00
C212   C     0.48559   0.87064   0.27652   0.00000  Uiso   1.00
C213   C     0.24802   0.67707   0.14242   0.00000  Uiso   1.00
C214   C     0.25198   0.98960   0.19091   0.00000  Uiso   1.00
C215   C     0.16448   0.83316   0.16704   0.00000  Uiso   1.00
C216   C     0.33552   0.83351   0.16629   0.00000  Uiso   1.00
C217   C     0.41157   0.85212   0.22101   0.00000  Uiso   1.00
C218   C     0.08843   0.81455   0.11233   0.00000  Uiso   1.00
C219   C     0.38396   0.83368   0.16596   0.00000  Uiso   1.00
C220   C     0.11604   0.83299   0.16737   0.00000  Uiso   1.00
C221   C     0.40272   0.81497   0.11123   0.00000  Uiso   1.00
C222   C     0.09728   0.85169   0.22211   0.00000  Uiso   1.00
C223   C     0.44902   0.81482   0.11107   0.00000  Uiso   1.00
C224   C     0.05098   0.85185   0.22226   0.00000  Uiso   1.00
C225   C     0.47671   0.83343   0.16651   0.00000  Uiso   1.00
C226   C     0.02329   0.83324   0.16682   0.00000  Uiso   1.00
C227   C     0.45787   0.85216   0.22167   0.00000  Uiso   1.00
C228   C     0.04213   0.81450   0.11166   0.00000  Uiso   1.00
C229   C     0.46806   0.79619   0.05652   0.00000  Uiso   1.00
C230   C     0.03194   0.87048   0.27682   0.00000  Uiso   1.00
Cu231  Cu    0.25501   0.83913   0.22813   0.00000  Uiso   1.00
Cu232  Cu    0.24500   0.82754   0.10521   0.00000  Uiso   1.00
H233   H     0.39709   0.86671   0.26340   0.00000  Uiso   1.00
H234   H     0.10291   0.79995   0.06993   0.00000  Uiso   1.00
H235   H     0.38138   0.79975   0.06895   0.00000  Uiso   1.00
H236   H     0.11862   0.86691   0.26439   0.00000  Uiso   1.00
H237   H     0.44713   0.78189   0.01368   0.00000  Uiso   1.00
H238   H     0.05287   0.88478   0.31966   0.00000  Uiso   1.00
H239   H     0.02858   0.78155   0.01420   0.00000  Uiso   1.00
H240   H     0.47142   0.88512   0.31913   0.00000  Uiso   1.00
H241   H     0.24437   0.98606   0.09594   0.00000  Uiso   1.00
H242   H     0.25563   0.68061   0.23740   0.00000  Uiso   1.00
N243   N     0.23745   0.81881   0.01284   0.00000  Uiso   1.00
N244   N     0.26256   0.84786   0.32049   0.00000  Uiso   1.00
O245   O     0.25326   0.76204   0.20659   0.00000  Uiso   1.00
O246   O     0.24675   0.90462   0.12674   0.00000  Uiso   1.00
O247   O     0.24480   0.75226   0.10279   0.00000  Uiso   1.00
O248   O     0.25520   0.91441   0.23055   0.00000  Uiso   1.00
O249   O     0.18936   0.83821   0.21857   0.00000  Uiso   1.00
O250   O     0.31065   0.82845   0.11476   0.00000  Uiso   1.00
O251   O     0.18090   0.82843   0.11477   0.00000  Uiso   1.00
O252   O     0.31910   0.83824   0.21857   0.00000  Uiso   1.00
C253   C     0.19429   0.79485   0.31636   0.00000  Uiso   1.00
H254   H     0.18049   0.76784   0.00957   0.00000  Uiso   1.00
H255   H     0.17071   0.82562   0.31656   0.00000  Uiso   1.00
H256   H     0.19647   0.76940   0.27074   0.00000  Uiso   1.00
C257   C     0.30571   0.87182   0.01697   0.00000  Uiso   1.00
H258   H     0.31951   0.89883   0.32376   0.00000  Uiso   1.00
H259   H     0.30353   0.89727   0.06259   0.00000  Uiso   1.00
H260   H     0.32929   0.84104   0.01677   0.00000  Uiso   1.00
C261   C     0.74859   0.73327   0.15095   0.00000  Uiso   1.00
C262   C     0.75141   0.93340   0.18238   0.00000  Uiso   1.00
C263   C     0.51441   0.79603   0.05681   0.00000  Uiso   1.00
C264   C     0.98559   0.87064   0.27652   0.00000  Uiso   1.00
C265   C     0.74802   0.67707   0.14242   0.00000  Uiso   1.00
C266   C     0.75198   0.98960   0.19091   0.00000  Uiso   1.00
C267   C     0.66448   0.83316   0.16704   0.00000  Uiso   1.00
C268   C     0.83552   0.83351   0.16629   0.00000  Uiso   1.00
C269   C     0.91157   0.85212   0.22101   0.00000  Uiso   1.00
C270   C     0.58843   0.81455   0.11233   0.00000  Uiso   1.00
C271   C     0.88396   0.83368   0.16596   0.00000  Uiso   1.00
C272   C     0.61604   0.83299   0.16737   0.00000  Uiso   1.00
C273   C     0.90272   0.81497   0.11123   0.00000  Uiso   1.00
C274   C     0.59728   0.85169   0.22211   0.00000  Uiso   1.00
C275   C     0.94902   0.81482   0.11107   0.00000  Uiso   1.00
C276   C     0.55098   0.85185   0.22226   0.00000  Uiso   1.00
C277   C     0.97671   0.83343   0.16651   0.00000  Uiso   1.00
C278   C     0.52329   0.83324   0.16682   0.00000  Uiso   1.00
C279   C     0.95787   0.85216   0.22167   0.00000  Uiso   1.00
C280   C     0.54213   0.81450   0.11166   0.00000  Uiso   1.00
C281   C     0.96806   0.79619   0.05652   0.00000  Uiso   1.00
C282   C     0.53194   0.87048   0.27682   0.00000  Uiso   1.00
Cu283  Cu    0.75501   0.83913   0.22813   0.00000  Uiso   1.00
Cu284  Cu    0.74500   0.82754   0.10521   0.00000  Uiso   1.00
H285   H     0.89709   0.86671   0.26340   0.00000  Uiso   1.00
H286   H     0.60291   0.79995   0.06993   0.00000  Uiso   1.00
H287   H     0.88138   0.79975   0.06895   0.00000  Uiso   1.00
H288   H     0.61862   0.86691   0.26439   0.00000  Uiso   1.00
H289   H     0.94713   0.78189   0.01368   0.00000  Uiso   1.00
H290   H     0.55287   0.88478   0.31966   0.00000  Uiso   1.00
H291   H     0.52858   0.78155   0.01420   0.00000  Uiso   1.00
H292   H     0.97142   0.88512   0.31913   0.00000  Uiso   1.00
H293   H     0.74437   0.98606   0.09594   0.00000  Uiso   1.00
H294   H     0.75563   0.68061   0.23740   0.00000  Uiso   1.00
N295   N     0.73745   0.81881   0.01284   0.00000  Uiso   1.00
N296   N     0.76256   0.84786   0.32049   0.00000  Uiso   1.00
O297   O     0.75326   0.76204   0.20659   0.00000  Uiso   1.00
O298   O     0.74675   0.90462   0.12674   0.00000  Uiso   1.00
O299   O     0.74480   0.75226   0.10279   0.00000  Uiso   1.00
O300   O     0.75520   0.91441   0.23055   0.00000  Uiso   1.00
O301   O     0.68936   0.83821   0.21857   0.00000  Uiso   1.00
O302   O     0.81065   0.82845   0.11476   0.00000  Uiso   1.00
O303   O     0.68090   0.82843   0.11477   0.00000  Uiso   1.00
O304   O     0.81910   0.83824   0.21857   0.00000  Uiso   1.00
C305   C     0.69429   0.79485   0.31636   0.00000  Uiso   1.00
H306   H     0.68049   0.76784   0.00957   0.00000  Uiso   1.00
H307   H     0.67071   0.82562   0.31656   0.00000  Uiso   1.00
H308   H     0.69647   0.76940   0.27074   0.00000  Uiso   1.00
C309   C     0.80571   0.87182   0.01697   0.00000  Uiso   1.00
H310   H     0.81951   0.89883   0.32376   0.00000  Uiso   1.00
H311   H     0.80353   0.89727   0.06259   0.00000  Uiso   1.00
H312   H     0.82929   0.84104   0.01677   0.00000  Uiso   1.00
C313   C     0.24859   0.06660   0.48428   0.00000  Uiso   1.00
C314   C     0.25141   0.26673   0.51572   0.00000  Uiso   1.00
C315   C     0.01441   0.12936   0.39015   0.00000  Uiso   1.00
C316   C     0.48559   0.20397   0.60985   0.00000  Uiso   1.00
C317   C     0.24802   0.01040   0.47576   0.00000  Uiso   1.00
C318   C     0.25198   0.32293   0.52424   0.00000  Uiso   1.00
C319   C     0.16448   0.16649   0.50038   0.00000  Uiso   1.00
C320   C     0.33552   0.16684   0.49962   0.00000  Uiso   1.00
C321   C     0.41157   0.18545   0.55434   0.00000  Uiso   1.00
C322   C     0.08843   0.14788   0.44566   0.00000  Uiso   1.00
C323   C     0.38396   0.16701   0.49930   0.00000  Uiso   1.00
C324   C     0.11604   0.16632   0.50070   0.00000  Uiso   1.00
C325   C     0.40272   0.14831   0.44456   0.00000  Uiso   1.00
C326   C     0.09728   0.18503   0.55544   0.00000  Uiso   1.00
C327   C     0.44902   0.14815   0.44440   0.00000  Uiso   1.00
C328   C     0.05098   0.18518   0.55560   0.00000  Uiso   1.00
C329   C     0.47671   0.16676   0.49985   0.00000  Uiso   1.00
C330   C     0.02329   0.16657   0.50015   0.00000  Uiso   1.00
C331   C     0.45787   0.18550   0.55501   0.00000  Uiso   1.00
C332   C     0.04213   0.14784   0.44499   0.00000  Uiso   1.00
C333   C     0.46806   0.12952   0.38985   0.00000  Uiso   1.00
C334   C     0.03194   0.20381   0.61015   0.00000  Uiso   1.00
Cu335  Cu    0.25501   0.17246   0.56146   0.00000  Uiso   1.00
Cu336  Cu    0.24500   0.16087   0.43854   0.00000  Uiso   1.00
H337   H     0.39709   0.20005   0.59673   0.00000  Uiso   1.00
H338   H     0.10291   0.13329   0.40327   0.00000  Uiso   1.00
H339   H     0.38138   0.13309   0.40228   0.00000  Uiso   1.00
H340   H     0.11862   0.20025   0.59772   0.00000  Uiso   1.00
H341   H     0.44713   0.11522   0.34701   0.00000  Uiso   1.00
H342   H     0.05287   0.21811   0.65299   0.00000  Uiso   1.00
H343   H     0.02858   0.11488   0.34754   0.00000  Uiso   1.00
H344   H     0.47142   0.21845   0.65246   0.00000  Uiso   1.00
H345   H     0.24437   0.31939   0.42927   0.00000  Uiso   1.00
H346   H     0.25563   0.01394   0.57073   0.00000  Uiso   1.00
N347   N     0.23745   0.15214   0.34617   0.00000  Uiso   1.00
N348   N     0.26256   0.18119   0.65383   0.00000  Uiso   1.00
O349   O     0.25326   0.09538   0.53992   0.00000  Uiso   1.00
O350   O     0.24675   0.23796   0.46008   0.00000  Uiso   1.00
O351   O     0.24480   0.08559   0.43612   0.00000  Uiso   1.00
O352   O     0.25520   0.24774   0.56388   0.00000  Uiso   1.00
O353   O     0.18936   0.17155   0.55191   0.00000  Uiso   1.00
O354   O     0.31065   0.16179   0.44809   0.00000  Uiso   1.00
O355   O     0.18090   0.16176   0.44810   0.00000  Uiso   1.00
O356   O     0.31910   0.17157   0.55190   0.00000  Uiso   1.00
C357   C     0.19429   0.12818   0.64969   0.00000  Uiso   1.00
H358   H     0.18049   0.10117   0.34291   0.00000  Uiso   1.00
H359   H     0.17071   0.15896   0.64990   0.00000  Uiso   1.00
H360   H     0.19647   0.10273   0.60408   0.00000  Uiso   1.00
C361   C     0.30571   0.20515   0.35031   0.00000  Uiso   1.00
H362   H     0.31951   0.23216   0.65709   0.00000  Uiso   1.00
H363   H     0.30353   0.23060   0.39592   0.00000  Uiso   1.00
H364   H     0.32929   0.17438   0.35011   0.00000  Uiso   1.00
C365   C     0.74859   0.06660   0.48428   0.00000  Uiso   1.00
C366   C     0.75141   0.26673   0.51572   0.00000  Uiso   1.00
C367   C     0.51441   0.12936   0.39015   0.00000  Uiso   1.00
C368   C     0.98559   0.20397   0.60985   0.00000  Uiso   1.00
C369   C     0.74802   0.01040   0.47576   0.00000  Uiso   1.00
C370   C     0.75198   0.32293   0.52424   0.00000  Uiso   1.00
C371   C     0.66448   0.16649   0.50038   0.00000  Uiso   1.00
C372   C     0.83552   0.16684   0.49962   0.00000  Uiso   1.00
C373   C     0.91157   0.18545   0.55434   0.00000  Uiso   1.00
C374   C     0.58843   0.14788   0.44566   0.00000  Uiso   1.00
C375   C     0.88396   0.16701   0.49930   0.00000  Uiso   1.00
C376   C     0.61604   0.16632   0.50070   0.00000  Uiso   1.00
C377   C     0.90272   0.14831   0.44456   0.00000  Uiso   1.00
C378   C     0.59728   0.18503   0.55544   0.00000  Uiso   1.00
C379   C     0.94902   0.14815   0.44440   0.00000  Uiso   1.00
C380   C     0.55098   0.18518   0.55560   0.00000  Uiso   1.00
C381   C     0.97671   0.16676   0.49985   0.00000  Uiso   1.00
C382   C     0.52329   0.16657   0.50015   0.00000  Uiso   1.00
C383   C     0.95787   0.18550   0.55501   0.00000  Uiso   1.00
C384   C     0.54213   0.14784   0.44499   0.00000  Uiso   1.00
C385   C     0.96806   0.12952   0.38985   0.00000  Uiso   1.00
C386   C     0.53194   0.20381   0.61015   0.00000  Uiso   1.00
Cu387  Cu    0.75501   0.17246   0.56146   0.00000  Uiso   1.00
Cu388  Cu    0.74500   0.16087   0.43854   0.00000  Uiso   1.00
H389   H     0.89709   0.20005   0.59673   0.00000  Uiso   1.00
H390   H     0.60291   0.13329   0.40327   0.00000  Uiso   1.00
H391   H     0.88138   0.13309   0.40228   0.00000  Uiso   1.00
H392   H     0.61862   0.20025   0.59772   0.00000  Uiso   1.00
H393   H     0.94713   0.11522   0.34701   0.00000  Uiso   1.00
H394   H     0.55287   0.21811   0.65299   0.00000  Uiso   1.00
H395   H     0.52858   0.11488   0.34754   0.00000  Uiso   1.00
H396   H     0.97142   0.21845   0.65246   0.00000  Uiso   1.00
H397   H     0.74437   0.31939   0.42927   0.00000  Uiso   1.00
H398   H     0.75563   0.01394   0.57073   0.00000  Uiso   1.00
N399   N     0.73745   0.15214   0.34617   0.00000  Uiso   1.00
N400   N     0.76256   0.18119   0.65383   0.00000  Uiso   1.00
O401   O     0.75326   0.09538   0.53992   0.00000  Uiso   1.00
O402   O     0.74675   0.23796   0.46008   0.00000  Uiso   1.00
O403   O     0.74480   0.08559   0.43612   0.00000  Uiso   1.00
O404   O     0.75520   0.24774   0.56388   0.00000  Uiso   1.00
O405   O     0.68936   0.17155   0.55191   0.00000  Uiso   1.00
O406   O     0.81065   0.16179   0.44809   0.00000  Uiso   1.00
O407   O     0.68090   0.16176   0.44810   0.00000  Uiso   1.00
O408   O     0.81910   0.17157   0.55190   0.00000  Uiso   1.00
C409   C     0.69429   0.12818   0.64969   0.00000  Uiso   1.00
H410   H     0.68049   0.10117   0.34291   0.00000  Uiso   1.00
H411   H     0.67071   0.15896   0.64990   0.00000  Uiso   1.00
H412   H     0.69647   0.10273   0.60408   0.00000  Uiso   1.00
C413   C     0.80571   0.20515   0.35031   0.00000  Uiso   1.00
H414   H     0.81951   0.23216   0.65709   0.00000  Uiso   1.00
H415   H     0.80353   0.23060   0.39592   0.00000  Uiso   1.00
H416   H     0.82929   0.17438   0.35011   0.00000  Uiso   1.00
C417   C     0.24859   0.39993   0.48428   0.00000  Uiso   1.00
C418   C     0.25141   0.60007   0.51572   0.00000  Uiso   1.00
C419   C     0.01441   0.46270   0.39015   0.00000  Uiso   1.00
C420   C     0.48559   0.53730   0.60985   0.00000  Uiso   1.00
C421   C     0.24802   0.34373   0.47576   0.00000  Uiso   1.00
C422   C     0.25198   0.65627   0.52424   0.00000  Uiso   1.00
C423   C     0.16448   0.49983   0.50038   0.00000  Uiso   1.00
C424   C     0.33552   0.50017   0.49962   0.00000  Uiso   1.00
C425   C     0.41157   0.51878   0.55434   0.00000  Uiso   1.00
C426   C     0.08843   0.48121   0.44566   0.00000  Uiso   1.00
C427   C     0.38396   0.50035   0.49930   0.00000  Uiso   1.00
C428   C     0.11604   0.49965   0.50070   0.00000  Uiso   1.00
C429   C     0.40272   0.48164   0.44456   0.00000  Uiso   1.00
C430   C     0.09728   0.51836   0.55544   0.00000  Uiso   1.00
C431   C     0.44902   0.48148   0.44440   0.00000  Uiso   1.00
C432   C     0.05098   0.51852   0.55560   0.00000  Uiso   1.00
C433   C     0.47671   0.50010   0.49985   0.00000  Uiso   1.00
C434   C     0.02329   0.49990   0.50015   0.00000  Uiso   1.00
C435   C     0.45787   0.51883   0.55501   0.00000  Uiso   1.00
C436   C     0.04213   0.48117   0.44499   0.00000  Uiso   1.00
C437   C     0.46806   0.46286   0.38985   0.00000  Uiso   1.00
C438   C     0.03194   0.53714   0.61015   0.00000  Uiso   1.00
Cu439  Cu    0.25501   0.50579   0.56146   0.00000  Uiso   1.00
Cu440  Cu    0.24500   0.49421   0.43854   0.00000  Uiso   1.00
H441   H     0.39709   0.53338   0.59673   0.00000  Uiso   1.00
H442   H     0.10291   0.46662   0.40327   0.00000  Uiso   1.00
H443   H     0.38138   0.46642   0.40228   0.00000  Uiso   1.00
H444   H     0.11862   0.53358   0.59772   0.00000  Uiso   1.00
H445   H     0.44713   0.44856   0.34701   0.00000  Uiso   1.00
H446   H     0.05287   0.55144   0.65299   0.00000  Uiso   1.00
H447   H     0.02858   0.44822   0.34754   0.00000  Uiso   1.00
H448   H     0.47142   0.55178   0.65246   0.00000  Uiso   1.00
H449   H     0.24437   0.65272   0.42927   0.00000  Uiso   1.00
H450   H     0.25563   0.34728   0.57073   0.00000  Uiso   1.00
N451   N     0.23745   0.48547   0.34617   0.00000  Uiso   1.00
N452   N     0.26256   0.51453   0.65383   0.00000  Uiso   1.00
O453   O     0.25326   0.42871   0.53992   0.00000  Uiso   1.00
O454   O     0.24675   0.57129   0.46008   0.00000  Uiso   1.00
O455   O     0.24480   0.41892   0.43612   0.00000  Uiso   1.00
O456   O     0.25520   0.58108   0.56388   0.00000  Uiso   1.00
O457   O     0.18936   0.50488   0.55191   0.00000  Uiso   1.00
O458   O     0.31065   0.49512   0.44809   0.00000  Uiso   1.00
O459   O     0.18090   0.49510   0.44810   0.00000  Uiso   1.00
O460   O     0.31910   0.50490   0.55190   0.00000  Uiso   1.00
C461   C     0.19429   0.46151   0.64969   0.00000  Uiso   1.00
H462   H     0.18049   0.43451   0.34291   0.00000  Uiso   1.00
H463   H     0.17071   0.49229   0.64990   0.00000  Uiso   1.00
H464   H     0.19647   0.43606   0.60408   0.00000  Uiso   1.00
C465   C     0.30571   0.53849   0.35031   0.00000  Uiso   1.00
H466   H     0.31951   0.56549   0.65709   0.00000  Uiso   1.00
H467   H     0.30353   0.56394   0.39592   0.00000  Uiso   1.00
H468   H     0.32929   0.50771   0.35011   0.00000  Uiso   1.00
C469   C     0.74859   0.39993   0.48428   0.00000  Uiso   1.00
C470   C     0.75141   0.60007   0.51572   0.00000  Uiso   1.00
C471   C     0.51441   0.46270   0.39015   0.00000  Uiso   1.00
C472   C     0.98559   0.53730   0.60985   0.00000  Uiso   1.00
C473   C     0.74802   0.34373   0.47576   0.00000  Uiso   1.00
C474   C     0.75198   0.65627   0.52424   0.00000  Uiso   1.00
C475   C     0.66448   0.49983   0.50038   0.00000  Uiso   1.00
C476   C     0.83552   0.50017   0.49962   0.00000  Uiso   1.00
C477   C     0.91157   0.51878   0.55434   0.00000  Uiso   1.00
C478   C     0.58843   0.48121   0.44566   0.00000  Uiso   1.00
C479   C     0.88396   0.50035   0.49930   0.00000  Uiso   1.00
C480   C     0.61604   0.49965   0.50070   0.00000  Uiso   1.00
C481   C     0.90272   0.48164   0.44456   0.00000  Uiso   1.00
C482   C     0.59728   0.51836   0.55544   0.00000  Uiso   1.00
C483   C     0.94902   0.48148   0.44440   0.00000  Uiso   1.00
C484   C     0.55098   0.51852   0.55560   0.00000  Uiso   1.00
C485   C     0.97671   0.50010   0.49985   0.00000  Uiso   1.00
C486   C     0.52329   0.49990   0.50015   0.00000  Uiso   1.00
C487   C     0.95787   0.51883   0.55501   0.00000  Uiso   1.00
C488   C     0.54213   0.48117   0.44499   0.00000  Uiso   1.00
C489   C     0.96806   0.46286   0.38985   0.00000  Uiso   1.00
C490   C     0.53194   0.53714   0.61015   0.00000  Uiso   1.00
Cu491  Cu    0.75501   0.50579   0.56146   0.00000  Uiso   1.00
Cu492  Cu    0.74500   0.49421   0.43854   0.00000  Uiso   1.00
H493   H     0.89709   0.53338   0.59673   0.00000  Uiso   1.00
H494   H     0.60291   0.46662   0.40327   0.00000  Uiso   1.00
H495   H     0.88138   0.46642   0.40228   0.00000  Uiso   1.00
H496   H     0.61862   0.53358   0.59772   0.00000  Uiso   1.00
H497   H     0.94713   0.44856   0.34701   0.00000  Uiso   1.00
H498   H     0.55287   0.55144   0.65299   0.00000  Uiso   1.00
H499   H     0.52858   0.44822   0.34754   0.00000  Uiso   1.00
H500   H     0.97142   0.55178   0.65246   0.00000  Uiso   1.00
H501   H     0.74437   0.65272   0.42927   0.00000  Uiso   1.00
H502   H     0.75563   0.34728   0.57073   0.00000  Uiso   1.00
N503   N     0.73745   0.48547   0.34617   0.00000  Uiso   1.00
N504   N     0.76256   0.51453   0.65383   0.00000  Uiso   1.00
O505   O     0.75326   0.42871   0.53992   0.00000  Uiso   1.00
O506   O     0.74675   0.57129   0.46008   0.00000  Uiso   1.00
O507   O     0.74480   0.41892   0.43612   0.00000  Uiso   1.00
O508   O     0.75520   0.58108   0.56388   0.00000  Uiso   1.00
O509   O     0.68936   0.50488   0.55191   0.00000  Uiso   1.00
O510   O     0.81065   0.49512   0.44809   0.00000  Uiso   1.00
O511   O     0.68090   0.49510   0.44810   0.00000  Uiso   1.00
O512   O     0.81910   0.50490   0.55190   0.00000  Uiso   1.00
C513   C     0.69429   0.46151   0.64969   0.00000  Uiso   1.00
H514   H     0.68049   0.43451   0.34291   0.00000  Uiso   1.00
H515   H     0.67071   0.49229   0.64990   0.00000  Uiso   1.00
H516   H     0.69647   0.43606   0.60408   0.00000  Uiso   1.00
C517   C     0.80571   0.53849   0.35031   0.00000  Uiso   1.00
H518   H     0.81951   0.56549   0.65709   0.00000  Uiso   1.00
H519   H     0.80353   0.56394   0.39592   0.00000  Uiso   1.00
H520   H     0.82929   0.50771   0.35011   0.00000  Uiso   1.00
C521   C     0.24859   0.73327   0.48428   0.00000  Uiso   1.00
C522   C     0.25141   0.93340   0.51572   0.00000  Uiso   1.00
C523   C     0.01441   0.79603   0.39015   0.00000  Uiso   1.00
C524   C     0.48559   0.87064   0.60985   0.00000  Uiso   1.00
C525   C     0.24802   0.67707   0.47576   0.00000  Uiso   1.00
C526   C     0.25198   0.98960   0.52424   0.00000  Uiso   1.00
C527   C     0.16448   0.83316   0.50038   0.00000  Uiso   1.00
C528   C     0.33552   0.83351   0.49962   0.00000  Uiso   1.00
C529   C     0.41157   0.85212   0.55434   0.00000  Uiso   1.00
C530   C     0.08843   0.81455   0.44566   0.00000  Uiso   1.00
C531   C     0.38396   0.83368   0.49930   0.00000  Uiso   1.00
C532   C     0.11604   0.83299   0.50070   0.00000  Uiso   1.00
C533   C     0.40272   0.81497   0.44456   0.00000  Uiso   1.00
C534   C     0.09728   0.85169   0.55544   0.00000  Uiso   1.00
C535   C     0.44902   0.81482   0.44440   0.00000  Uiso   1.00
C536   C     0.05098   0.85185   0.55560   0.00000  Uiso   1.00
C537   C     0.47671   0.83343   0.49985   0.00000  Uiso   1.00
C538   C     0.02329   0.83324   0.50015   0.00000  Uiso   1.00
C539   C     0.45787   0.85216   0.55501   0.00000  Uiso   1.00
C540   C     0.04213   0.81450   0.44499   0.00000  Uiso   1.00
C541   C     0.46806   0.79619   0.38985   0.00000  Uiso   1.00
C542   C     0.03194   0.87048   0.61015   0.00000  Uiso   1.00
Cu543  Cu    0.25501   0.83913   0.56146   0.00000  Uiso   1.00
Cu544  Cu    0.24500   0.82754   0.43854   0.00000  Uiso   1.00
H545   H     0.39709   0.86671   0.59673   0.00000  Uiso   1.00
H546   H     0.10291   0.79995   0.40327   0.00000  Uiso   1.00
H547   H     0.38138   0.79975   0.40228   0.00000  Uiso   1.00
H548   H     0.11862   0.86691   0.59772   0.00000  Uiso   1.00
H549   H     0.44713   0.78189   0.34701   0.00000  Uiso   1.00
H550   H     0.05287   0.88478   0.65299   0.00000  Uiso   1.00
H551   H     0.02858   0.78155   0.34754   0.00000  Uiso   1.00
H552   H     0.47142   0.88512   0.65246   0.00000  Uiso   1.00
H553   H     0.24437   0.98606   0.42927   0.00000  Uiso   1.00
H554   H     0.25563   0.68061   0.57073   0.00000  Uiso   1.00
N555   N     0.23745   0.81881   0.34617   0.00000  Uiso   1.00
N556   N     0.26256   0.84786   0.65383   0.00000  Uiso   1.00
O557   O     0.25326   0.76204   0.53992   0.00000  Uiso   1.00
O558   O     0.24675   0.90462   0.46008   0.00000  Uiso   1.00
O559   O     0.24480   0.75226   0.43612   0.00000  Uiso   1.00
O560   O     0.25520   0.91441   0.56388   0.00000  Uiso   1.00
O561   O     0.18936   0.83821   0.55191   0.00000  Uiso   1.00
O562   O     0.31065   0.82845   0.44809   0.00000  Uiso   1.00
O563   O     0.18090   0.82843   0.44810   0.00000  Uiso   1.00
O564   O     0.31910   0.83824   0.55190   0.00000  Uiso   1.00
C565   C     0.19429   0.79485   0.64969   0.00000  Uiso   1.00
H566   H     0.18049   0.76784   0.34291   0.00000  Uiso   1.00
H567   H     0.17071   0.82562   0.64990   0.00000  Uiso   1.00
H568   H     0.19647   0.76940   0.60408   0.00000  Uiso   1.00
C569   C     0.30571   0.87182   0.35031   0.00000  Uiso   1.00
H570   H     0.31951   0.89883   0.65709   0.00000  Uiso   1.00
H571   H     0.30353   0.89727   0.39592   0.00000  Uiso   1.00
H572   H     0.32929   0.84104   0.35011   0.00000  Uiso   1.00
C573   C     0.74859   0.73327   0.48428   0.00000  Uiso   1.00
C574   C     0.75141   0.93340   0.51572   0.00000  Uiso   1.00
C575   C     0.51441   0.79603   0.39015   0.00000  Uiso   1.00
C576   C     0.98559   0.87064   0.60985   0.00000  Uiso   1.00
C577   C     0.74802   0.67707   0.47576   0.00000  Uiso   1.00
C578   C     0.75198   0.98960   0.52424   0.00000  Uiso   1.00
C579   C     0.66448   0.83316   0.50038   0.00000  Uiso   1.00
C580   C     0.83552   0.83351   0.49962   0.00000  Uiso   1.00
C581   C     0.91157   0.85212   0.55434   0.00000  Uiso   1.00
C582   C     0.58843   0.81455   0.44566   0.00000  Uiso   1.00
C583   C     0.88396   0.83368   0.49930   0.00000  Uiso   1.00
C584   C     0.61604   0.83299   0.50070   0.00000  Uiso   1.00
C585   C     0.90272   0.81497   0.44456   0.00000  Uiso   1.00
C586   C     0.59728   0.85169   0.55544   0.00000  Uiso   1.00
C587   C     0.94902   0.81482   0.44440   0.00000  Uiso   1.00
C588   C     0.55098   0.85185   0.55560   0.00000  Uiso   1.00
C589   C     0.97671   0.83343   0.49985   0.00000  Uiso   1.00
C590   C     0.52329   0.83324   0.50015   0.00000  Uiso   1.00
C591   C     0.95787   0.85216   0.55501   0.00000  Uiso   1.00
C592   C     0.54213   0.81450   0.44499   0.00000  Uiso   1.00
C593   C     0.96806   0.79619   0.38985   0.00000  Uiso   1.00
C594   C     0.53194   0.87048   0.61015   0.00000  Uiso   1.00
Cu595  Cu    0.75501   0.83913   0.56146   0.00000  Uiso   1.00
Cu596  Cu    0.74500   0.82754   0.43854   0.00000  Uiso   1.00
H597   H     0.89709   0.86671   0.59673   0.00000  Uiso   1.00
H598   H     0.60291   0.79995   0.40327   0.00000  Uiso   1.00
H599   H     0.88138   0.79975   0.40228   0.00000  Uiso   1.00
H600   H     0.61862   0.86691   0.59772   0.00000  Uiso   1.00
H601   H     0.94713   0.78189   0.34701   0.00000  Uiso   1.00
H602   H     0.55287   0.88478   0.65299   0.00000  Uiso   1.00
H603   H     0.52858   0.78155   0.34754   0.00000  Uiso   1.00
H604   H     0.97142   0.88512   0.65246   0.00000  Uiso   1.00
H605   H     0.74437   0.98606   0.42927   0.00000  Uiso   1.00
H606   H     0.75563   0.68061   0.57073   0.00000  Uiso   1.00
N607   N     0.73745   0.81881   0.34617   0.00000  Uiso   1.00
N608   N     0.76256   0.84786   0.65383   0.00000  Uiso   1.00
O609   O     0.75326   0.76204   0.53992   0.00000  Uiso   1.00
O610   O     0.74675   0.90462   0.46008   0.00000  Uiso   1.00
O611   O     0.74480   0.75226   0.43612   0.00000  Uiso   1.00
O612   O     0.75520   0.91441   0.56388   0.00000  Uiso   1.00
O613   O     0.68936   0.83821   0.55191   0.00000  Uiso   1.00
O614   O     0.81065   0.82845   0.44809   0.00000  Uiso   1.00
O615   O     0.68090   0.82843   0.44810   0.00000  Uiso   1.00
O616   O     0.81910   0.83824   0.55190   0.00000  Uiso   1.00
C617   C     0.69429   0.79485   0.64969   0.00000  Uiso   1.00
H618   H     0.68049   0.76784   0.34291   0.00000  Uiso   1.00
H619   H     0.67071   0.82562   0.64990   0.00000  Uiso   1.00
H620   H     0.69647   0.76940   0.60408   0.00000  Uiso   1.00
C621   C     0.80571   0.87182   0.35031   0.00000  Uiso   1.00
H622   H     0.81951   0.89883   0.65709   0.00000  Uiso   1.00
H623   H     0.80353   0.89727   0.39592   0.00000  Uiso   1.00
H624   H     0.82929   0.84104   0.35011   0.00000  Uiso   1.00
C625   C     0.24859   0.06660   0.81762   0.00000  Uiso   1.00
C626   C     0.25141   0.26673   0.84905   0.00000  Uiso   1.00
C627   C     0.01441   0.12936   0.72348   0.00000  Uiso   1.00
C628   C     0.48559   0.20397   0.94319   0.00000  Uiso   1.00
C629   C     0.24802   0.01040   0.80909   0.00000  Uiso   1.00
C630   C     0.25198   0.32293   0.85758   0.00000  Uiso   1.00
C631   C     0.16448   0.16649   0.83371   0.00000  Uiso   1.00
C632   C     0.33552   0.16684   0.83296   0.00000  Uiso   1.00
C633   C     0.41157   0.18545   0.88767   0.00000  Uiso   1.00
C634   C     0.08843   0.14788   0.77899   0.00000  Uiso   1.00
C635   C     0.38396   0.16701   0.83263   0.00000  Uiso   1.00
C636   C     0.11604   0.16632   0.83404   0.00000  Uiso   1.00
C637   C     0.40272   0.14831   0.77789   0.00000  Uiso   1.00
C638   C     0.09728   0.18503   0.88877   0.00000  Uiso   1.00
C639   C     0.44902   0.14815   0.77774   0.00000  Uiso   1.00
C640   C     0.05098   0.18518   0.88893   0.00000  Uiso   1.00
C641   C     0.47671   0.16676   0.83318   0.00000  Uiso   1.00
C642   C     0.02329   0.16657   0.83349   0.00000  Uiso   1.00
C643   C     0.45787   0.18550   0.88834   0.00000  Uiso   1.00
C644   C     0.04213   0.14784   0.77833   0.00000  Uiso   1.00
C645   C     0.46806   0.12952   0.72318   0.00000  Uiso   1.00
C646   C     0.03194   0.20381   0.94348   0.00000  Uiso   1.00
Cu647  Cu    0.25501   0.17246   0.89479   0.00000  Uiso   1.00
Cu648  Cu    0.24500   0.16087   0.77187   0.00000  Uiso   1.00
H649   H     0.39709   0.20005   0.93007   0.00000  Uiso   1.00
H650   H     0.10291   0.13329   0.73660   0.00000  Uiso   1.00
H651   H     0.38138   0.13309   0.73561   0.00000  Uiso   1.00
H652   H     0.11862   0.20025   0.93105   0.00000  Uiso   1.00
H653   H     0.44713   0.11522   0.68034   0.00000  Uiso   1.00
H654   H     0.05287   0.21811   0.98632   0.00000  Uiso   1.00
H655   H     0.02858   0.11488   0.68087   0.00000  Uiso   1.00
H656   H     0.47142   0.21845   0.98580   0.00000  Uiso   1.00
H657   H     0.24437   0.31939   0.76260   0.00000  Uiso   1.00
H658   H     0.25563   0.01394   0.90406   0.00000  Uiso   1.00
N659   N     0.23745   0.15214   0.67951   0.00000  Uiso   1.00
N660   N     0.26256   0.18119   0.98716   0.00000  Uiso   1.00
O661   O     0.25326   0.09538   0.87326   0.00000  Uiso   1.00
O662   O     0.24675   0.23796   0.79341   0.00000  Uiso   1.00
O663   O     0.24480   0.08559   0.76945   0.00000  Uiso   1.00
O664   O     0.25520   0.24774   0.89721   0.00000  Uiso   1.00
O665   O     0.18936   0.17155   0.88524   0.00000  Uiso   1.00
O666   O     0.31065   0.16179   0.78143   0.00000  Uiso   1.00
O667   O     0.18090   0.16176   0.78143   0.00000  Uiso   1.00
O668   O     0.31910   0.17157   0.88523   0.00000  Uiso   1.00
C669   C     0.19429   0.12818   0.98303   0.00000  Uiso   1.00
H670   H     0.18049   0.10117   0.67624   0.00000  Uiso   1.00
H671   H     0.17071   0.15896   0.98323   0.00000  Uiso   1.00
H672   H     0.19647   0.10273   0.93741   0.00000  Uiso   1.00
C673   C     0.30571   0.20515   0.68364   0.00000  Uiso   1.00
H674   H     0.31951   0.23216   0.99043   0.00000  Uiso   1.00
H675   H     0.30353   0.23060   0.72926   0.00000  Uiso   1.00
H676   H     0.32929   0.17438   0.68344   0.00000  Uiso   1.00
C677   C     0.74859   0.06660   0.81762   0.00000  Uiso   1.00
C678   C     0.75141   0.26673   0.84905   0.00000  Uiso   1.00
C679   C     0.51441   0.12936   0.72348   0.00000  Uiso   1.00
C680   C     0.98559   0.20397   0.94319   0.00000  Uiso   1.00
C681   C     0.74802   0.01040   0.80909   0.00000  Uiso   1.00
C682   C     0.75198   0.32293   0.85758   0.00000  Uiso   1.00
C683   C     0.66448   0.16649   0.83371   0.00000  Uiso   1.00
C684   C     0.83552   0.16684   0.83296   0.00000  Uiso   1.00
C685   C     0.91157   0.18545   0.88767   0.00000  Uiso   1.00
C686   C     0.58843   0.14788   0.77899   0.00000  Uiso   1.00
C687   C     0.88396   0.16701   0.83263   0.00000  Uiso   1.00
C688   C     0.61604   0.16632   0.83404   0.00000  Uiso   1.00
C689   C     0.90272   0.14831   0.77789   0.00000  Uiso   1.00
C690   C     0.59728   0.18503   0.88877   0.00000  Uiso   1.00
C691   C     0.94902   0.14815   0.77774   0.00000  Uiso   1.00
C692   C     0.55098   0.18518   0.88893   0.00000  Uiso   1.00
C693   C     0.97671   0.16676   0.83318   0.00000  Uiso   1.00
C694   C     0.52329   0.16657   0.83349   0.00000  Uiso   1.00
C695   C     0.95787   0.18550   0.88834   0.00000  Uiso   1.00
C696   C     0.54213   0.14784   0.77833   0.00000  Uiso   1.00
C697   C     0.96806   0.12952   0.72318   0.00000  Uiso   1.00
C698   C     0.53194   0.20381   0.94348   0.00000  Uiso   1.00
Cu699  Cu    0.75501   0.17246   0.89479   0.00000  Uiso   1.00
Cu700  Cu    0.74500   0.16087   0.77187   0.00000  Uiso   1.00
H701   H     0.89709   0.20005   0.93007   0.00000  Uiso   1.00
H702   H     0.60291   0.13329   0.73660   0.00000  Uiso   1.00
H703   H     0.88138   0.13309   0.73561   0.00000  Uiso   1.00
H704   H     0.61862   0.20025   0.93105   0.00000  Uiso   1.00
H705   H     0.94713   0.11522   0.68034   0.00000  Uiso   1.00
H706   H     0.55287   0.21811   0.98632   0.00000  Uiso   1.00
H707   H     0.52858   0.11488   0.68087   0.00000  Uiso   1.00
H708   H     0.97142   0.21845   0.98580   0.00000  Uiso   1.00
H709   H     0.74437   0.31939   0.76260   0.00000  Uiso   1.00
H710   H     0.75563   0.01394   0.90406   0.00000  Uiso   1.00
N711   N     0.73745   0.15214   0.67951   0.00000  Uiso   1.00
N712   N     0.76256   0.18119   0.98716   0.00000  Uiso   1.00
O713   O     0.75326   0.09538   0.87326   0.00000  Uiso   1.00
O714   O     0.74675   0.23796   0.79341   0.00000  Uiso   1.00
O715   O     0.74480   0.08559   0.76945   0.00000  Uiso   1.00
O716   O     0.75520   0.24774   0.89721   0.00000  Uiso   1.00
O717   O     0.68936   0.17155   0.88524   0.00000  Uiso   1.00
O718   O     0.81065   0.16179   0.78143   0.00000  Uiso   1.00
O719   O     0.68090   0.16176   0.78143   0.00000  Uiso   1.00
O720   O     0.81910   0.17157   0.88523   0.00000  Uiso   1.00
C721   C     0.69429   0.12818   0.98303   0.00000  Uiso   1.00
H722   H     0.68049   0.10117   0.67624   0.00000  Uiso   1.00
H723   H     0.67071   0.15896   0.98323   0.00000  Uiso   1.00
H724   H     0.69647   0.10273   0.93741   0.00000  Uiso   1.00
C725   C     0.80571   0.20515   0.68364   0.00000  Uiso   1.00
H726   H     0.81951   0.23216   0.99043   0.00000  Uiso   1.00
H727   H     0.80353   0.23060   0.72926   0.00000  Uiso   1.00
H728   H     0.82929   0.17438   0.68344   0.00000  Uiso   1.00
C729   C     0.24859   0.39993   0.81762   0.00000  Uiso   1.00
C730   C     0.25141   0.60007   0.84905   0.00000  Uiso   1.00
C731   C     0.01441   0.46270   0.72348   0.00000  Uiso   1.00
C732   C     0.48559   0.53730   0.94319   0.00000  Uiso   1.00
C733   C     0.24802   0.34373   0.80909   0.00000  Uiso   1.00
C734   C     0.25198   0.65627   0.85758   0.00000  Uiso   1.00
C735   C     0.16448   0.49983   0.83371   0.00000  Uiso   1.00
C736   C     0.33552   0.50017   0.83296   0.00000  Uiso   1.00
C737   C     0.41157   0.51878   0.88767   0.00000  Uiso   1.00
C738   C     0.08843   0.48121   0.77899   0.00000  Uiso   1.00
C739   C     0.38396   0.50035   0.83263   0.00000  Uiso   1.00
C740   C     0.11604   0.49965   0.83404   0.00000  Uiso   1.00
C741   C     0.40272   0.48164   0.77789   0.00000  Uiso   1.00
C742   C     0.09728   0.51836   0.88877   0.00000  Uiso   1.00
C743   C     0.44902   0.48148   0.77774   0.00000  Uiso   1.00
C744   C     0.05098   0.51852   0.88893   0.00000  Uiso   1.00
C745   C     0.47671   0.50010   0.83318   0.00000  Uiso   1.00
C746   C     0.02329   0.49990   0.83349   0.00000  Uiso   1.00
C747   C     0.45787   0.51883   0.88834   0.00000  Uiso   1.00
C748   C     0.04213   0.48117   0.77833   0.00000  Uiso   1.00
C749   C     0.46806   0.46286   0.72318   0.00000  Uiso   1.00
C750   C     0.03194   0.53714   0.94348   0.00000  Uiso   1.00
Cu751  Cu    0.25501   0.50579   0.89479   0.00000  Uiso   1.00
Cu752  Cu    0.24500   0.49421   0.77187   0.00000  Uiso   1.00
H753   H     0.39709   0.53338   0.93007   0.00000  Uiso   1.00
H754   H     0.10291   0.46662   0.73660   0.00000  Uiso   1.00
H755   H     0.38138   0.46642   0.73561   0.00000  Uiso   1.00
H756   H     0.11862   0.53358   0.93105   0.00000  Uiso   1.00
H757   H     0.44713   0.44856   0.68034   0.00000  Uiso   1.00
H758   H     0.05287   0.55144   0.98632   0.00000  Uiso   1.00
H759   H     0.02858   0.44822   0.68087   0.00000  Uiso   1.00
H760   H     0.47142   0.55178   0.98580   0.00000  Uiso   1.00
H761   H     0.24437   0.65272   0.76260   0.00000  Uiso   1.00
H762   H     0.25563   0.34728   0.90406   0.00000  Uiso   1.00
N763   N     0.23745   0.48547   0.67951   0.00000  Uiso   1.00
N764   N     0.26256   0.51453   0.98716   0.00000  Uiso   1.00
O765   O     0.25326   0.42871   0.87326   0.00000  Uiso   1.00
O766   O     0.24675   0.57129   0.79341   0.00000  Uiso   1.00
O767   O     0.24480   0.41892   0.76945   0.00000  Uiso   1.00
O768   O     0.25520   0.58108   0.89721   0.00000  Uiso   1.00
O769   O     0.18936   0.50488   0.88524   0.00000  Uiso   1.00
O770   O     0.31065   0.49512   0.78143   0.00000  Uiso   1.00
O771   O     0.18090   0.49510   0.78143   0.00000  Uiso   1.00
O772   O     0.31910   0.50490   0.88523   0.00000  Uiso   1.00
C773   C     0.19429   0.46151   0.98303   0.00000  Uiso   1.00
H774   H     0.18049   0.43451   0.67624   0.00000  Uiso   1.00
H775   H     0.17071   0.49229   0.98323   0.00000  Uiso   1.00
H776   H     0.19647   0.43606   0.93741   0.00000  Uiso   1.00
C777   C     0.30571   0.53849   0.68364   0.00000  Uiso   1.00
H778   H     0.31951   0.56549   0.99043   0.00000  Uiso   1.00
H779   H     0.30353   0.56394   0.72926   0.00000  Uiso   1.00
H780   H     0.32929   0.50771   0.68344   0.00000  Uiso   1.00
C781   C     0.74859   0.39993   0.81762   0.00000  Uiso   1.00
C782   C     0.75141   0.60007   0.84905   0.00000  Uiso   1.00
C783   C     0.51441   0.46270   0.72348   0.00000  Uiso   1.00
C784   C     0.98559   0.53730   0.94319   0.00000  Uiso   1.00
C785   C     0.74802   0.34373   0.80909   0.00000  Uiso   1.00
C786   C     0.75198   0.65627   0.85758   0.00000  Uiso   1.00
C787   C     0.66448   0.49983   0.83371   0.00000  Uiso   1.00
C788   C     0.83552   0.50017   0.83296   0.00000  Uiso   1.00
C789   C     0.91157   0.51878   0.88767   0.00000  Uiso   1.00
C790   C     0.58843   0.48121   0.77899   0.00000  Uiso   1.00
C791   C     0.88396   0.50035   0.83263   0.00000  Uiso   1.00
C792   C     0.61604   0.49965   0.83404   0.00000  Uiso   1.00
C793   C     0.90272   0.48164   0.77789   0.00000  Uiso   1.00
C794   C     0.59728   0.51836   0.88877   0.00000  Uiso   1.00
C795   C     0.94902   0.48148   0.77774   0.00000  Uiso   1.00
C796   C     0.55098   0.51852   0.88893   0.00000  Uiso   1.00
C797   C     0.97671   0.50010   0.83318   0.00000  Uiso   1.00
C798   C     0.52329   0.49990   0.83349   0.00000  Uiso   1.00
C799   C     0.95787   0.51883   0.88834   0.00000  Uiso   1.00
C800   C     0.54213   0.48117   0.77833   0.00000  Uiso   1.00
C801   C     0.96806   0.46286   0.72318   0.00000  Uiso   1.00
C802   C     0.53194   0.53714   0.94348   0.00000  Uiso   1.00
Cu803  Cu    0.75501   0.50579   0.89479   0.00000  Uiso   1.00
Cu804  Cu    0.74500   0.49421   0.77187   0.00000  Uiso   1.00
H805   H     0.89709   0.53338   0.93007   0.00000  Uiso   1.00
H806   H     0.60291   0.46662   0.73660   0.00000  Uiso   1.00
H807   H     0.88138   0.46642   0.73561   0.00000  Uiso   1.00
H808   H     0.61862   0.53358   0.93105   0.00000  Uiso   1.00
H809   H     0.94713   0.44856   0.68034   0.00000  Uiso   1.00
H810   H     0.55287   0.55144   0.98632   0.00000  Uiso   1.00
H811   H     0.52858   0.44822   0.68087   0.00000  Uiso   1.00
H812   H     0.97142   0.55178   0.98580   0.00000  Uiso   1.00
H813   H     0.74437   0.65272   0.76260   0.00000  Uiso   1.00
H814   H     0.75563   0.34728   0.90406   0.00000  Uiso   1.00
N815   N     0.73745   0.48547   0.67951   0.00000  Uiso   1.00
N816   N     0.76256   0.51453   0.98716   0.00000  Uiso   1.00
O817   O     0.75326   0.42871   0.87326   0.00000  Uiso   1.00
O818   O     0.74675   0.57129   0.79341   0.00000  Uiso   1.00
O819   O     0.74480   0.41892   0.76945   0.00000  Uiso   1.00
O820   O     0.75520   0.58108   0.89721   0.00000  Uiso   1.00
O821   O     0.68936   0.50488   0.88524   0.00000  Uiso   1.00
O822   O     0.81065   0.49512   0.78143   0.00000  Uiso   1.00
O823   O     0.68090   0.49510   0.78143   0.00000  Uiso   1.00
O824   O     0.81910   0.50490   0.88523   0.00000  Uiso   1.00
C825   C     0.69429   0.46151   0.98303   0.00000  Uiso   1.00
H826   H     0.68049   0.43451   0.67624   0.00000  Uiso   1.00
H827   H     0.67071   0.49229   0.98323   0.00000  Uiso   1.00
H828   H     0.69647   0.43606   0.93741   0.00000  Uiso   1.00
C829   C     0.80571   0.53849   0.68364   0.00000  Uiso   1.00
H830   H     0.81951   0.56549   0.99043   0.00000  Uiso   1.00
H831   H     0.80353   0.56394   0.72926   0.00000  Uiso   1.00
H832   H     0.82929   0.50771   0.68344   0.00000  Uiso   1.00
C833   C     0.24859   0.73327   0.81762   0.00000  Uiso   1.00
C834   C     0.25141   0.93340   0.84905   0.00000  Uiso   1.00
C835   C     0.01441   0.79603   0.72348   0.00000  Uiso   1.00
C836   C     0.48559   0.87064   0.94319   0.00000  Uiso   1.00
C837   C     0.24802   0.67707   0.80909   0.00000  Uiso   1.00
C838   C     0.25198   0.98960   0.85758   0.00000  Uiso   1.00
C839   C     0.16448   0.83316   0.83371   0.00000  Uiso   1.00
C840   C     0.33552   0.83351   0.83296   0.00000  Uiso   1.00
C841   C     0.41157   0.85212   0.88767   0.00000  Uiso   1.00
C842   C     0.08843   0.81455   0.77899   0.00000  Uiso   1.00
C843   C     0.38396   0.83368   0.83263   0.00000  Uiso   1.00
C844   C     0.11604   0.83299   0.83404   0.00000  Uiso   1.00
C845   C     0.40272   0.81497   0.77789   0.00000  Uiso   1.00
C846   C     0.09728   0.85169   0.88877   0.00000  Uiso   1.00
C847   C     0.44902   0.81482   0.77774   0.00000  Uiso   1.00
C848   C     0.05098   0.85185   0.88893   0.00000  Uiso   1.00
C849   C     0.47671   0.83343   0.83318   0.00000  Uiso   1.00
C850   C     0.02329   0.83324   0.83349   0.00000  Uiso   1.00
C851   C     0.45787   0.85216   0.88834   0.00000  Uiso   1.00
C852   C     0.04213   0.81450   0.77833   0.00000  Uiso   1.00
C853   C     0.46806   0.79619   0.72318   0.00000  Uiso   1.00
C854   C     0.03194   0.87048   0.94348   0.00000  Uiso   1.00
Cu855  Cu    0.25501   0.83913   0.89479   0.00000  Uiso   1.00
Cu856  Cu    0.24500   0.82754   0.77187   0.00000  Uiso   1.00
H857   H     0.39709   0.86671   0.93007   0.00000  Uiso   1.00
H858   H     0.10291   0.79995   0.73660   0.00000  Uiso   1.00
H859   H     0.38138   0.79975   0.73561   0.00000  Uiso   1.00
H860   H     0.11862   0.86691   0.93105   0.00000  Uiso   1.00
H861   H     0.44713   0.78189   0.68034   0.00000  Uiso   1.00
H862   H     0.05287   0.88478   0.98632   0.00000  Uiso   1.00
H863   H     0.02858   0.78155   0.68087   0.00000  Uiso   1.00
H864   H     0.47142   0.88512   0.98580   0.00000  Uiso   1.00
H865   H     0.24437   0.98606   0.76260   0.00000  Uiso   1.00
H866   H     0.25563   0.68061   0.90406   0.00000  Uiso   1.00
N867   N     0.23745   0.81881   0.67951   0.00000  Uiso   1.00
N868   N     0.26256   0.84786   0.98716   0.00000  Uiso   1.00
O869   O     0.25326   0.76204   0.87326   0.00000  Uiso   1.00
O870   O     0.24675   0.90462   0.79341   0.00000  Uiso   1.00
O871   O     0.24480   0.75226   0.76945   0.00000  Uiso   1.00
O872   O     0.25520   0.91441   0.89721   0.00000  Uiso   1.00
O873   O     0.18936   0.83821   0.88524   0.00000  Uiso   1.00
O874   O     0.31065   0.82845   0.78143   0.00000  Uiso   1.00
O875   O     0.18090   0.82843   0.78143   0.00000  Uiso   1.00
O876   O     0.31910   0.83824   0.88523   0.00000  Uiso   1.00
C877   C     0.19429   0.79485   0.98303   0.00000  Uiso   1.00
H878   H     0.18049   0.76784   0.67624   0.00000  Uiso   1.00
H879   H     0.17071   0.82562   0.98323   0.00000  Uiso   1.00
H880   H     0.19647   0.76940   0.93741   0.00000  Uiso   1.00
C881   C     0.30571   0.87182   0.68364   0.00000  Uiso   1.00
H882   H     0.31951   0.89883   0.99043   0.00000  Uiso   1.00
H883   H     0.30353   0.89727   0.72926   0.00000  Uiso   1.00
H884   H     0.32929   0.84104   0.68344   0.00000  Uiso   1.00
C885   C     0.74859   0.73327   0.81762   0.00000  Uiso   1.00
C886   C     0.75141   0.93340   0.84905   0.00000  Uiso   1.00
C887   C     0.51441   0.79603   0.72348   0.00000  Uiso   1.00
C888   C     0.98559   0.87064   0.94319   0.00000  Uiso   1.00
C889   C     0.74802   0.67707   0.80909   0.00000  Uiso   1.00
C890   C     0.75198   0.98960   0.85758   0.00000  Uiso   1.00
C891   C     0.66448   0.83316   0.83371   0.00000  Uiso   1.00
C892   C     0.83552   0.83351   0.83296   0.00000  Uiso   1.00
C893   C     0.91157   0.85212   0.88767   0.00000  Uiso   1.00
C894   C     0.58843   0.81455   0.77899   0.00000  Uiso   1.00
C895   C     0.88396   0.83368   0.83263   0.00000  Uiso   1.00
C896   C     0.61604   0.83299   0.83404   0.00000  Uiso   1.00
C897   C     0.90272   0.81497   0.77789   0.00000  Uiso   1.00
C898   C     0.59728   0.85169   0.88877   0.00000  Uiso   1.00
C899   C     0.94902   0.81482   0.77774   0.00000  Uiso   1.00
C900   C     0.55098   0.85185   0.88893   0.00000  Uiso   1.00
C901   C     0.97671   0.83343   0.83318   0.00000  Uiso   1.00
C902   C     0.52329   0.83324   0.83349   0.00000  Uiso   1.00
C903   C     0.95787   0.85216   0.88834   0.00000  Uiso   1.00
C904   C     0.54213   0.81450   0.77833   0.00000  Uiso   1.00
C905   C     0.96806   0.79619   0.72318   0.00000  Uiso   1.00
C906   C     0.53194   0.87048   0.94348   0.00000  Uiso   1.00
Cu907  Cu    0.75501   0.83913   0.89479   0.00000  Uiso   1.00
Cu908  Cu    0.74500   0.82754   0.77187   0.00000  Uiso   1.00
H909   H     0.89709   0.86671   0.93007   0.00000  Uiso   1.00
H910   H     0.60291   0.79995   0.73660   0.00000  Uiso   1.00
H911   H     0.88138   0.79975   0.73561   0.00000  Uiso   1.00
H912   H     0.61862   0.86691   0.93105   0.00000  Uiso   1.00
H913   H     0.94713   0.78189   0.68034   0.00000  Uiso   1.00
H914   H     0.55287   0.88478   0.98632   0.00000  Uiso   1.00
H915   H     0.52858   0.78155   0.68087   0.00000  Uiso   1.00
H916   H     0.97142   0.88512   0.98580   0.00000  Uiso   1.00
H917   H     0.74437   0.98606   0.76260   0.00000  Uiso   1.00
H918   H     0.75563   0.68061   0.90406   0.00000  Uiso   1.00
N919   N     0.73745   0.81881   0.67951   0.00000  Uiso   1.00
N920   N     0.76256   0.84786   0.98716   0.00000  Uiso   1.00
O921   O     0.75326   0.76204   0.87326   0.00000  Uiso   1.00
O922   O     0.74675   0.90462   0.79341   0.00000  Uiso   1.00
O923   O     0.74480   0.75226   0.76945   0.00000  Uiso   1.00
O924   O     0.75520   0.91441   0.89721   0.00000  Uiso   1.00
O925   O     0.68936   0.83821   0.88524   0.00000  Uiso   1.00
O926   O     0.81065   0.82845   0.78143   0.00000  Uiso   1.00
O927   O     0.68090   0.82843   0.78143   0.00000  Uiso   1.00
O928   O     0.81910   0.83824   0.88523   0.00000  Uiso   1.00
C929   C     0.69429   0.79485   0.98303   0.00000  Uiso   1.00
H930   H     0.68049   0.76784   0.67624   0.00000  Uiso   1.00
H931   H     0.67071   0.82562   0.98323   0.00000  Uiso   1.00
H932   H     0.69647   0.76940   0.93741   0.00000  Uiso   1.00
C933   C     0.80571   0.87182   0.68364   0.00000  Uiso   1.00
H934   H     0.81951   0.89883   0.99043   0.00000  Uiso   1.00
H935   H     0.80353   0.89727   0.72926   0.00000  Uiso   1.00
H936   H     0.82929   0.84104   0.68344   0.00000  Uiso   1.00
loop_
_geom_bond_atom_site_label_1
_geom_bond_atom_site_label_2
_geom_bond_distance
_geom_bond_site_symmetry_2
_ccdc_geom_bond_type
C1     O37     1.298   .     A
C1     C5      1.432   .     S
C1     O39     1.300   .     A
C2     O38     1.298   .     A
C2     C6      1.432   .     S
C2     O40     1.300   .     A
C3     C20     1.402   .     A
C3     H31     1.084   .     S
C3     C73     1.393   1_455 S
C4     H32     1.084   .     S
C4     C19     1.402   .     A
C4     C74     1.393   .     S
C5     C214    1.335   1_545 S
C5     H241    1.087   1_545 S
C6     C109    1.335   .     S
C6     H138    1.087   .     S
C7     O43     1.302   .     A
C7     O41     1.308   .     A
C7     C12     1.457   .     S
C8     O44     1.302   .     A
C8     C11     1.457   .     S
C8     O42     1.308   .     A
C9     C11     1.403   .     A
C9     H25     1.085   .     S
C9     C19     1.391   .     A
C10    H26     1.085   .     S
C10    C12     1.403   .     A
C10    C20     1.391   .     A
C11    C13     1.401   .     A
C12    C14     1.401   .     A
C13    C15     1.392   .     A
C13    H27     1.083   .     S
C14    C16     1.392   .     A
C14    H28     1.083   .     S
C15    C21     1.401   .     A
C15    C17     1.412   .     A
C16    C18     1.412   .     A
C16    C22     1.401   .     A
C17    C19     1.410   .     A
C17    C70     1.400   .     S
C18    C20     1.410   .     A
C18    C69     1.400   1_455 S
C21    H29     1.084   .     S
C21    C55     1.393   .     S
C22    H30     1.084   .     S
C22    C56     1.393   1_455 S
Cu23   Cu24    2.718   .     S
Cu23   O41     1.966   .     S
Cu23   O40     1.952   .     S
Cu23   N36     2.043   .     S
Cu23   O37     1.952   .     S
Cu23   O44     1.958   .     S
Cu24   O38     1.952   .     S
Cu24   N35     2.043   .     S
Cu24   O39     1.952   .     S
Cu24   O42     1.966   .     S
Cu24   O43     1.958   .     S
H33    C109    1.087   .     S
H34    C214    1.087   1_545 S
N35    N660    1.296   1_554 S
N35    C669    1.441   1_554 S
N36    N347    1.296   .     S
N36    C361    1.441   .     S
C45    H47     1.107   .     S
C45    H48     1.100   .     S
C45    N347    1.441   .     S
C45    H358    1.108   .     S
H46    C669    1.108   1_554 S
C49    H52     1.107   .     S
C49    H51     1.100   .     S
C49    N660    1.441   1_554 S
C49    H674    1.108   1_554 S
H50    C361    1.108   .     S
C53    O89     1.298   .     A
C53    C57     1.432   .     S
C53    O91     1.300   .     A
C54    O90     1.298   .     A
C54    C58     1.432   .     S
C54    O92     1.300   .     A
C55    C72     1.402   .     A
C55    H83     1.084   .     S
C56    H84     1.084   .     S
C56    C71     1.402   .     A
C56    C22     1.393   1_655 S
C57    C266    1.335   1_545 S
C57    H293    1.087   1_545 S
C58    C161    1.335   .     S
C58    H190    1.087   .     S
C59    O95     1.302   .     A
C59    O93     1.308   .     A
C59    C64     1.457   .     S
C60    O96     1.302   .     A
C60    C63     1.457   .     S
C60    O94     1.308   .     A
C61    C63     1.403   .     A
C61    H77     1.085   .     S
C61    C71     1.391   .     A
C62    H78     1.085   .     S
C62    C64     1.403   .     A
C62    C72     1.391   .     A
C63    C65     1.401   .     A
C64    C66     1.401   .     A
C65    C67     1.392   .     A
C65    H79     1.083   .     S
C66    C68     1.392   .     A
C66    H80     1.083   .     S
C67    C73     1.401   .     A
C67    C69     1.412   .     A
C68    C70     1.412   .     A
C68    C74     1.401   .     A
C69    C71     1.410   .     A
C69    C18     1.400   1_655 S
C70    C72     1.410   .     A
C73    H81     1.084   .     S
C73    C3      1.393   1_655 S
C74    H82     1.084   .     S
Cu75   Cu76    2.718   .     S
Cu75   O93     1.966   .     S
Cu75   O92     1.952   .     S
Cu75   N88     2.043   .     S
Cu75   O89     1.952   .     S
Cu75   O96     1.958   .     S
Cu76   O90     1.952   .     S
Cu76   N87     2.043   .     S
Cu76   O91     1.952   .     S
Cu76   O94     1.966   .     S
Cu76   O95     1.958   .     S
H85    C161    1.087   .     S
H86    C266    1.087   1_545 S
N87    N712    1.296   1_554 S
N87    C721    1.441   1_554 S
N88    N399    1.296   .     S
N88    C413    1.441   .     S
C97    H99     1.107   .     S
C97    H100    1.100   .     S
C97    N399    1.441   .     S
C97    H410    1.108   .     S
H98    C721    1.108   1_554 S
C101   H104    1.107   .     S
C101   H103    1.100   .     S
C101   N712    1.441   1_554 S
C101   H726    1.108   1_554 S
H102   C413    1.108   .     S
C105   O141    1.298   .     A
C105   C109    1.432   .     S
C105   O143    1.300   .     A
C106   O142    1.298   .     A
C106   C110    1.432   .     S
C106   O144    1.300   .     A
C107   C124    1.402   .     A
C107   H135    1.084   .     S
C107   C177    1.393   1_455 S
C108   H136    1.084   .     S
C108   C123    1.402   .     A
C108   C178    1.393   .     S
C110   C213    1.335   .     S
C110   H242    1.087   .     S
C111   O147    1.302   .     A
C111   O145    1.308   .     A
C111   C116    1.457   .     S
C112   O148    1.302   .     A
C112   C115    1.457   .     S
C112   O146    1.308   .     A
C113   C115    1.403   .     A
C113   H129    1.085   .     S
C113   C123    1.391   .     A
C114   H130    1.085   .     S
C114   C116    1.403   .     A
C114   C124    1.391   .     A
C115   C117    1.401   .     A
C116   C118    1.401   .     A
C117   C119    1.392   .     A
C117   H131    1.083   .     S
C118   C120    1.392   .     A
C118   H132    1.083   .     S
C119   C125    1.401   .     A
C119   C121    1.412   .     A
C120   C122    1.412   .     A
C120   C126    1.401   .     A
C121   C123    1.410   .     A
C121   C174    1.400   .     S
C122   C124    1.410   .     A
C122   C173    1.400   1_455 S
C125   H133    1.084   .     S
C125   C159    1.393   .     S
C126   H134    1.084   .     S
C126   C160    1.393   1_455 S
Cu127  Cu128   2.718   .     S
Cu127  O145    1.966   .     S
Cu127  O144    1.952   .     S
Cu127  N140    2.043   .     S
Cu127  O141    1.952   .     S
Cu127  O148    1.958   .     S
Cu128  O142    1.952   .     S
Cu128  N139    2.043   .     S
Cu128  O143    1.952   .     S
Cu128  O146    1.966   .     S
Cu128  O147    1.958   .     S
H137   C213    1.087   .     S
N139   N764    1.296   1_554 S
N139   C773    1.441   1_554 S
N140   N451    1.296   .     S
N140   C465    1.441   .     S
C149   H151    1.107   .     S
C149   H152    1.100   .     S
C149   N451    1.441   .     S
C149   H462    1.108   .     S
H150   C773    1.108   1_554 S
C153   H156    1.107   .     S
C153   H155    1.100   .     S
C153   N764    1.441   1_554 S
C153   H778    1.108   1_554 S
H154   C465    1.108   .     S
C157   O193    1.298   .     A
C157   C161    1.432   .     S
C157   O195    1.300   .     A
C158   O194    1.298   .     A
C158   C162    1.432   .     S
C158   O196    1.300   .     A
C159   C176    1.402   .     A
C159   H187    1.084   .     S
C160   H188    1.084   .     S
C160   C175    1.402   .     A
C160   C126    1.393   1_655 S
C162   C265    1.335   .     S
C162   H294    1.087   .     S
C163   O199    1.302   .     A
C163   O197    1.308   .     A
C163   C168    1.457   .     S
C164   O200    1.302   .     A
C164   C167    1.457   .     S
C164   O198    1.308   .     A
C165   C167    1.403   .     A
C165   H181    1.085   .     S
C165   C175    1.391   .     A
C166   H182    1.085   .     S
C166   C168    1.403   .     A
C166   C176    1.391   .     A
C167   C169    1.401   .     A
C168   C170    1.401   .     A
C169   C171    1.392   .     A
C169   H183    1.083   .     S
C170   C172    1.392   .     A
C170   H184    1.083   .     S
C171   C177    1.401   .     A
C171   C173    1.412   .     A
C172   C174    1.412   .     A
C172   C178    1.401   .     A
C173   C175    1.410   .     A
C173   C122    1.400   1_655 S
C174   C176    1.410   .     A
C177   H185    1.084   .     S
C177   C107    1.393   1_655 S
C178   H186    1.084   .     S
Cu179  Cu180   2.718   .     S
Cu179  O197    1.966   .     S
Cu179  O196    1.952   .     S
Cu179  N192    2.043   .     S
Cu179  O193    1.952   .     S
Cu179  O200    1.958   .     S
Cu180  O194    1.952   .     S
Cu180  N191    2.043   .     S
Cu180  O195    1.952   .     S
Cu180  O198    1.966   .     S
Cu180  O199    1.958   .     S
H189   C265    1.087   .     S
N191   N816    1.296   1_554 S
N191   C825    1.441   1_554 S
N192   N503    1.296   .     S
N192   C517    1.441   .     S
C201   H203    1.107   .     S
C201   H204    1.100   .     S
C201   N503    1.441   .     S
C201   H514    1.108   .     S
H202   C825    1.108   1_554 S
C205   H208    1.107   .     S
C205   H207    1.100   .     S
C205   N816    1.441   1_554 S
C205   H830    1.108   1_554 S
H206   C517    1.108   .     S
C209   O245    1.298   .     A
C209   C213    1.432   .     S
C209   O247    1.300   .     A
C210   O246    1.298   .     A
C210   C214    1.432   .     S
C210   O248    1.300   .     A
C211   C228    1.402   .     A
C211   H239    1.084   .     S
C211   C281    1.393   1_455 S
C212   H240    1.084   .     S
C212   C227    1.402   .     A
C212   C282    1.393   .     S
C214   C5      1.335   1_565 S
C214   H34     1.087   1_565 S
C215   O251    1.302   .     A
C215   O249    1.308   .     A
C215   C220    1.457   .     S
C216   O252    1.302   .     A
C216   C219    1.457   .     S
C216   O250    1.308   .     A
C217   C219    1.403   .     A
C217   H233    1.085   .     S
C217   C227    1.391   .     A
C218   H234    1.085   .     S
C218   C220    1.403   .     A
C218   C228    1.391   .     A
C219   C221    1.401   .     A
C220   C222    1.401   .     A
C221   C223    1.392   .     A
C221   H235    1.083   .     S
C222   C224    1.392   .     A
C222   H236    1.083   .     S
C223   C229    1.401   .     A
C223   C225    1.412   .     A
C224   C226    1.412   .     A
C224   C230    1.401   .     A
C225   C227    1.410   .     A
C225   C278    1.400   .     S
C226   C228    1.410   .     A
C226   C277    1.400   1_455 S
C229   H237    1.084   .     S
C229   C263    1.393   .     S
C230   H238    1.084   .     S
C230   C264    1.393   1_455 S
Cu231  Cu232   2.718   .     S
Cu231  O249    1.966   .     S
Cu231  O248    1.952   .     S
Cu231  N244    2.043   .     S
Cu231  O245    1.952   .     S
Cu231  O252    1.958   .     S
Cu232  O246    1.952   .     S
Cu232  N243    2.043   .     S
Cu232  O247    1.952   .     S
Cu232  O250    1.966   .     S
Cu232  O251    1.958   .     S
H241   C5      1.087   1_565 S
N243   N868    1.296   1_554 S
N243   C877    1.441   1_554 S
N244   N555    1.296   .     S
N244   C569    1.441   .     S
C253   H255    1.107   .     S
C253   H256    1.100   .     S
C253   N555    1.441   .     S
C253   H566    1.108   .     S
H254   C877    1.108   1_554 S
C257   H260    1.107   .     S
C257   H259    1.100   .     S
C257   N868    1.441   1_554 S
C257   H882    1.108   1_554 S
H258   C569    1.108   .     S
C261   O297    1.298   .     A
C261   C265    1.432   .     S
C261   O299    1.300   .     A
C262   O298    1.298   .     A
C262   C266    1.432   .     S
C262   O300    1.300   .     A
C263   C280    1.402   .     A
C263   H291    1.084   .     S
C264   H292    1.084   .     S
C264   C279    1.402   .     A
C264   C230    1.393   1_655 S
C266   C57     1.335   1_565 S
C266   H86     1.087   1_565 S
C267   O303    1.302   .     A
C267   O301    1.308   .     A
C267   C272    1.457   .     S
C268   O304    1.302   .     A
C268   C271    1.457   .     S
C268   O302    1.308   .     A
C269   C271    1.403   .     A
C269   H285    1.085   .     S
C269   C279    1.391   .     A
C270   H286    1.085   .     S
C270   C272    1.403   .     A
C270   C280    1.391   .     A
C271   C273    1.401   .     A
C272   C274    1.401   .     A
C273   C275    1.392   .     A
C273   H287    1.083   .     S
C274   C276    1.392   .     A
C274   H288    1.083   .     S
C275   C281    1.401   .     A
C275   C277    1.412   .     A
C276   C278    1.412   .     A
C276   C282    1.401   .     A
C277   C279    1.410   .     A
C277   C226    1.400   1_655 S
C278   C280    1.410   .     A
C281   H289    1.084   .     S
C281   C211    1.393   1_655 S
C282   H290    1.084   .     S
Cu283  Cu284   2.718   .     S
Cu283  O301    1.966   .     S
Cu283  O300    1.952   .     S
Cu283  N296    2.043   .     S
Cu283  O297    1.952   .     S
Cu283  O304    1.958   .     S
Cu284  O298    1.952   .     S
Cu284  N295    2.043   .     S
Cu284  O299    1.952   .     S
Cu284  O302    1.966   .     S
Cu284  O303    1.958   .     S
H293   C57     1.087   1_565 S
N295   N920    1.296   1_554 S
N295   C929    1.441   1_554 S
N296   N607    1.296   .     S
N296   C621    1.441   .     S
C305   H307    1.107   .     S
C305   H308    1.100   .     S
C305   N607    1.441   .     S
C305   H618    1.108   .     S
H306   C929    1.108   1_554 S
C309   H312    1.107   .     S
C309   H311    1.100   .     S
C309   N920    1.441   1_554 S
C309   H934    1.108   1_554 S
H310   C621    1.108   .     S
C313   O349    1.298   .     A
C313   C317    1.432   .     S
C313   O351    1.300   .     A
C314   O350    1.298   .     A
C314   C318    1.432   .     S
C314   O352    1.300   .     A
C315   C332    1.402   .     A
C315   H343    1.084   .     S
C315   C385    1.393   1_455 S
C316   H344    1.084   .     S
C316   C331    1.402   .     A
C316   C386    1.393   .     S
C317   C526    1.335   1_545 S
C317   H553    1.087   1_545 S
C318   C421    1.335   .     S
C318   H450    1.087   .     S
C319   O355    1.302   .     A
C319   O353    1.308   .     A
C319   C324    1.457   .     S
C320   O356    1.302   .     A
C320   C323    1.457   .     S
C320   O354    1.308   .     A
C321   C323    1.403   .     A
C321   H337    1.085   .     S
C321   C331    1.391   .     A
C322   H338    1.085   .     S
C322   C324    1.403   .     A
C322   C332    1.391   .     A
C323   C325    1.401   .     A
C324   C326    1.401   .     A
C325   C327    1.392   .     A
C325   H339    1.083   .     S
C326   C328    1.392   .     A
C326   H340    1.083   .     S
C327   C333    1.401   .     A
C327   C329    1.412   .     A
C328   C330    1.412   .     A
C328   C334    1.401   .     A
C329   C331    1.410   .     A
C329   C382    1.400   .     S
C330   C332    1.410   .     A
C330   C381    1.400   1_455 S
C333   H341    1.084   .     S
C333   C367    1.393   .     S
C334   H342    1.084   .     S
C334   C368    1.393   1_455 S
Cu335  Cu336   2.718   .     S
Cu335  O353    1.966   .     S
Cu335  O352    1.952   .     S
Cu335  N348    2.043   .     S
Cu335  O349    1.952   .     S
Cu335  O356    1.958   .     S
Cu336  O350    1.952   .     S
Cu336  N347    2.043   .     S
Cu336  O351    1.952   .     S
Cu336  O354    1.966   .     S
Cu336  O355    1.958   .     S
H345   C421    1.087   .     S
H346   C526    1.087   1_545 S
N348   N659    1.296   .     S
N348   C673    1.441   .     S
C357   H359    1.107   .     S
C357   H360    1.100   .     S
C357   N659    1.441   .     S
C357   H670    1.108   .     S
C361   H364    1.107   .     S
C361   H363    1.100   .     S
H362   C673    1.108   .     S
C365   O401    1.298   .     A
C365   C369    1.432   .     S
C365   O403    1.300   .     A
C366   O402    1.298   .     A
C366   C370    1.432   .     S
C366   O404    1.300   .     A
C367   C384    1.402   .     A
C367   H395    1.084   .     S
C368   H396    1.084   .     S
C368   C383    1.402   .     A
C368   C334    1.393   1_655 S
C369   C578    1.335   1_545 S
C369   H605    1.087   1_545 S
C370   C473    1.335   .     S
C370   H502    1.087   .     S
C371   O407    1.302   .     A
C371   O405    1.308   .     A
C371   C376    1.457   .     S
C372   O408    1.302   .     A
C372   C375    1.457   .     S
C372   O406    1.308   .     A
C373   C375    1.403   .     A
C373   H389    1.085   .     S
C373   C383    1.391   .     A
C374   H390    1.085   .     S
C374   C376    1.403   .     A
C374   C384    1.391   .     A
C375   C377    1.401   .     A
C376   C378    1.401   .     A
C377   C379    1.392   .     A
C377   H391    1.083   .     S
C378   C380    1.392   .     A
C378   H392    1.083   .     S
C379   C385    1.401   .     A
C379   C381    1.412   .     A
C380   C382    1.412   .     A
C380   C386    1.401   .     A
C381   C383    1.410   .     A
C381   C330    1.400   1_655 S
C382   C384    1.410   .     A
C385   H393    1.084   .     S
C385   C315    1.393   1_655 S
C386   H394    1.084   .     S
Cu387  Cu388   2.718   .     S
Cu387  O405    1.966   .     S
Cu387  O404    1.952   .     S
Cu387  N400    2.043   .     S
Cu387  O401    1.952   .     S
Cu387  O408    1.958   .     S
Cu388  O402    1.952   .     S
Cu388  N399    2.043   .     S
Cu388  O403    1.952   .     S
Cu388  O406    1.966   .     S
Cu388  O407    1.958   .     S
H397   C473    1.087   .     S
H398   C578    1.087   1_545 S
N400   N711    1.296   .     S
N400   C725    1.441   .     S
C409   H411    1.107   .     S
C409   H412    1.100   .     S
C409   N711    1.441   .     S
C409   H722    1.108   .     S
C413   H416    1.107   .     S
C413   H415    1.100   .     S
H414   C725    1.108   .     S
C417   O453    1.298   .     A
C417   C421    1.432   .     S
C417   O455    1.300   .     A
C418   O454    1.298   .     A
C418   C422    1.432   .     S
C418   O456    1.300   .     A
C419   C436    1.402   .     A
C419   H447    1.084   .     S
C419   C489    1.393   1_455 S
C420   H448    1.084   .     S
C420   C435    1.402   .     A
C420   C490    1.393   .     S
C422   C525    1.335   .     S
C422   H554    1.087   .     S
C423   O459    1.302   .     A
C423   O457    1.308   .     A
C423   C428    1.457   .     S
C424   O460    1.302   .     A
C424   C427    1.457   .     S
C424   O458    1.308   .     A
C425   C427    1.403   .     A
C425   H441    1.085   .     S
C425   C435    1.391   .     A
C426   H442    1.085   .     S
C426   C428    1.403   .     A
C426   C436    1.391   .     A
C427   C429    1.401   .     A
C428   C430    1.401   .     A
C429   C431    1.392   .     A
C429   H443    1.083   .     S
C430   C432    1.392   .     A
C430   H444    1.083   .     S
C431   C437    1.401   .     A
C431   C433    1.412   .     A
C432   C434    1.412   .     A
C432   C438    1.401   .     A
C433   C435    1.410   .     A
C433   C486    1.400   .     S
C434   C436    1.410   .     A
C434   C485    1.400   1_455 S
C437   H445    1.084   .     S
C437   C471    1.393   .     S
C438   H446    1.084   .     S
C438   C472    1.393   1_455 S
Cu439  Cu440   2.718   .     S
Cu439  O457    1.966   .     S
Cu439  O456    1.952   .     S
Cu439  N452    2.043   .     S
Cu439  O453    1.952   .     S
Cu439  O460    1.958   .     S
Cu440  O454    1.952   .     S
Cu440  N451    2.043   .     S
Cu440  O455    1.952   .     S
Cu440  O458    1.966   .     S
Cu440  O459    1.958   .     S
H449   C525    1.087   .     S
N452   N763    1.296   .     S
N452   C777    1.441   .     S
C461   H463    1.107   .     S
C461   H464    1.100   .     S
C461   N763    1.441   .     S
C461   H774    1.108   .     S
C465   H468    1.107   .     S
C465   H467    1.100   .     S
H466   C777    1.108   .     S
C469   O505    1.298   .     A
C469   C473    1.432   .     S
C469   O507    1.300   .     A
C470   O506    1.298   .     A
C470   C474    1.432   .     S
C470   O508    1.300   .     A
C471   C488    1.402   .     A
C471   H499    1.084   .     S
C472   H500    1.084   .     S
C472   C487    1.402   .     A
C472   C438    1.393   1_655 S
C474   C577    1.335   .     S
C474   H606    1.087   .     S
C475   O511    1.302   .     A
C475   O509    1.308   .     A
C475   C480    1.457   .     S
C476   O512    1.302   .     A
C476   C479    1.457   .     S
C476   O510    1.308   .     A
C477   C479    1.403   .     A
C477   H493    1.085   .     S
C477   C487    1.391   .     A
C478   H494    1.085   .     S
C478   C480    1.403   .     A
C478   C488    1.391   .     A
C479   C481    1.401   .     A
C480   C482    1.401   .     A
C481   C483    1.392   .     A
C481   H495    1.083   .     S
C482   C484    1.392   .     A
C482   H496    1.083   .     S
C483   C489    1.401   .     A
C483   C485    1.412   .     A
C484   C486    1.412   .     A
C484   C490    1.401   .     A
C485   C487    1.410   .     A
C485   C434    1.400   1_655 S
C486   C488    1.410   .     A
C489   H497    1.084   .     S
C489   C419    1.393   1_655 S
C490   H498    1.084   .     S
Cu491  Cu492   2.718   .     S
Cu491  O509    1.966   .     S
Cu491  O508    1.952   .     S
Cu491  N504    2.043   .     S
Cu491  O505    1.952   .     S
Cu491  O512    1.958   .     S
Cu492  O506    1.952   .     S
Cu492  N503    2.043   .     S
Cu492  O507    1.952   .     S
Cu492  O510    1.966   .     S
Cu492  O511    1.958   .     S
H501   C577    1.087   .     S
N504   N815    1.296   .     S
N504   C829    1.441   .     S
C513   H515    1.107   .     S
C513   H516    1.100   .     S
C513   N815    1.441   .     S
C513   H826    1.108   .     S
C517   H520    1.107   .     S
C517   H519    1.100   .     S
H518   C829    1.108   .     S
C521   O557    1.298   .     A
C521   C525    1.432   .     S
C521   O559    1.300   .     A
C522   O558    1.298   .     A
C522   C526    1.432   .     S
C522   O560    1.300   .     A
C523   C540    1.402   .     A
C523   H551    1.084   .     S
C523   C593    1.393   1_455 S
C524   H552    1.084   .     S
C524   C539    1.402   .     A
C524   C594    1.393   .     S
C526   C317    1.335   1_565 S
C526   H346    1.087   1_565 S
C527   O563    1.302   .     A
C527   O561    1.308   .     A
C527   C532    1.457   .     S
C528   O564    1.302   .     A
C528   C531    1.457   .     S
C528   O562    1.308   .     A
C529   C531    1.403   .     A
C529   H545    1.085   .     S
C529   C539    1.391   .     A
C530   H546    1.085   .     S
C530   C532    1.403   .     A
C530   C540    1.391   .     A
C531   C533    1.401   .     A
C532   C534    1.401   .     A
C533   C535    1.392   .     A
C533   H547    1.083   .     S
C534   C536    1.392   .     A
C534   H548    1.083   .     S
C535   C541    1.401   .     A
C535   C537    1.412   .     A
C536   C538    1.412   .     A
C536   C542    1.401   .     A
C537   C539    1.410   .     A
C537   C590    1.400   .     S
C538   C540    1.410   .     A
C538   C589    1.400   1_455 S
C541   H549    1.084   .     S
C541   C575    1.393   .     S
C542   H550    1.084   .     S
C542   C576    1.393   1_455 S
Cu543  Cu544   2.718   .     S
Cu543  O561    1.966   .     S
Cu543  O560    1.952   .     S
Cu543  N556    2.043   .     S
Cu543  O557    1.952   .     S
Cu543  O564    1.958   .     S
Cu544  O558    1.952   .     S
Cu544  N555    2.043   .     S
Cu544  O559    1.952   .     S
Cu544  O562    1.966   .     S
Cu544  O563    1.958   .     S
H553   C317    1.087   1_565 S
N556   N867    1.296   .     S
N556   C881    1.441   .     S
C565   H567    1.107   .     S
C565   H568    1.100   .     S
C565   N867    1.441   .     S
C565   H878    1.108   .     S
C569   H572    1.107   .     S
C569   H571    1.100   .     S
H570   C881    1.108   .     S
C573   O609    1.298   .     A
C573   C577    1.432   .     S
C573   O611    1.300   .     A
C574   O610    1.298   .     A
C574   C578    1.432   .     S
C574   O612    1.300   .     A
C575   C592    1.402   .     A
C575   H603    1.084   .     S
C576   H604    1.084   .     S
C576   C591    1.402   .     A
C576   C542    1.393   1_655 S
C578   C369    1.335   1_565 S
C578   H398    1.087   1_565 S
C579   O615    1.302   .     A
C579   O613    1.308   .     A
C579   C584    1.457   .     S
C580   O616    1.302   .     A
C580   C583    1.457   .     S
C580   O614    1.308   .     A
C581   C583    1.403   .     A
C581   H597    1.085   .     S
C581   C591    1.391   .     A
C582   H598    1.085   .     S
C582   C584    1.403   .     A
C582   C592    1.391   .     A
C583   C585    1.401   .     A
C584   C586    1.401   .     A
C585   C587    1.392   .     A
C585   H599    1.083   .     S
C586   C588    1.392   .     A
C586   H600    1.083   .     S
C587   C593    1.401   .     A
C587   C589    1.412   .     A
C588   C590    1.412   .     A
C588   C594    1.401   .     A
C589   C591    1.410   .     A
C589   C538    1.400   1_655 S
C590   C592    1.410   .     A
C593   H601    1.084   .     S
C593   C523    1.393   1_655 S
C594   H602    1.084   .     S
Cu595  Cu596   2.718   .     S
Cu595  O613    1.966   .     S
Cu595  O612    1.952   .     S
Cu595  N608    2.043   .     S
Cu595  O609    1.952   .     S
Cu595  O616    1.958   .     S
Cu596  O610    1.952   .     S
Cu596  N607    2.043   .     S
Cu596  O611    1.952   .     S
Cu596  O614    1.966   .     S
Cu596  O615    1.958   .     S
H605   C369    1.087   1_565 S
N608   N919    1.296   .     S
N608   C933    1.441   .     S
C617   H619    1.107   .     S
C617   H620    1.100   .     S
C617   N919    1.441   .     S
C617   H930    1.108   .     S
C621   H624    1.107   .     S
C621   H623    1.100   .     S
H622   C933    1.108   .     S
C625   O661    1.298   .     A
C625   C629    1.432   .     S
C625   O663    1.300   .     A
C626   O662    1.298   .     A
C626   C630    1.432   .     S
C626   O664    1.300   .     A
C627   C644    1.402   .     A
C627   H655    1.084   .     S
C627   C697    1.393   1_455 S
C628   H656    1.084   .     S
C628   C643    1.402   .     A
C628   C698    1.393   .     S
C629   C838    1.335   1_545 S
C629   H865    1.087   1_545 S
C630   C733    1.335   .     S
C630   H762    1.087   .     S
C631   O667    1.302   .     A
C631   O665    1.308   .     A
C631   C636    1.457   .     S
C632   O668    1.302   .     A
C632   C635    1.457   .     S
C632   O666    1.308   .     A
C633   C635    1.403   .     A
C633   H649    1.085   .     S
C633   C643    1.391   .     A
C634   H650    1.085   .     S
C634   C636    1.403   .     A
C634   C644    1.391   .     A
C635   C637    1.401   .     A
C636   C638    1.401   .     A
C637   C639    1.392   .     A
C637   H651    1.083   .     S
C638   C640    1.392   .     A
C638   H652    1.083   .     S
C639   C645    1.401   .     A
C639   C641    1.412   .     A
C640   C642    1.412   .     A
C640   C646    1.401   .     A
C641   C643    1.410   .     A
C641   C694    1.400   .     S
C642   C644    1.410   .     A
C642   C693    1.400   1_455 S
C645   H653    1.084   .     S
C645   C679    1.393   .     S
C646   H654    1.084   .     S
C646   C680    1.393   1_455 S
Cu647  Cu648   2.718   .     S
Cu647  O665    1.966   .     S
Cu647  O664    1.952   .     S
Cu647  N660    2.043   .     S
Cu647  O661    1.952   .     S
Cu647  O668    1.958   .     S
Cu648  O662    1.952   .     S
Cu648  N659    2.043   .     S
Cu648  O663    1.952   .     S
Cu648  O666    1.966   .     S
Cu648  O667    1.958   .     S
H657   C733    1.087   .     S
H658   C838    1.087   1_545 S
N660   N35     1.296   1_556 S
N660   C49     1.441   1_556 S
C669   H671    1.107   .     S
C669   H672    1.100   .     S
C669   N35     1.441   1_556 S
C669   H46     1.108   1_556 S
C673   H676    1.107   .     S
C673   H675    1.100   .     S
H674   C49     1.108   1_556 S
C677   O713    1.298   .     A
C677   C681    1.432   .     S
C677   O715    1.300   .     A
C678   O714    1.298   .     A
C678   C682    1.432   .     S
C678   O716    1.300   .     A
C679   C696    1.402   .     A
C679   H707    1.084   .     S
C680   H708    1.084   .     S
C680   C695    1.402   .     A
C680   C646    1.393   1_655 S
C681   C890    1.335   1_545 S
C681   H917    1.087   1_545 S
C682   C785    1.335   .     S
C682   H814    1.087   .     S
C683   O719    1.302   .     A
C683   O717    1.308   .     A
C683   C688    1.457   .     S
C684   O720    1.302   .     A
C684   C687    1.457   .     S
C684   O718    1.308   .     A
C685   C687    1.403   .     A
C685   H701    1.085   .     S
C685   C695    1.391   .     A
C686   H702    1.085   .     S
C686   C688    1.403   .     A
C686   C696    1.391   .     A
C687   C689    1.401   .     A
C688   C690    1.401   .     A
C689   C691    1.392   .     A
C689   H703    1.083   .     S
C690   C692    1.392   .     A
C690   H704    1.083   .     S
C691   C697    1.401   .     A
C691   C693    1.412   .     A
C692   C694    1.412   .     A
C692   C698    1.401   .     A
C693   C695    1.410   .     A
C693   C642    1.400   1_655 S
C694   C696    1.410   .     A
C697   H705    1.084   .     S
C697   C627    1.393   1_655 S
C698   H706    1.084   .     S
Cu699  Cu700   2.718   .     S
Cu699  O717    1.966   .     S
Cu699  O716    1.952   .     S
Cu699  N712    2.043   .     S
Cu699  O713    1.952   .     S
Cu699  O720    1.958   .     S
Cu700  O714    1.952   .     S
Cu700  N711    2.043   .     S
Cu700  O715    1.952   .     S
Cu700  O718    1.966   .     S
Cu700  O719    1.958   .     S
H709   C785    1.087   .     S
H710   C890    1.087   1_545 S
N712   N87     1.296   1_556 S
N712   C101    1.441   1_556 S
C721   H723    1.107   .     S
C721   H724    1.100   .     S
C721   N87     1.441   1_556 S
C721   H98     1.108   1_556 S
C725   H728    1.107   .     S
C725   H727    1.100   .     S
H726   C101    1.108   1_556 S
C729   O765    1.298   .     A
C729   C733    1.432   .     S
C729   O767    1.300   .     A
C730   O766    1.298   .     A
C730   C734    1.432   .     S
C730   O768    1.300   .     A
C731   C748    1.402   .     A
C731   H759    1.084   .     S
C731   C801    1.393   1_455 S
C732   H760    1.084   .     S
C732   C747    1.402   .     A
C732   C802    1.393   .     S
C734   C837    1.335   .     S
C734   H866    1.087   .     S
C735   O771    1.302   .     A
C735   O769    1.308   .     A
C735   C740    1.457   .     S
C736   O772    1.302   .     A
C736   C739    1.457   .     S
C736   O770    1.308   .     A
C737   C739    1.403   .     A
C737   H753    1.085   .     S
C737   C747    1.391   .     A
C738   H754    1.085   .     S
C738   C740    1.403   .     A
C738   C748    1.391   .     A
C739   C741    1.401   .     A
C740   C742    1.401   .     A
C741   C743    1.392   .     A
C741   H755    1.083   .     S
C742   C744    1.392   .     A
C742   H756    1.083   .     S
C743   C749    1.401   .     A
C743   C745    1.412   .     A
C744   C746    1.412   .     A
C744   C750    1.401   .     A
C745   C747    1.410   .     A
C745   C798    1.400   .     S
C746   C748    1.410   .     A
C746   C797    1.400   1_455 S
C749   H757    1.084   .     S
C749   C783    1.393   .     S
C750   H758    1.084   .     S
C750   C784    1.393   1_455 S
Cu751  Cu752   2.718   .     S
Cu751  O769    1.966   .     S
Cu751  O768    1.952   .     S
Cu751  N764    2.043   .     S
Cu751  O765    1.952   .     S
Cu751  O772    1.958   .     S
Cu752  O766    1.952   .     S
Cu752  N763    2.043   .     S
Cu752  O767    1.952   .     S
Cu752  O770    1.966   .     S
Cu752  O771    1.958   .     S
H761   C837    1.087   .     S
N764   N139    1.296   1_556 S
N764   C153    1.441   1_556 S
C773   H775    1.107   .     S
C773   H776    1.100   .     S
C773   N139    1.441   1_556 S
C773   H150    1.108   1_556 S
C777   H780    1.107   .     S
C777   H779    1.100   .     S
H778   C153    1.108   1_556 S
C781   O817    1.298   .     A
C781   C785    1.432   .     S
C781   O819    1.300   .     A
C782   O818    1.298   .     A
C782   C786    1.432   .     S
C782   O820    1.300   .     A
C783   C800    1.402   .     A
C783   H811    1.084   .     S
C784   H812    1.084   .     S
C784   C799    1.402   .     A
C784   C750    1.393   1_655 S
C786   C889    1.335   .     S
C786   H918    1.087   .     S
C787   O823    1.302   .     A
C787   O821    1.308   .     A
C787   C792    1.457   .     S
C788   O824    1.302   .     A
C788   C791    1.457   .     S
C788   O822    1.308   .     A
C789   C791    1.403   .     A
C789   H805    1.085   .     S
C789   C799    1.391   .     A
C790   H806    1.085   .     S
C790   C792    1.403   .     A
C790   C800    1.391   .     A
C791   C793    1.401   .     A
C792   C794    1.401   .     A
C793   C795    1.392   .     A
C793   H807    1.083   .     S
C794   C796    1.392   .     A
C794   H808    1.083   .     S
C795   C801    1.401   .     A
C795   C797    1.412   .     A
C796   C798    1.412   .     A
C796   C802    1.401   .     A
C797   C799    1.410   .     A
C797   C746    1.400   1_655 S
C798   C800    1.410   .     A
C801   H809    1.084   .     S
C801   C731    1.393   1_655 S
C802   H810    1.084   .     S
Cu803  Cu804   2.718   .     S
Cu803  O821    1.966   .     S
Cu803  O820    1.952   .     S
Cu803  N816    2.043   .     S
Cu803  O817    1.952   .     S
Cu803  O824    1.958   .     S
Cu804  O818    1.952   .     S
Cu804  N815    2.043   .     S
Cu804  O819    1.952   .     S
Cu804  O822    1.966   .     S
Cu804  O823    1.958   .     S
H813   C889    1.087   .     S
N816   N191    1.296   1_556 S
N816   C205    1.441   1_556 S
C825   H827    1.107   .     S
C825   H828    1.100   .     S
C825   N191    1.441   1_556 S
C825   H202    1.108   1_556 S
C829   H832    1.107   .     S
C829   H831    1.100   .     S
H830   C205    1.108   1_556 S
C833   O869    1.298   .     A
C833   C837    1.432   .     S
C833   O871    1.300   .     A
C834   O870    1.298   .     A
C834   C838    1.432   .     S
C834   O872    1.300   .     A
C835   C852    1.402   .     A
C835   H863    1.084   .     S
C835   C905    1.393   1_455 S
C836   H864    1.084   .     S
C836   C851    1.402   .     A
C836   C906    1.393   .     S
C838   C629    1.335   1_565 S
C838   H658    1.087   1_565 S
C839   O875    1.302   .     A
C839   O873    1.308   .     A
C839   C844    1.457   .     S
C840   O876    1.302   .     A
C840   C843    1.457   .     S
C840   O874    1.308   .     A
C841   C843    1.403   .     A
C841   H857    1.085   .     S
C841   C851    1.391   .     A
C842   H858    1.085   .     S
C842   C844    1.403   .     A
C842   C852    1.391   .     A
C843   C845    1.401   .     A
C844   C846    1.401   .     A
C845   C847    1.392   .     A
C845   H859    1.083   .     S
C846   C848    1.392   .     A
C846   H860    1.083   .     S
C847   C853    1.401   .     A
C847   C849    1.412   .     A
C848   C850    1.412   .     A
C848   C854    1.401   .     A
C849   C851    1.410   .     A
C849   C902    1.400   .     S
C850   C852    1.410   .     A
C850   C901    1.400   1_455 S
C853   H861    1.084   .     S
C853   C887    1.393   .     S
C854   H862    1.084   .     S
C854   C888    1.393   1_455 S
Cu855  Cu856   2.718   .     S
Cu855  O873    1.966   .     S
Cu855  O872    1.952   .     S
Cu855  N868    2.043   .     S
Cu855  O869    1.952   .     S
Cu855  O876    1.958   .     S
Cu856  O870    1.952   .     S
Cu856  N867    2.043   .     S
Cu856  O871    1.952   .     S
Cu856  O874    1.966   .     S
Cu856  O875    1.958   .     S
H865   C629    1.087   1_565 S
N868   N243    1.296   1_556 S
N868   C257    1.441   1_556 S
C877   H879    1.107   .     S
C877   H880    1.100   .     S
C877   N243    1.441   1_556 S
C877   H254    1.108   1_556 S
C881   H884    1.107   .     S
C881   H883    1.100   .     S
H882   C257    1.108   1_556 S
C885   O921    1.298   .     A
C885   C889    1.432   .     S
C885   O923    1.300   .     A
C886   O922    1.298   .     A
C886   C890    1.432   .     S
C886   O924    1.300   .     A
C887   C904    1.402   .     A
C887   H915    1.084   .     S
C888   H916    1.084   .     S
C888   C903    1.402   .     A
C888   C854    1.393   1_655 S
C890   C681    1.335   1_565 S
C890   H710    1.087   1_565 S
C891   O927    1.302   .     A
C891   O925    1.308   .     A
C891   C896    1.457   .     S
C892   O928    1.302   .     A
C892   C895    1.457   .     S
C892   O926    1.308   .     A
C893   C895    1.403   .     A
C893   H909    1.085   .     S
C893   C903    1.391   .     A
C894   H910    1.085   .     S
C894   C896    1.403   .     A
C894   C904    1.391   .     A
C895   C897    1.401   .     A
C896   C898    1.401   .     A
C897   C899    1.392   .     A
C897   H911    1.083   .     S
C898   C900    1.392   .     A
C898   H912    1.083   .     S
C899   C905    1.401   .     A
C899   C901    1.412   .     A
C900   C902    1.412   .     A
C900   C906    1.401   .     A
C901   C903    1.410   .     A
C901   C850    1.400   1_655 S
C902   C904    1.410   .     A
C905   H913    1.084   .     S
C905   C835    1.393   1_655 S
C906   H914    1.084   .     S
Cu907  Cu908   2.718   .     S
Cu907  O925    1.966   .     S
Cu907  O924    1.952   .     S
Cu907  N920    2.043   .     S
Cu907  O921    1.952   .     S
Cu907  O928    1.958   .     S
Cu908  O922    1.952   .     S
Cu908  N919    2.043   .     S
Cu908  O923    1.952   .     S
Cu908  O926    1.966   .     S
Cu908  O927    1.958   .     S
H917   C681    1.087   1_565 S
N920   N295    1.296   1_556 S
N920   C309    1.441   1_556 S
C929   H931    1.107   .     S
C929   H932    1.100   .     S
C929   N295    1.441   1_556 S
C929   H306    1.108   1_556 S
C933   H936    1.107   .     S
C933   H935    1.100   .     S
H934   C309    1.108   1_556 S
