data_str_m2_o10_o18_pcu_sym.120
_audit_creation_date              2020-01-03
_audit_creation_method            'Materials Studio'
_symmetry_space_group_name_H-M    'P1'
_symmetry_Int_Tables_number       1
_symmetry_cell_setting            triclinic
loop_
_symmetry_equiv_pos_as_xyz
  x,y,z
_cell_length_a                    22.2444
_cell_length_b                    26.0909
_cell_length_c                    31.5265
_cell_angle_alpha                 94.2012
_cell_angle_beta                  74.4996
_cell_angle_gamma                 103.2563
loop_
_atom_site_label
_atom_site_type_symbol
_atom_site_fract_x
_atom_site_fract_y
_atom_site_fract_z
_atom_site_U_iso_or_equiv
_atom_site_adp_type
_atom_site_occupancy
C1     C     0.18172   0.26675   0.25131   0.00000  Uiso   1.00
C2     C     0.15160   0.06658   0.24872   0.00000  Uiso   1.00
C3     C     0.10504   0.09432   0.03025   0.00000  Uiso   1.00
C4     C     0.24388   0.17671   0.45527   0.00000  Uiso   1.00
C5     C     0.06260   0.08087   0.00403   0.00000  Uiso   1.00
C6     C     0.28787   0.18735   0.48050   0.00000  Uiso   1.00
C7     C     0.19020   0.32271   0.25197   0.00000  Uiso   1.00
C8     C     0.14310   0.01062   0.24810   0.00000  Uiso   1.00
C9     C     0.12724   0.16176   0.33336   0.00000  Uiso   1.00
C10    C     0.20549   0.16754   0.16634   0.00000  Uiso   1.00
C11    C     0.10167   0.14998   0.38080   0.00000  Uiso   1.00
C12    C     0.22953   0.16415   0.11739   0.00000  Uiso   1.00
C13    C     0.03134   0.09122   0.43836   0.00000  Uiso   1.00
C14    C     0.31308   0.19018   0.05043   0.00000  Uiso   1.00
C15    C     0.04398   0.11257   0.39692   0.00000  Uiso   1.00
C16    C     0.29491   0.18287   0.09574   0.00000  Uiso   1.00
C17    C     0.14142   0.16988   0.40891   0.00000  Uiso   1.00
C18    C     0.18524   0.14525   0.09146   0.00000  Uiso   1.00
C19    C     0.13262   0.14370   0.44889   0.00000  Uiso   1.00
C20    C     0.20471   0.15033   0.04493   0.00000  Uiso   1.00
C21    C     0.07521   0.10559   0.46396   0.00000  Uiso   1.00
C22    C     0.26856   0.17610   0.02531   0.00000  Uiso   1.00
C23    C     0.17924   0.15288   0.47378   0.00000  Uiso   1.00
C24    C     0.16207   0.13311   0.01728   0.00000  Uiso   1.00
Cu25   Cu    0.10737   0.16108   0.24517   0.00000  Uiso   1.00
Cu26   Cu    0.22596   0.17225   0.25484   0.00000  Uiso   1.00
H27    H     0.01972   0.05049   0.01511   0.00000  Uiso   1.00
H28    H     0.00382   0.20556   0.46495   0.00000  Uiso   1.00
H29    H     0.32067   0.06221   0.45016   0.00000  Uiso   1.00
H30    H     0.02936   0.20735   0.03475   0.00000  Uiso   1.00
H31    H     0.09419   0.07054   0.05897   0.00000  Uiso   1.00
H32    H     0.26220   0.18511   0.42059   0.00000  Uiso   1.00
H33    H     0.23559   0.01321   0.25563   0.00000  Uiso   1.00
H34    H     0.09771   0.32013   0.24444   0.00000  Uiso   1.00
H35    H     0.00121   0.20491   0.28452   0.00000  Uiso   1.00
H36    H     0.33209   0.12835   0.21552   0.00000  Uiso   1.00
N37    N     0.31506   0.18068   0.26212   0.00000  Uiso   1.00
N38    N     0.01827   0.15265   0.23788   0.00000  Uiso   1.00
O39    O     0.12815   0.23809   0.24686   0.00000  Uiso   1.00
O40    O     0.20518   0.09524   0.25314   0.00000  Uiso   1.00
O41    O     0.22829   0.24753   0.25503   0.00000  Uiso   1.00
O42    O     0.10504   0.08580   0.24498   0.00000  Uiso   1.00
O43    O     0.08851   0.15930   0.30855   0.00000  Uiso   1.00
O44    O     0.24482   0.17403   0.19146   0.00000  Uiso   1.00
O45    O     0.18866   0.16874   0.31671   0.00000  Uiso   1.00
O46    O     0.14468   0.16460   0.18329   0.00000  Uiso   1.00
O47    O     0.12173   0.12643   0.11176   0.00000  Uiso   1.00
H48    H     0.11991   0.09771   0.13136   0.00000  Uiso   1.00
O49    O     0.18522   0.21673   0.39740   0.00000  Uiso   1.00
H50    H     0.18805   0.23714   0.42486   0.00000  Uiso   1.00
O51    O     0.00860   0.19697   0.11785   0.00000  Uiso   1.00
H52    H     0.00427   0.16687   0.13667   0.00000  Uiso   1.00
O53    O     0.33325   0.09453   0.37282   0.00000  Uiso   1.00
H54    H     0.32633   0.12566   0.36019   0.00000  Uiso   1.00
C55    C     0.51506   0.26675   0.25131   0.00000  Uiso   1.00
C56    C     0.48493   0.06658   0.24872   0.00000  Uiso   1.00
C57    C     0.43837   0.09432   0.03025   0.00000  Uiso   1.00
C58    C     0.57722   0.17671   0.45527   0.00000  Uiso   1.00
C59    C     0.39593   0.08087   0.00403   0.00000  Uiso   1.00
C60    C     0.62120   0.18735   0.48050   0.00000  Uiso   1.00
C61    C     0.52353   0.32271   0.25197   0.00000  Uiso   1.00
C62    C     0.47643   0.01062   0.24810   0.00000  Uiso   1.00
C63    C     0.46057   0.16176   0.33336   0.00000  Uiso   1.00
C64    C     0.53882   0.16754   0.16634   0.00000  Uiso   1.00
C65    C     0.43500   0.14998   0.38080   0.00000  Uiso   1.00
C66    C     0.56287   0.16415   0.11739   0.00000  Uiso   1.00
C67    C     0.36467   0.09122   0.43836   0.00000  Uiso   1.00
C68    C     0.64641   0.19018   0.05043   0.00000  Uiso   1.00
C69    C     0.37731   0.11257   0.39692   0.00000  Uiso   1.00
C70    C     0.62824   0.18287   0.09574   0.00000  Uiso   1.00
C71    C     0.47475   0.16988   0.40891   0.00000  Uiso   1.00
C72    C     0.51858   0.14525   0.09146   0.00000  Uiso   1.00
C73    C     0.46595   0.14370   0.44889   0.00000  Uiso   1.00
C74    C     0.53804   0.15033   0.04493   0.00000  Uiso   1.00
C75    C     0.40855   0.10559   0.46396   0.00000  Uiso   1.00
C76    C     0.60190   0.17610   0.02531   0.00000  Uiso   1.00
C77    C     0.51258   0.15288   0.47378   0.00000  Uiso   1.00
C78    C     0.49540   0.13311   0.01728   0.00000  Uiso   1.00
Cu79   Cu    0.44071   0.16108   0.24517   0.00000  Uiso   1.00
Cu80   Cu    0.55929   0.17225   0.25484   0.00000  Uiso   1.00
H81    H     0.35305   0.05049   0.01511   0.00000  Uiso   1.00
H82    H     0.33715   0.20556   0.46495   0.00000  Uiso   1.00
H83    H     0.65400   0.06221   0.45016   0.00000  Uiso   1.00
H84    H     0.36269   0.20735   0.03475   0.00000  Uiso   1.00
H85    H     0.42752   0.07054   0.05897   0.00000  Uiso   1.00
H86    H     0.59553   0.18511   0.42059   0.00000  Uiso   1.00
H87    H     0.56892   0.01321   0.25563   0.00000  Uiso   1.00
H88    H     0.43104   0.32013   0.24444   0.00000  Uiso   1.00
H89    H     0.33455   0.20491   0.28452   0.00000  Uiso   1.00
H90    H     0.66543   0.12835   0.21552   0.00000  Uiso   1.00
N91    N     0.64839   0.18068   0.26212   0.00000  Uiso   1.00
N92    N     0.35161   0.15265   0.23788   0.00000  Uiso   1.00
O93    O     0.46148   0.23809   0.24686   0.00000  Uiso   1.00
O94    O     0.53852   0.09524   0.25314   0.00000  Uiso   1.00
O95    O     0.56163   0.24753   0.25503   0.00000  Uiso   1.00
O96    O     0.43837   0.08580   0.24498   0.00000  Uiso   1.00
O97    O     0.42185   0.15930   0.30855   0.00000  Uiso   1.00
O98    O     0.57815   0.17403   0.19146   0.00000  Uiso   1.00
O99    O     0.52199   0.16874   0.31671   0.00000  Uiso   1.00
O100   O     0.47801   0.16460   0.18329   0.00000  Uiso   1.00
O101   O     0.45507   0.12643   0.11176   0.00000  Uiso   1.00
H102   H     0.45324   0.09771   0.13136   0.00000  Uiso   1.00
O103   O     0.51856   0.21673   0.39740   0.00000  Uiso   1.00
H104   H     0.52138   0.23714   0.42486   0.00000  Uiso   1.00
O105   O     0.34194   0.19697   0.11785   0.00000  Uiso   1.00
H106   H     0.33760   0.16687   0.13667   0.00000  Uiso   1.00
O107   O     0.66658   0.09453   0.37282   0.00000  Uiso   1.00
H108   H     0.65966   0.12566   0.36019   0.00000  Uiso   1.00
C109   C     0.84839   0.26675   0.25131   0.00000  Uiso   1.00
C110   C     0.81826   0.06658   0.24872   0.00000  Uiso   1.00
C111   C     0.77171   0.09432   0.03025   0.00000  Uiso   1.00
C112   C     0.91055   0.17671   0.45527   0.00000  Uiso   1.00
C113   C     0.72927   0.08087   0.00403   0.00000  Uiso   1.00
C114   C     0.95453   0.18735   0.48050   0.00000  Uiso   1.00
C115   C     0.85687   0.32271   0.25197   0.00000  Uiso   1.00
C116   C     0.80976   0.01062   0.24810   0.00000  Uiso   1.00
C117   C     0.79390   0.16176   0.33336   0.00000  Uiso   1.00
C118   C     0.87216   0.16754   0.16634   0.00000  Uiso   1.00
C119   C     0.76833   0.14998   0.38080   0.00000  Uiso   1.00
C120   C     0.89620   0.16415   0.11739   0.00000  Uiso   1.00
C121   C     0.69801   0.09122   0.43836   0.00000  Uiso   1.00
C122   C     0.97975   0.19018   0.05043   0.00000  Uiso   1.00
C123   C     0.71065   0.11257   0.39692   0.00000  Uiso   1.00
C124   C     0.96157   0.18287   0.09574   0.00000  Uiso   1.00
C125   C     0.80808   0.16988   0.40891   0.00000  Uiso   1.00
C126   C     0.85191   0.14525   0.09146   0.00000  Uiso   1.00
C127   C     0.79928   0.14370   0.44889   0.00000  Uiso   1.00
C128   C     0.87137   0.15033   0.04493   0.00000  Uiso   1.00
C129   C     0.74188   0.10559   0.46396   0.00000  Uiso   1.00
C130   C     0.93523   0.17610   0.02531   0.00000  Uiso   1.00
C131   C     0.84591   0.15288   0.47378   0.00000  Uiso   1.00
C132   C     0.82874   0.13311   0.01728   0.00000  Uiso   1.00
Cu133  Cu    0.77404   0.16108   0.24517   0.00000  Uiso   1.00
Cu134  Cu    0.89263   0.17225   0.25484   0.00000  Uiso   1.00
H135   H     0.68638   0.05049   0.01511   0.00000  Uiso   1.00
H136   H     0.67049   0.20556   0.46495   0.00000  Uiso   1.00
H137   H     0.98733   0.06221   0.45016   0.00000  Uiso   1.00
H138   H     0.69603   0.20735   0.03475   0.00000  Uiso   1.00
H139   H     0.76086   0.07054   0.05897   0.00000  Uiso   1.00
H140   H     0.92886   0.18511   0.42059   0.00000  Uiso   1.00
H141   H     0.90225   0.01321   0.25563   0.00000  Uiso   1.00
H142   H     0.76437   0.32013   0.24444   0.00000  Uiso   1.00
H143   H     0.66788   0.20491   0.28452   0.00000  Uiso   1.00
H144   H     0.99876   0.12835   0.21552   0.00000  Uiso   1.00
N145   N     0.98173   0.18068   0.26212   0.00000  Uiso   1.00
N146   N     0.68494   0.15265   0.23788   0.00000  Uiso   1.00
O147   O     0.79482   0.23809   0.24686   0.00000  Uiso   1.00
O148   O     0.87185   0.09524   0.25314   0.00000  Uiso   1.00
O149   O     0.89496   0.24753   0.25503   0.00000  Uiso   1.00
O150   O     0.77171   0.08580   0.24498   0.00000  Uiso   1.00
O151   O     0.75518   0.15930   0.30855   0.00000  Uiso   1.00
O152   O     0.91149   0.17403   0.19146   0.00000  Uiso   1.00
O153   O     0.85532   0.16874   0.31671   0.00000  Uiso   1.00
O154   O     0.81134   0.16460   0.18329   0.00000  Uiso   1.00
O155   O     0.78840   0.12643   0.11176   0.00000  Uiso   1.00
H156   H     0.78657   0.09771   0.13136   0.00000  Uiso   1.00
O157   O     0.85189   0.21673   0.39740   0.00000  Uiso   1.00
H158   H     0.85471   0.23714   0.42486   0.00000  Uiso   1.00
O159   O     0.67527   0.19697   0.11785   0.00000  Uiso   1.00
H160   H     0.67094   0.16687   0.13667   0.00000  Uiso   1.00
O161   O     0.99992   0.09453   0.37282   0.00000  Uiso   1.00
H162   H     0.99299   0.12566   0.36019   0.00000  Uiso   1.00
C163   C     0.18172   0.60008   0.25131   0.00000  Uiso   1.00
C164   C     0.15160   0.39991   0.24872   0.00000  Uiso   1.00
C165   C     0.10504   0.42765   0.03025   0.00000  Uiso   1.00
C166   C     0.24388   0.51005   0.45527   0.00000  Uiso   1.00
C167   C     0.06260   0.41421   0.00403   0.00000  Uiso   1.00
C168   C     0.28787   0.52068   0.48050   0.00000  Uiso   1.00
C169   C     0.19020   0.65605   0.25197   0.00000  Uiso   1.00
C170   C     0.14310   0.34396   0.24810   0.00000  Uiso   1.00
C171   C     0.12724   0.49510   0.33336   0.00000  Uiso   1.00
C172   C     0.20549   0.50088   0.16634   0.00000  Uiso   1.00
C173   C     0.10167   0.48331   0.38080   0.00000  Uiso   1.00
C174   C     0.22953   0.49748   0.11739   0.00000  Uiso   1.00
C175   C     0.03134   0.42456   0.43836   0.00000  Uiso   1.00
C176   C     0.31308   0.52352   0.05043   0.00000  Uiso   1.00
C177   C     0.04398   0.44590   0.39692   0.00000  Uiso   1.00
C178   C     0.29491   0.51620   0.09574   0.00000  Uiso   1.00
C179   C     0.14142   0.50321   0.40891   0.00000  Uiso   1.00
C180   C     0.18524   0.47858   0.09146   0.00000  Uiso   1.00
C181   C     0.13262   0.47703   0.44889   0.00000  Uiso   1.00
C182   C     0.20471   0.48366   0.04493   0.00000  Uiso   1.00
C183   C     0.07521   0.43892   0.46396   0.00000  Uiso   1.00
C184   C     0.26856   0.50944   0.02531   0.00000  Uiso   1.00
C185   C     0.17924   0.48621   0.47378   0.00000  Uiso   1.00
C186   C     0.16207   0.46644   0.01728   0.00000  Uiso   1.00
Cu187  Cu    0.10737   0.49441   0.24517   0.00000  Uiso   1.00
Cu188  Cu    0.22596   0.50559   0.25484   0.00000  Uiso   1.00
H189   H     0.01972   0.38383   0.01511   0.00000  Uiso   1.00
H190   H     0.00382   0.53889   0.46495   0.00000  Uiso   1.00
H191   H     0.32067   0.39555   0.45016   0.00000  Uiso   1.00
H192   H     0.02936   0.54068   0.03475   0.00000  Uiso   1.00
H193   H     0.09419   0.40388   0.05897   0.00000  Uiso   1.00
H194   H     0.26220   0.51844   0.42059   0.00000  Uiso   1.00
H195   H     0.23559   0.34654   0.25563   0.00000  Uiso   1.00
H196   H     0.09771   0.65346   0.24444   0.00000  Uiso   1.00
H197   H     0.00121   0.53825   0.28452   0.00000  Uiso   1.00
H198   H     0.33209   0.46169   0.21552   0.00000  Uiso   1.00
N199   N     0.31506   0.51401   0.26212   0.00000  Uiso   1.00
N200   N     0.01827   0.48599   0.23788   0.00000  Uiso   1.00
O201   O     0.12815   0.57142   0.24686   0.00000  Uiso   1.00
O202   O     0.20518   0.42858   0.25314   0.00000  Uiso   1.00
O203   O     0.22829   0.58086   0.25503   0.00000  Uiso   1.00
O204   O     0.10504   0.41914   0.24498   0.00000  Uiso   1.00
O205   O     0.08851   0.49263   0.30855   0.00000  Uiso   1.00
O206   O     0.24482   0.50737   0.19146   0.00000  Uiso   1.00
O207   O     0.18866   0.50207   0.31671   0.00000  Uiso   1.00
O208   O     0.14468   0.49793   0.18329   0.00000  Uiso   1.00
O209   O     0.12173   0.45976   0.11176   0.00000  Uiso   1.00
H210   H     0.11991   0.43105   0.13136   0.00000  Uiso   1.00
O211   O     0.18522   0.55006   0.39740   0.00000  Uiso   1.00
H212   H     0.18805   0.57047   0.42486   0.00000  Uiso   1.00
O213   O     0.00860   0.53030   0.11785   0.00000  Uiso   1.00
H214   H     0.00427   0.50021   0.13667   0.00000  Uiso   1.00
O215   O     0.33325   0.42786   0.37282   0.00000  Uiso   1.00
H216   H     0.32633   0.45900   0.36019   0.00000  Uiso   1.00
C217   C     0.51506   0.60008   0.25131   0.00000  Uiso   1.00
C218   C     0.48493   0.39991   0.24872   0.00000  Uiso   1.00
C219   C     0.43837   0.42765   0.03025   0.00000  Uiso   1.00
C220   C     0.57722   0.51005   0.45527   0.00000  Uiso   1.00
C221   C     0.39593   0.41421   0.00403   0.00000  Uiso   1.00
C222   C     0.62120   0.52068   0.48050   0.00000  Uiso   1.00
C223   C     0.52353   0.65605   0.25197   0.00000  Uiso   1.00
C224   C     0.47643   0.34396   0.24810   0.00000  Uiso   1.00
C225   C     0.46057   0.49510   0.33336   0.00000  Uiso   1.00
C226   C     0.53882   0.50088   0.16634   0.00000  Uiso   1.00
C227   C     0.43500   0.48331   0.38080   0.00000  Uiso   1.00
C228   C     0.56287   0.49748   0.11739   0.00000  Uiso   1.00
C229   C     0.36467   0.42456   0.43836   0.00000  Uiso   1.00
C230   C     0.64641   0.52352   0.05043   0.00000  Uiso   1.00
C231   C     0.37731   0.44590   0.39692   0.00000  Uiso   1.00
C232   C     0.62824   0.51620   0.09574   0.00000  Uiso   1.00
C233   C     0.47475   0.50321   0.40891   0.00000  Uiso   1.00
C234   C     0.51858   0.47858   0.09146   0.00000  Uiso   1.00
C235   C     0.46595   0.47703   0.44889   0.00000  Uiso   1.00
C236   C     0.53804   0.48366   0.04493   0.00000  Uiso   1.00
C237   C     0.40855   0.43892   0.46396   0.00000  Uiso   1.00
C238   C     0.60190   0.50944   0.02531   0.00000  Uiso   1.00
C239   C     0.51258   0.48621   0.47378   0.00000  Uiso   1.00
C240   C     0.49540   0.46644   0.01728   0.00000  Uiso   1.00
Cu241  Cu    0.44071   0.49441   0.24517   0.00000  Uiso   1.00
Cu242  Cu    0.55929   0.50559   0.25484   0.00000  Uiso   1.00
H243   H     0.35305   0.38383   0.01511   0.00000  Uiso   1.00
H244   H     0.33715   0.53889   0.46495   0.00000  Uiso   1.00
H245   H     0.65400   0.39555   0.45016   0.00000  Uiso   1.00
H246   H     0.36269   0.54068   0.03475   0.00000  Uiso   1.00
H247   H     0.42752   0.40388   0.05897   0.00000  Uiso   1.00
H248   H     0.59553   0.51844   0.42059   0.00000  Uiso   1.00
H249   H     0.56892   0.34654   0.25563   0.00000  Uiso   1.00
H250   H     0.43104   0.65346   0.24444   0.00000  Uiso   1.00
H251   H     0.33455   0.53825   0.28452   0.00000  Uiso   1.00
H252   H     0.66543   0.46169   0.21552   0.00000  Uiso   1.00
N253   N     0.64839   0.51401   0.26212   0.00000  Uiso   1.00
N254   N     0.35161   0.48599   0.23788   0.00000  Uiso   1.00
O255   O     0.46148   0.57142   0.24686   0.00000  Uiso   1.00
O256   O     0.53852   0.42858   0.25314   0.00000  Uiso   1.00
O257   O     0.56163   0.58086   0.25503   0.00000  Uiso   1.00
O258   O     0.43837   0.41914   0.24498   0.00000  Uiso   1.00
O259   O     0.42185   0.49263   0.30855   0.00000  Uiso   1.00
O260   O     0.57815   0.50737   0.19146   0.00000  Uiso   1.00
O261   O     0.52199   0.50207   0.31671   0.00000  Uiso   1.00
O262   O     0.47801   0.49793   0.18329   0.00000  Uiso   1.00
O263   O     0.45507   0.45976   0.11176   0.00000  Uiso   1.00
H264   H     0.45324   0.43105   0.13136   0.00000  Uiso   1.00
O265   O     0.51856   0.55006   0.39740   0.00000  Uiso   1.00
H266   H     0.52138   0.57047   0.42486   0.00000  Uiso   1.00
O267   O     0.34194   0.53030   0.11785   0.00000  Uiso   1.00
H268   H     0.33760   0.50021   0.13667   0.00000  Uiso   1.00
O269   O     0.66658   0.42786   0.37282   0.00000  Uiso   1.00
H270   H     0.65966   0.45900   0.36019   0.00000  Uiso   1.00
C271   C     0.84839   0.60008   0.25131   0.00000  Uiso   1.00
C272   C     0.81826   0.39991   0.24872   0.00000  Uiso   1.00
C273   C     0.77171   0.42765   0.03025   0.00000  Uiso   1.00
C274   C     0.91055   0.51005   0.45527   0.00000  Uiso   1.00
C275   C     0.72927   0.41421   0.00403   0.00000  Uiso   1.00
C276   C     0.95453   0.52068   0.48050   0.00000  Uiso   1.00
C277   C     0.85687   0.65605   0.25197   0.00000  Uiso   1.00
C278   C     0.80976   0.34396   0.24810   0.00000  Uiso   1.00
C279   C     0.79390   0.49510   0.33336   0.00000  Uiso   1.00
C280   C     0.87216   0.50088   0.16634   0.00000  Uiso   1.00
C281   C     0.76833   0.48331   0.38080   0.00000  Uiso   1.00
C282   C     0.89620   0.49748   0.11739   0.00000  Uiso   1.00
C283   C     0.69801   0.42456   0.43836   0.00000  Uiso   1.00
C284   C     0.97975   0.52352   0.05043   0.00000  Uiso   1.00
C285   C     0.71065   0.44590   0.39692   0.00000  Uiso   1.00
C286   C     0.96157   0.51620   0.09574   0.00000  Uiso   1.00
C287   C     0.80808   0.50321   0.40891   0.00000  Uiso   1.00
C288   C     0.85191   0.47858   0.09146   0.00000  Uiso   1.00
C289   C     0.79928   0.47703   0.44889   0.00000  Uiso   1.00
C290   C     0.87137   0.48366   0.04493   0.00000  Uiso   1.00
C291   C     0.74188   0.43892   0.46396   0.00000  Uiso   1.00
C292   C     0.93523   0.50944   0.02531   0.00000  Uiso   1.00
C293   C     0.84591   0.48621   0.47378   0.00000  Uiso   1.00
C294   C     0.82874   0.46644   0.01728   0.00000  Uiso   1.00
Cu295  Cu    0.77404   0.49441   0.24517   0.00000  Uiso   1.00
Cu296  Cu    0.89263   0.50559   0.25484   0.00000  Uiso   1.00
H297   H     0.68638   0.38383   0.01511   0.00000  Uiso   1.00
H298   H     0.67049   0.53889   0.46495   0.00000  Uiso   1.00
H299   H     0.98733   0.39555   0.45016   0.00000  Uiso   1.00
H300   H     0.69603   0.54068   0.03475   0.00000  Uiso   1.00
H301   H     0.76086   0.40388   0.05897   0.00000  Uiso   1.00
H302   H     0.92886   0.51844   0.42059   0.00000  Uiso   1.00
H303   H     0.90225   0.34654   0.25563   0.00000  Uiso   1.00
H304   H     0.76437   0.65346   0.24444   0.00000  Uiso   1.00
H305   H     0.66788   0.53825   0.28452   0.00000  Uiso   1.00
H306   H     0.99876   0.46169   0.21552   0.00000  Uiso   1.00
N307   N     0.98173   0.51401   0.26212   0.00000  Uiso   1.00
N308   N     0.68494   0.48599   0.23788   0.00000  Uiso   1.00
O309   O     0.79482   0.57142   0.24686   0.00000  Uiso   1.00
O310   O     0.87185   0.42858   0.25314   0.00000  Uiso   1.00
O311   O     0.89496   0.58086   0.25503   0.00000  Uiso   1.00
O312   O     0.77171   0.41914   0.24498   0.00000  Uiso   1.00
O313   O     0.75518   0.49263   0.30855   0.00000  Uiso   1.00
O314   O     0.91149   0.50737   0.19146   0.00000  Uiso   1.00
O315   O     0.85532   0.50207   0.31671   0.00000  Uiso   1.00
O316   O     0.81134   0.49793   0.18329   0.00000  Uiso   1.00
O317   O     0.78840   0.45976   0.11176   0.00000  Uiso   1.00
H318   H     0.78657   0.43105   0.13136   0.00000  Uiso   1.00
O319   O     0.85189   0.55006   0.39740   0.00000  Uiso   1.00
H320   H     0.85471   0.57047   0.42486   0.00000  Uiso   1.00
O321   O     0.67527   0.53030   0.11785   0.00000  Uiso   1.00
H322   H     0.67094   0.50021   0.13667   0.00000  Uiso   1.00
O323   O     0.99992   0.42786   0.37282   0.00000  Uiso   1.00
H324   H     0.99299   0.45900   0.36019   0.00000  Uiso   1.00
C325   C     0.18172   0.93342   0.25131   0.00000  Uiso   1.00
C326   C     0.15160   0.73325   0.24872   0.00000  Uiso   1.00
C327   C     0.10504   0.76098   0.03025   0.00000  Uiso   1.00
C328   C     0.24388   0.84338   0.45527   0.00000  Uiso   1.00
C329   C     0.06260   0.74754   0.00403   0.00000  Uiso   1.00
C330   C     0.28787   0.85401   0.48050   0.00000  Uiso   1.00
C331   C     0.19020   0.98938   0.25197   0.00000  Uiso   1.00
C332   C     0.14310   0.67729   0.24810   0.00000  Uiso   1.00
C333   C     0.12724   0.82843   0.33336   0.00000  Uiso   1.00
C334   C     0.20549   0.83421   0.16634   0.00000  Uiso   1.00
C335   C     0.10167   0.81665   0.38080   0.00000  Uiso   1.00
C336   C     0.22953   0.83081   0.11739   0.00000  Uiso   1.00
C337   C     0.03134   0.75789   0.43836   0.00000  Uiso   1.00
C338   C     0.31308   0.85685   0.05043   0.00000  Uiso   1.00
C339   C     0.04398   0.77923   0.39692   0.00000  Uiso   1.00
C340   C     0.29491   0.84954   0.09574   0.00000  Uiso   1.00
C341   C     0.14142   0.83655   0.40891   0.00000  Uiso   1.00
C342   C     0.18524   0.81191   0.09146   0.00000  Uiso   1.00
C343   C     0.13262   0.81036   0.44889   0.00000  Uiso   1.00
C344   C     0.20471   0.81700   0.04493   0.00000  Uiso   1.00
C345   C     0.07521   0.77225   0.46396   0.00000  Uiso   1.00
C346   C     0.26856   0.84277   0.02531   0.00000  Uiso   1.00
C347   C     0.17924   0.81955   0.47378   0.00000  Uiso   1.00
C348   C     0.16207   0.79977   0.01728   0.00000  Uiso   1.00
Cu349  Cu    0.10737   0.82775   0.24517   0.00000  Uiso   1.00
Cu350  Cu    0.22596   0.83892   0.25484   0.00000  Uiso   1.00
H351   H     0.01972   0.71716   0.01511   0.00000  Uiso   1.00
H352   H     0.00382   0.87222   0.46495   0.00000  Uiso   1.00
H353   H     0.32067   0.72888   0.45016   0.00000  Uiso   1.00
H354   H     0.02936   0.87401   0.03475   0.00000  Uiso   1.00
H355   H     0.09419   0.73721   0.05897   0.00000  Uiso   1.00
H356   H     0.26220   0.85178   0.42059   0.00000  Uiso   1.00
H357   H     0.23559   0.67988   0.25563   0.00000  Uiso   1.00
H358   H     0.09771   0.98679   0.24444   0.00000  Uiso   1.00
H359   H     0.00121   0.87158   0.28452   0.00000  Uiso   1.00
H360   H     0.33209   0.79502   0.21552   0.00000  Uiso   1.00
N361   N     0.31506   0.84735   0.26212   0.00000  Uiso   1.00
N362   N     0.01827   0.81932   0.23788   0.00000  Uiso   1.00
O363   O     0.12815   0.90476   0.24686   0.00000  Uiso   1.00
O364   O     0.20518   0.76191   0.25314   0.00000  Uiso   1.00
O365   O     0.22829   0.91420   0.25503   0.00000  Uiso   1.00
O366   O     0.10504   0.75247   0.24498   0.00000  Uiso   1.00
O367   O     0.08851   0.82597   0.30855   0.00000  Uiso   1.00
O368   O     0.24482   0.84070   0.19146   0.00000  Uiso   1.00
O369   O     0.18866   0.83540   0.31671   0.00000  Uiso   1.00
O370   O     0.14468   0.83126   0.18329   0.00000  Uiso   1.00
O371   O     0.12173   0.79309   0.11176   0.00000  Uiso   1.00
H372   H     0.11991   0.76438   0.13136   0.00000  Uiso   1.00
O373   O     0.18522   0.88340   0.39740   0.00000  Uiso   1.00
H374   H     0.18805   0.90381   0.42486   0.00000  Uiso   1.00
O375   O     0.00860   0.86364   0.11785   0.00000  Uiso   1.00
H376   H     0.00427   0.83354   0.13667   0.00000  Uiso   1.00
O377   O     0.33325   0.76120   0.37282   0.00000  Uiso   1.00
H378   H     0.32633   0.79233   0.36019   0.00000  Uiso   1.00
C379   C     0.51506   0.93342   0.25131   0.00000  Uiso   1.00
C380   C     0.48493   0.73325   0.24872   0.00000  Uiso   1.00
C381   C     0.43837   0.76098   0.03025   0.00000  Uiso   1.00
C382   C     0.57722   0.84338   0.45527   0.00000  Uiso   1.00
C383   C     0.39593   0.74754   0.00403   0.00000  Uiso   1.00
C384   C     0.62120   0.85401   0.48050   0.00000  Uiso   1.00
C385   C     0.52353   0.98938   0.25197   0.00000  Uiso   1.00
C386   C     0.47643   0.67729   0.24810   0.00000  Uiso   1.00
C387   C     0.46057   0.82843   0.33336   0.00000  Uiso   1.00
C388   C     0.53882   0.83421   0.16634   0.00000  Uiso   1.00
C389   C     0.43500   0.81665   0.38080   0.00000  Uiso   1.00
C390   C     0.56287   0.83081   0.11739   0.00000  Uiso   1.00
C391   C     0.36467   0.75789   0.43836   0.00000  Uiso   1.00
C392   C     0.64641   0.85685   0.05043   0.00000  Uiso   1.00
C393   C     0.37731   0.77923   0.39692   0.00000  Uiso   1.00
C394   C     0.62824   0.84954   0.09574   0.00000  Uiso   1.00
C395   C     0.47475   0.83655   0.40891   0.00000  Uiso   1.00
C396   C     0.51858   0.81191   0.09146   0.00000  Uiso   1.00
C397   C     0.46595   0.81036   0.44889   0.00000  Uiso   1.00
C398   C     0.53804   0.81700   0.04493   0.00000  Uiso   1.00
C399   C     0.40855   0.77225   0.46396   0.00000  Uiso   1.00
C400   C     0.60190   0.84277   0.02531   0.00000  Uiso   1.00
C401   C     0.51258   0.81955   0.47378   0.00000  Uiso   1.00
C402   C     0.49540   0.79977   0.01728   0.00000  Uiso   1.00
Cu403  Cu    0.44071   0.82775   0.24517   0.00000  Uiso   1.00
Cu404  Cu    0.55929   0.83892   0.25484   0.00000  Uiso   1.00
H405   H     0.35305   0.71716   0.01511   0.00000  Uiso   1.00
H406   H     0.33715   0.87222   0.46495   0.00000  Uiso   1.00
H407   H     0.65400   0.72888   0.45016   0.00000  Uiso   1.00
H408   H     0.36269   0.87401   0.03475   0.00000  Uiso   1.00
H409   H     0.42752   0.73721   0.05897   0.00000  Uiso   1.00
H410   H     0.59553   0.85178   0.42059   0.00000  Uiso   1.00
H411   H     0.56892   0.67988   0.25563   0.00000  Uiso   1.00
H412   H     0.43104   0.98679   0.24444   0.00000  Uiso   1.00
H413   H     0.33455   0.87158   0.28452   0.00000  Uiso   1.00
H414   H     0.66543   0.79502   0.21552   0.00000  Uiso   1.00
N415   N     0.64839   0.84735   0.26212   0.00000  Uiso   1.00
N416   N     0.35161   0.81932   0.23788   0.00000  Uiso   1.00
O417   O     0.46148   0.90476   0.24686   0.00000  Uiso   1.00
O418   O     0.53852   0.76191   0.25314   0.00000  Uiso   1.00
O419   O     0.56163   0.91420   0.25503   0.00000  Uiso   1.00
O420   O     0.43837   0.75247   0.24498   0.00000  Uiso   1.00
O421   O     0.42185   0.82597   0.30855   0.00000  Uiso   1.00
O422   O     0.57815   0.84070   0.19146   0.00000  Uiso   1.00
O423   O     0.52199   0.83540   0.31671   0.00000  Uiso   1.00
O424   O     0.47801   0.83126   0.18329   0.00000  Uiso   1.00
O425   O     0.45507   0.79309   0.11176   0.00000  Uiso   1.00
H426   H     0.45324   0.76438   0.13136   0.00000  Uiso   1.00
O427   O     0.51856   0.88340   0.39740   0.00000  Uiso   1.00
H428   H     0.52138   0.90381   0.42486   0.00000  Uiso   1.00
O429   O     0.34194   0.86364   0.11785   0.00000  Uiso   1.00
H430   H     0.33760   0.83354   0.13667   0.00000  Uiso   1.00
O431   O     0.66658   0.76120   0.37282   0.00000  Uiso   1.00
H432   H     0.65966   0.79233   0.36019   0.00000  Uiso   1.00
C433   C     0.84839   0.93342   0.25131   0.00000  Uiso   1.00
C434   C     0.81826   0.73325   0.24872   0.00000  Uiso   1.00
C435   C     0.77171   0.76098   0.03025   0.00000  Uiso   1.00
C436   C     0.91055   0.84338   0.45527   0.00000  Uiso   1.00
C437   C     0.72927   0.74754   0.00403   0.00000  Uiso   1.00
C438   C     0.95453   0.85401   0.48050   0.00000  Uiso   1.00
C439   C     0.85687   0.98938   0.25197   0.00000  Uiso   1.00
C440   C     0.80976   0.67729   0.24810   0.00000  Uiso   1.00
C441   C     0.79390   0.82843   0.33336   0.00000  Uiso   1.00
C442   C     0.87216   0.83421   0.16634   0.00000  Uiso   1.00
C443   C     0.76833   0.81665   0.38080   0.00000  Uiso   1.00
C444   C     0.89620   0.83081   0.11739   0.00000  Uiso   1.00
C445   C     0.69801   0.75789   0.43836   0.00000  Uiso   1.00
C446   C     0.97975   0.85685   0.05043   0.00000  Uiso   1.00
C447   C     0.71065   0.77923   0.39692   0.00000  Uiso   1.00
C448   C     0.96157   0.84954   0.09574   0.00000  Uiso   1.00
C449   C     0.80808   0.83655   0.40891   0.00000  Uiso   1.00
C450   C     0.85191   0.81191   0.09146   0.00000  Uiso   1.00
C451   C     0.79928   0.81036   0.44889   0.00000  Uiso   1.00
C452   C     0.87137   0.81700   0.04493   0.00000  Uiso   1.00
C453   C     0.74188   0.77225   0.46396   0.00000  Uiso   1.00
C454   C     0.93523   0.84277   0.02531   0.00000  Uiso   1.00
C455   C     0.84591   0.81955   0.47378   0.00000  Uiso   1.00
C456   C     0.82874   0.79977   0.01728   0.00000  Uiso   1.00
Cu457  Cu    0.77404   0.82775   0.24517   0.00000  Uiso   1.00
Cu458  Cu    0.89263   0.83892   0.25484   0.00000  Uiso   1.00
H459   H     0.68638   0.71716   0.01511   0.00000  Uiso   1.00
H460   H     0.67049   0.87222   0.46495   0.00000  Uiso   1.00
H461   H     0.98733   0.72888   0.45016   0.00000  Uiso   1.00
H462   H     0.69603   0.87401   0.03475   0.00000  Uiso   1.00
H463   H     0.76086   0.73721   0.05897   0.00000  Uiso   1.00
H464   H     0.92886   0.85178   0.42059   0.00000  Uiso   1.00
H465   H     0.90225   0.67988   0.25563   0.00000  Uiso   1.00
H466   H     0.76437   0.98679   0.24444   0.00000  Uiso   1.00
H467   H     0.66788   0.87158   0.28452   0.00000  Uiso   1.00
H468   H     0.99876   0.79502   0.21552   0.00000  Uiso   1.00
N469   N     0.98173   0.84735   0.26212   0.00000  Uiso   1.00
N470   N     0.68494   0.81932   0.23788   0.00000  Uiso   1.00
O471   O     0.79482   0.90476   0.24686   0.00000  Uiso   1.00
O472   O     0.87185   0.76191   0.25314   0.00000  Uiso   1.00
O473   O     0.89496   0.91420   0.25503   0.00000  Uiso   1.00
O474   O     0.77171   0.75247   0.24498   0.00000  Uiso   1.00
O475   O     0.75518   0.82597   0.30855   0.00000  Uiso   1.00
O476   O     0.91149   0.84070   0.19146   0.00000  Uiso   1.00
O477   O     0.85532   0.83540   0.31671   0.00000  Uiso   1.00
O478   O     0.81134   0.83126   0.18329   0.00000  Uiso   1.00
O479   O     0.78840   0.79309   0.11176   0.00000  Uiso   1.00
H480   H     0.78657   0.76438   0.13136   0.00000  Uiso   1.00
O481   O     0.85189   0.88340   0.39740   0.00000  Uiso   1.00
H482   H     0.85471   0.90381   0.42486   0.00000  Uiso   1.00
O483   O     0.67527   0.86364   0.11785   0.00000  Uiso   1.00
H484   H     0.67094   0.83354   0.13667   0.00000  Uiso   1.00
O485   O     0.99992   0.76120   0.37282   0.00000  Uiso   1.00
H486   H     0.99299   0.79233   0.36019   0.00000  Uiso   1.00
C487   C     0.18172   0.26675   0.75131   0.00000  Uiso   1.00
C488   C     0.15160   0.06658   0.74872   0.00000  Uiso   1.00
C489   C     0.10504   0.09432   0.53025   0.00000  Uiso   1.00
C490   C     0.24388   0.17671   0.95527   0.00000  Uiso   1.00
C491   C     0.06260   0.08087   0.50403   0.00000  Uiso   1.00
C492   C     0.28787   0.18735   0.98050   0.00000  Uiso   1.00
C493   C     0.19020   0.32271   0.75197   0.00000  Uiso   1.00
C494   C     0.14310   0.01062   0.74810   0.00000  Uiso   1.00
C495   C     0.12724   0.16176   0.83336   0.00000  Uiso   1.00
C496   C     0.20549   0.16754   0.66634   0.00000  Uiso   1.00
C497   C     0.10167   0.14998   0.88080   0.00000  Uiso   1.00
C498   C     0.22953   0.16415   0.61739   0.00000  Uiso   1.00
C499   C     0.03134   0.09122   0.93836   0.00000  Uiso   1.00
C500   C     0.31308   0.19018   0.55043   0.00000  Uiso   1.00
C501   C     0.04398   0.11257   0.89692   0.00000  Uiso   1.00
C502   C     0.29491   0.18287   0.59574   0.00000  Uiso   1.00
C503   C     0.14142   0.16988   0.90891   0.00000  Uiso   1.00
C504   C     0.18524   0.14525   0.59146   0.00000  Uiso   1.00
C505   C     0.13262   0.14370   0.94889   0.00000  Uiso   1.00
C506   C     0.20471   0.15033   0.54493   0.00000  Uiso   1.00
C507   C     0.07521   0.10559   0.96396   0.00000  Uiso   1.00
C508   C     0.26856   0.17610   0.52531   0.00000  Uiso   1.00
C509   C     0.17924   0.15288   0.97378   0.00000  Uiso   1.00
C510   C     0.16207   0.13311   0.51728   0.00000  Uiso   1.00
Cu511  Cu    0.10737   0.16108   0.74517   0.00000  Uiso   1.00
Cu512  Cu    0.22596   0.17225   0.75484   0.00000  Uiso   1.00
H513   H     0.01972   0.05049   0.51511   0.00000  Uiso   1.00
H514   H     0.00382   0.20556   0.96495   0.00000  Uiso   1.00
H515   H     0.32067   0.06221   0.95016   0.00000  Uiso   1.00
H516   H     0.02936   0.20735   0.53475   0.00000  Uiso   1.00
H517   H     0.09419   0.07054   0.55897   0.00000  Uiso   1.00
H518   H     0.26220   0.18511   0.92059   0.00000  Uiso   1.00
H519   H     0.23559   0.01321   0.75563   0.00000  Uiso   1.00
H520   H     0.09771   0.32013   0.74444   0.00000  Uiso   1.00
H521   H     0.00121   0.20491   0.78452   0.00000  Uiso   1.00
H522   H     0.33209   0.12835   0.71552   0.00000  Uiso   1.00
N523   N     0.31506   0.18068   0.76212   0.00000  Uiso   1.00
N524   N     0.01827   0.15265   0.73788   0.00000  Uiso   1.00
O525   O     0.12815   0.23809   0.74686   0.00000  Uiso   1.00
O526   O     0.20518   0.09524   0.75314   0.00000  Uiso   1.00
O527   O     0.22829   0.24753   0.75503   0.00000  Uiso   1.00
O528   O     0.10504   0.08580   0.74498   0.00000  Uiso   1.00
O529   O     0.08851   0.15930   0.80855   0.00000  Uiso   1.00
O530   O     0.24482   0.17403   0.69146   0.00000  Uiso   1.00
O531   O     0.18866   0.16874   0.81671   0.00000  Uiso   1.00
O532   O     0.14468   0.16460   0.68329   0.00000  Uiso   1.00
O533   O     0.12173   0.12643   0.61176   0.00000  Uiso   1.00
H534   H     0.11991   0.09771   0.63136   0.00000  Uiso   1.00
O535   O     0.18522   0.21673   0.89740   0.00000  Uiso   1.00
H536   H     0.18805   0.23714   0.92486   0.00000  Uiso   1.00
O537   O     0.00860   0.19697   0.61785   0.00000  Uiso   1.00
H538   H     0.00427   0.16687   0.63667   0.00000  Uiso   1.00
O539   O     0.33325   0.09453   0.87282   0.00000  Uiso   1.00
H540   H     0.32633   0.12566   0.86019   0.00000  Uiso   1.00
C541   C     0.51506   0.26675   0.75131   0.00000  Uiso   1.00
C542   C     0.48493   0.06658   0.74872   0.00000  Uiso   1.00
C543   C     0.43837   0.09432   0.53025   0.00000  Uiso   1.00
C544   C     0.57722   0.17671   0.95527   0.00000  Uiso   1.00
C545   C     0.39593   0.08087   0.50403   0.00000  Uiso   1.00
C546   C     0.62120   0.18735   0.98050   0.00000  Uiso   1.00
C547   C     0.52353   0.32271   0.75197   0.00000  Uiso   1.00
C548   C     0.47643   0.01062   0.74810   0.00000  Uiso   1.00
C549   C     0.46057   0.16176   0.83336   0.00000  Uiso   1.00
C550   C     0.53882   0.16754   0.66634   0.00000  Uiso   1.00
C551   C     0.43500   0.14998   0.88080   0.00000  Uiso   1.00
C552   C     0.56287   0.16415   0.61739   0.00000  Uiso   1.00
C553   C     0.36467   0.09122   0.93836   0.00000  Uiso   1.00
C554   C     0.64641   0.19018   0.55043   0.00000  Uiso   1.00
C555   C     0.37731   0.11257   0.89692   0.00000  Uiso   1.00
C556   C     0.62824   0.18287   0.59574   0.00000  Uiso   1.00
C557   C     0.47475   0.16988   0.90891   0.00000  Uiso   1.00
C558   C     0.51858   0.14525   0.59146   0.00000  Uiso   1.00
C559   C     0.46595   0.14370   0.94889   0.00000  Uiso   1.00
C560   C     0.53804   0.15033   0.54493   0.00000  Uiso   1.00
C561   C     0.40855   0.10559   0.96396   0.00000  Uiso   1.00
C562   C     0.60190   0.17610   0.52531   0.00000  Uiso   1.00
C563   C     0.51258   0.15288   0.97378   0.00000  Uiso   1.00
C564   C     0.49540   0.13311   0.51728   0.00000  Uiso   1.00
Cu565  Cu    0.44071   0.16108   0.74517   0.00000  Uiso   1.00
Cu566  Cu    0.55929   0.17225   0.75484   0.00000  Uiso   1.00
H567   H     0.35305   0.05049   0.51511   0.00000  Uiso   1.00
H568   H     0.33715   0.20556   0.96495   0.00000  Uiso   1.00
H569   H     0.65400   0.06221   0.95016   0.00000  Uiso   1.00
H570   H     0.36269   0.20735   0.53475   0.00000  Uiso   1.00
H571   H     0.42752   0.07054   0.55897   0.00000  Uiso   1.00
H572   H     0.59553   0.18511   0.92059   0.00000  Uiso   1.00
H573   H     0.56892   0.01321   0.75563   0.00000  Uiso   1.00
H574   H     0.43104   0.32013   0.74444   0.00000  Uiso   1.00
H575   H     0.33455   0.20491   0.78452   0.00000  Uiso   1.00
H576   H     0.66543   0.12835   0.71552   0.00000  Uiso   1.00
N577   N     0.64839   0.18068   0.76212   0.00000  Uiso   1.00
N578   N     0.35161   0.15265   0.73788   0.00000  Uiso   1.00
O579   O     0.46148   0.23809   0.74686   0.00000  Uiso   1.00
O580   O     0.53852   0.09524   0.75314   0.00000  Uiso   1.00
O581   O     0.56163   0.24753   0.75503   0.00000  Uiso   1.00
O582   O     0.43837   0.08580   0.74498   0.00000  Uiso   1.00
O583   O     0.42185   0.15930   0.80855   0.00000  Uiso   1.00
O584   O     0.57815   0.17403   0.69146   0.00000  Uiso   1.00
O585   O     0.52199   0.16874   0.81671   0.00000  Uiso   1.00
O586   O     0.47801   0.16460   0.68329   0.00000  Uiso   1.00
O587   O     0.45507   0.12643   0.61176   0.00000  Uiso   1.00
H588   H     0.45324   0.09771   0.63136   0.00000  Uiso   1.00
O589   O     0.51856   0.21673   0.89740   0.00000  Uiso   1.00
H590   H     0.52138   0.23714   0.92486   0.00000  Uiso   1.00
O591   O     0.34194   0.19697   0.61785   0.00000  Uiso   1.00
H592   H     0.33760   0.16687   0.63667   0.00000  Uiso   1.00
O593   O     0.66658   0.09453   0.87282   0.00000  Uiso   1.00
H594   H     0.65966   0.12566   0.86019   0.00000  Uiso   1.00
C595   C     0.84839   0.26675   0.75131   0.00000  Uiso   1.00
C596   C     0.81826   0.06658   0.74872   0.00000  Uiso   1.00
C597   C     0.77171   0.09432   0.53025   0.00000  Uiso   1.00
C598   C     0.91055   0.17671   0.95527   0.00000  Uiso   1.00
C599   C     0.72927   0.08087   0.50403   0.00000  Uiso   1.00
C600   C     0.95453   0.18735   0.98050   0.00000  Uiso   1.00
C601   C     0.85687   0.32271   0.75197   0.00000  Uiso   1.00
C602   C     0.80976   0.01062   0.74810   0.00000  Uiso   1.00
C603   C     0.79390   0.16176   0.83336   0.00000  Uiso   1.00
C604   C     0.87216   0.16754   0.66634   0.00000  Uiso   1.00
C605   C     0.76833   0.14998   0.88080   0.00000  Uiso   1.00
C606   C     0.89620   0.16415   0.61739   0.00000  Uiso   1.00
C607   C     0.69801   0.09122   0.93836   0.00000  Uiso   1.00
C608   C     0.97975   0.19018   0.55043   0.00000  Uiso   1.00
C609   C     0.71065   0.11257   0.89692   0.00000  Uiso   1.00
C610   C     0.96157   0.18287   0.59574   0.00000  Uiso   1.00
C611   C     0.80808   0.16988   0.90891   0.00000  Uiso   1.00
C612   C     0.85191   0.14525   0.59146   0.00000  Uiso   1.00
C613   C     0.79928   0.14370   0.94889   0.00000  Uiso   1.00
C614   C     0.87137   0.15033   0.54493   0.00000  Uiso   1.00
C615   C     0.74188   0.10559   0.96396   0.00000  Uiso   1.00
C616   C     0.93523   0.17610   0.52531   0.00000  Uiso   1.00
C617   C     0.84591   0.15288   0.97378   0.00000  Uiso   1.00
C618   C     0.82874   0.13311   0.51728   0.00000  Uiso   1.00
Cu619  Cu    0.77404   0.16108   0.74517   0.00000  Uiso   1.00
Cu620  Cu    0.89263   0.17225   0.75484   0.00000  Uiso   1.00
H621   H     0.68638   0.05049   0.51511   0.00000  Uiso   1.00
H622   H     0.67049   0.20556   0.96495   0.00000  Uiso   1.00
H623   H     0.98733   0.06221   0.95016   0.00000  Uiso   1.00
H624   H     0.69603   0.20735   0.53475   0.00000  Uiso   1.00
H625   H     0.76086   0.07054   0.55897   0.00000  Uiso   1.00
H626   H     0.92886   0.18511   0.92059   0.00000  Uiso   1.00
H627   H     0.90225   0.01321   0.75563   0.00000  Uiso   1.00
H628   H     0.76437   0.32013   0.74444   0.00000  Uiso   1.00
H629   H     0.66788   0.20491   0.78452   0.00000  Uiso   1.00
H630   H     0.99876   0.12835   0.71552   0.00000  Uiso   1.00
N631   N     0.98173   0.18068   0.76212   0.00000  Uiso   1.00
N632   N     0.68494   0.15265   0.73788   0.00000  Uiso   1.00
O633   O     0.79482   0.23809   0.74686   0.00000  Uiso   1.00
O634   O     0.87185   0.09524   0.75314   0.00000  Uiso   1.00
O635   O     0.89496   0.24753   0.75503   0.00000  Uiso   1.00
O636   O     0.77171   0.08580   0.74498   0.00000  Uiso   1.00
O637   O     0.75518   0.15930   0.80855   0.00000  Uiso   1.00
O638   O     0.91149   0.17403   0.69146   0.00000  Uiso   1.00
O639   O     0.85532   0.16874   0.81671   0.00000  Uiso   1.00
O640   O     0.81134   0.16460   0.68329   0.00000  Uiso   1.00
O641   O     0.78840   0.12643   0.61176   0.00000  Uiso   1.00
H642   H     0.78657   0.09771   0.63136   0.00000  Uiso   1.00
O643   O     0.85189   0.21673   0.89740   0.00000  Uiso   1.00
H644   H     0.85471   0.23714   0.92486   0.00000  Uiso   1.00
O645   O     0.67527   0.19697   0.61785   0.00000  Uiso   1.00
H646   H     0.67094   0.16687   0.63667   0.00000  Uiso   1.00
O647   O     0.99992   0.09453   0.87282   0.00000  Uiso   1.00
H648   H     0.99299   0.12566   0.86019   0.00000  Uiso   1.00
C649   C     0.18172   0.60008   0.75131   0.00000  Uiso   1.00
C650   C     0.15160   0.39991   0.74872   0.00000  Uiso   1.00
C651   C     0.10504   0.42765   0.53025   0.00000  Uiso   1.00
C652   C     0.24388   0.51005   0.95527   0.00000  Uiso   1.00
C653   C     0.06260   0.41421   0.50403   0.00000  Uiso   1.00
C654   C     0.28787   0.52068   0.98050   0.00000  Uiso   1.00
C655   C     0.19020   0.65605   0.75197   0.00000  Uiso   1.00
C656   C     0.14310   0.34396   0.74810   0.00000  Uiso   1.00
C657   C     0.12724   0.49510   0.83336   0.00000  Uiso   1.00
C658   C     0.20549   0.50088   0.66634   0.00000  Uiso   1.00
C659   C     0.10167   0.48331   0.88080   0.00000  Uiso   1.00
C660   C     0.22953   0.49748   0.61739   0.00000  Uiso   1.00
C661   C     0.03134   0.42456   0.93836   0.00000  Uiso   1.00
C662   C     0.31308   0.52352   0.55043   0.00000  Uiso   1.00
C663   C     0.04398   0.44590   0.89692   0.00000  Uiso   1.00
C664   C     0.29491   0.51620   0.59574   0.00000  Uiso   1.00
C665   C     0.14142   0.50321   0.90891   0.00000  Uiso   1.00
C666   C     0.18524   0.47858   0.59146   0.00000  Uiso   1.00
C667   C     0.13262   0.47703   0.94889   0.00000  Uiso   1.00
C668   C     0.20471   0.48366   0.54493   0.00000  Uiso   1.00
C669   C     0.07521   0.43892   0.96396   0.00000  Uiso   1.00
C670   C     0.26856   0.50944   0.52531   0.00000  Uiso   1.00
C671   C     0.17924   0.48621   0.97378   0.00000  Uiso   1.00
C672   C     0.16207   0.46644   0.51728   0.00000  Uiso   1.00
Cu673  Cu    0.10737   0.49441   0.74517   0.00000  Uiso   1.00
Cu674  Cu    0.22596   0.50559   0.75484   0.00000  Uiso   1.00
H675   H     0.01972   0.38383   0.51511   0.00000  Uiso   1.00
H676   H     0.00382   0.53889   0.96495   0.00000  Uiso   1.00
H677   H     0.32067   0.39555   0.95016   0.00000  Uiso   1.00
H678   H     0.02936   0.54068   0.53475   0.00000  Uiso   1.00
H679   H     0.09419   0.40388   0.55897   0.00000  Uiso   1.00
H680   H     0.26220   0.51844   0.92059   0.00000  Uiso   1.00
H681   H     0.23559   0.34654   0.75563   0.00000  Uiso   1.00
H682   H     0.09771   0.65346   0.74444   0.00000  Uiso   1.00
H683   H     0.00121   0.53825   0.78452   0.00000  Uiso   1.00
H684   H     0.33209   0.46169   0.71552   0.00000  Uiso   1.00
N685   N     0.31506   0.51401   0.76212   0.00000  Uiso   1.00
N686   N     0.01827   0.48599   0.73788   0.00000  Uiso   1.00
O687   O     0.12815   0.57142   0.74686   0.00000  Uiso   1.00
O688   O     0.20518   0.42858   0.75314   0.00000  Uiso   1.00
O689   O     0.22829   0.58086   0.75503   0.00000  Uiso   1.00
O690   O     0.10504   0.41914   0.74498   0.00000  Uiso   1.00
O691   O     0.08851   0.49263   0.80855   0.00000  Uiso   1.00
O692   O     0.24482   0.50737   0.69146   0.00000  Uiso   1.00
O693   O     0.18866   0.50207   0.81671   0.00000  Uiso   1.00
O694   O     0.14468   0.49793   0.68329   0.00000  Uiso   1.00
O695   O     0.12173   0.45976   0.61176   0.00000  Uiso   1.00
H696   H     0.11991   0.43105   0.63136   0.00000  Uiso   1.00
O697   O     0.18522   0.55006   0.89740   0.00000  Uiso   1.00
H698   H     0.18805   0.57047   0.92486   0.00000  Uiso   1.00
O699   O     0.00860   0.53030   0.61785   0.00000  Uiso   1.00
H700   H     0.00427   0.50021   0.63667   0.00000  Uiso   1.00
O701   O     0.33325   0.42786   0.87282   0.00000  Uiso   1.00
H702   H     0.32633   0.45900   0.86019   0.00000  Uiso   1.00
C703   C     0.51506   0.60008   0.75131   0.00000  Uiso   1.00
C704   C     0.48493   0.39991   0.74872   0.00000  Uiso   1.00
C705   C     0.43837   0.42765   0.53025   0.00000  Uiso   1.00
C706   C     0.57722   0.51005   0.95527   0.00000  Uiso   1.00
C707   C     0.39593   0.41421   0.50403   0.00000  Uiso   1.00
C708   C     0.62120   0.52068   0.98050   0.00000  Uiso   1.00
C709   C     0.52353   0.65605   0.75197   0.00000  Uiso   1.00
C710   C     0.47643   0.34396   0.74810   0.00000  Uiso   1.00
C711   C     0.46057   0.49510   0.83336   0.00000  Uiso   1.00
C712   C     0.53882   0.50088   0.66634   0.00000  Uiso   1.00
C713   C     0.43500   0.48331   0.88080   0.00000  Uiso   1.00
C714   C     0.56287   0.49748   0.61739   0.00000  Uiso   1.00
C715   C     0.36467   0.42456   0.93836   0.00000  Uiso   1.00
C716   C     0.64641   0.52352   0.55043   0.00000  Uiso   1.00
C717   C     0.37731   0.44590   0.89692   0.00000  Uiso   1.00
C718   C     0.62824   0.51620   0.59574   0.00000  Uiso   1.00
C719   C     0.47475   0.50321   0.90891   0.00000  Uiso   1.00
C720   C     0.51858   0.47858   0.59146   0.00000  Uiso   1.00
C721   C     0.46595   0.47703   0.94889   0.00000  Uiso   1.00
C722   C     0.53804   0.48366   0.54493   0.00000  Uiso   1.00
C723   C     0.40855   0.43892   0.96396   0.00000  Uiso   1.00
C724   C     0.60190   0.50944   0.52531   0.00000  Uiso   1.00
C725   C     0.51258   0.48621   0.97378   0.00000  Uiso   1.00
C726   C     0.49540   0.46644   0.51728   0.00000  Uiso   1.00
Cu727  Cu    0.44071   0.49441   0.74517   0.00000  Uiso   1.00
Cu728  Cu    0.55929   0.50559   0.75484   0.00000  Uiso   1.00
H729   H     0.35305   0.38383   0.51511   0.00000  Uiso   1.00
H730   H     0.33715   0.53889   0.96495   0.00000  Uiso   1.00
H731   H     0.65400   0.39555   0.95016   0.00000  Uiso   1.00
H732   H     0.36269   0.54068   0.53475   0.00000  Uiso   1.00
H733   H     0.42752   0.40388   0.55897   0.00000  Uiso   1.00
H734   H     0.59553   0.51844   0.92059   0.00000  Uiso   1.00
H735   H     0.56892   0.34654   0.75563   0.00000  Uiso   1.00
H736   H     0.43104   0.65346   0.74444   0.00000  Uiso   1.00
H737   H     0.33455   0.53825   0.78452   0.00000  Uiso   1.00
H738   H     0.66543   0.46169   0.71552   0.00000  Uiso   1.00
N739   N     0.64839   0.51401   0.76212   0.00000  Uiso   1.00
N740   N     0.35161   0.48599   0.73788   0.00000  Uiso   1.00
O741   O     0.46148   0.57142   0.74686   0.00000  Uiso   1.00
O742   O     0.53852   0.42858   0.75314   0.00000  Uiso   1.00
O743   O     0.56163   0.58086   0.75503   0.00000  Uiso   1.00
O744   O     0.43837   0.41914   0.74498   0.00000  Uiso   1.00
O745   O     0.42185   0.49263   0.80855   0.00000  Uiso   1.00
O746   O     0.57815   0.50737   0.69146   0.00000  Uiso   1.00
O747   O     0.52199   0.50207   0.81671   0.00000  Uiso   1.00
O748   O     0.47801   0.49793   0.68329   0.00000  Uiso   1.00
O749   O     0.45507   0.45976   0.61176   0.00000  Uiso   1.00
H750   H     0.45324   0.43105   0.63136   0.00000  Uiso   1.00
O751   O     0.51856   0.55006   0.89740   0.00000  Uiso   1.00
H752   H     0.52138   0.57047   0.92486   0.00000  Uiso   1.00
O753   O     0.34194   0.53030   0.61785   0.00000  Uiso   1.00
H754   H     0.33760   0.50021   0.63667   0.00000  Uiso   1.00
O755   O     0.66658   0.42786   0.87282   0.00000  Uiso   1.00
H756   H     0.65966   0.45900   0.86019   0.00000  Uiso   1.00
C757   C     0.84839   0.60008   0.75131   0.00000  Uiso   1.00
C758   C     0.81826   0.39991   0.74872   0.00000  Uiso   1.00
C759   C     0.77171   0.42765   0.53025   0.00000  Uiso   1.00
C760   C     0.91055   0.51005   0.95527   0.00000  Uiso   1.00
C761   C     0.72927   0.41421   0.50403   0.00000  Uiso   1.00
C762   C     0.95453   0.52068   0.98050   0.00000  Uiso   1.00
C763   C     0.85687   0.65605   0.75197   0.00000  Uiso   1.00
C764   C     0.80976   0.34396   0.74810   0.00000  Uiso   1.00
C765   C     0.79390   0.49510   0.83336   0.00000  Uiso   1.00
C766   C     0.87216   0.50088   0.66634   0.00000  Uiso   1.00
C767   C     0.76833   0.48331   0.88080   0.00000  Uiso   1.00
C768   C     0.89620   0.49748   0.61739   0.00000  Uiso   1.00
C769   C     0.69801   0.42456   0.93836   0.00000  Uiso   1.00
C770   C     0.97975   0.52352   0.55043   0.00000  Uiso   1.00
C771   C     0.71065   0.44590   0.89692   0.00000  Uiso   1.00
C772   C     0.96157   0.51620   0.59574   0.00000  Uiso   1.00
C773   C     0.80808   0.50321   0.90891   0.00000  Uiso   1.00
C774   C     0.85191   0.47858   0.59146   0.00000  Uiso   1.00
C775   C     0.79928   0.47703   0.94889   0.00000  Uiso   1.00
C776   C     0.87137   0.48366   0.54493   0.00000  Uiso   1.00
C777   C     0.74188   0.43892   0.96396   0.00000  Uiso   1.00
C778   C     0.93523   0.50944   0.52531   0.00000  Uiso   1.00
C779   C     0.84591   0.48621   0.97378   0.00000  Uiso   1.00
C780   C     0.82874   0.46644   0.51728   0.00000  Uiso   1.00
Cu781  Cu    0.77404   0.49441   0.74517   0.00000  Uiso   1.00
Cu782  Cu    0.89263   0.50559   0.75484   0.00000  Uiso   1.00
H783   H     0.68638   0.38383   0.51511   0.00000  Uiso   1.00
H784   H     0.67049   0.53889   0.96495   0.00000  Uiso   1.00
H785   H     0.98733   0.39555   0.95016   0.00000  Uiso   1.00
H786   H     0.69603   0.54068   0.53475   0.00000  Uiso   1.00
H787   H     0.76086   0.40388   0.55897   0.00000  Uiso   1.00
H788   H     0.92886   0.51844   0.92059   0.00000  Uiso   1.00
H789   H     0.90225   0.34654   0.75563   0.00000  Uiso   1.00
H790   H     0.76437   0.65346   0.74444   0.00000  Uiso   1.00
H791   H     0.66788   0.53825   0.78452   0.00000  Uiso   1.00
H792   H     0.99876   0.46169   0.71552   0.00000  Uiso   1.00
N793   N     0.98173   0.51401   0.76212   0.00000  Uiso   1.00
N794   N     0.68494   0.48599   0.73788   0.00000  Uiso   1.00
O795   O     0.79482   0.57142   0.74686   0.00000  Uiso   1.00
O796   O     0.87185   0.42858   0.75314   0.00000  Uiso   1.00
O797   O     0.89496   0.58086   0.75503   0.00000  Uiso   1.00
O798   O     0.77171   0.41914   0.74498   0.00000  Uiso   1.00
O799   O     0.75518   0.49263   0.80855   0.00000  Uiso   1.00
O800   O     0.91149   0.50737   0.69146   0.00000  Uiso   1.00
O801   O     0.85532   0.50207   0.81671   0.00000  Uiso   1.00
O802   O     0.81134   0.49793   0.68329   0.00000  Uiso   1.00
O803   O     0.78840   0.45976   0.61176   0.00000  Uiso   1.00
H804   H     0.78657   0.43105   0.63136   0.00000  Uiso   1.00
O805   O     0.85189   0.55006   0.89740   0.00000  Uiso   1.00
H806   H     0.85471   0.57047   0.92486   0.00000  Uiso   1.00
O807   O     0.67527   0.53030   0.61785   0.00000  Uiso   1.00
H808   H     0.67094   0.50021   0.63667   0.00000  Uiso   1.00
O809   O     0.99992   0.42786   0.87282   0.00000  Uiso   1.00
H810   H     0.99299   0.45900   0.86019   0.00000  Uiso   1.00
C811   C     0.18172   0.93342   0.75131   0.00000  Uiso   1.00
C812   C     0.15160   0.73325   0.74872   0.00000  Uiso   1.00
C813   C     0.10504   0.76098   0.53025   0.00000  Uiso   1.00
C814   C     0.24388   0.84338   0.95527   0.00000  Uiso   1.00
C815   C     0.06260   0.74754   0.50403   0.00000  Uiso   1.00
C816   C     0.28787   0.85401   0.98050   0.00000  Uiso   1.00
C817   C     0.19020   0.98938   0.75197   0.00000  Uiso   1.00
C818   C     0.14310   0.67729   0.74810   0.00000  Uiso   1.00
C819   C     0.12724   0.82843   0.83336   0.00000  Uiso   1.00
C820   C     0.20549   0.83421   0.66634   0.00000  Uiso   1.00
C821   C     0.10167   0.81665   0.88080   0.00000  Uiso   1.00
C822   C     0.22953   0.83081   0.61739   0.00000  Uiso   1.00
C823   C     0.03134   0.75789   0.93836   0.00000  Uiso   1.00
C824   C     0.31308   0.85685   0.55043   0.00000  Uiso   1.00
C825   C     0.04398   0.77923   0.89692   0.00000  Uiso   1.00
C826   C     0.29491   0.84954   0.59574   0.00000  Uiso   1.00
C827   C     0.14142   0.83655   0.90891   0.00000  Uiso   1.00
C828   C     0.18524   0.81191   0.59146   0.00000  Uiso   1.00
C829   C     0.13262   0.81036   0.94889   0.00000  Uiso   1.00
C830   C     0.20471   0.81700   0.54493   0.00000  Uiso   1.00
C831   C     0.07521   0.77225   0.96396   0.00000  Uiso   1.00
C832   C     0.26856   0.84277   0.52531   0.00000  Uiso   1.00
C833   C     0.17924   0.81955   0.97378   0.00000  Uiso   1.00
C834   C     0.16207   0.79977   0.51728   0.00000  Uiso   1.00
Cu835  Cu    0.10737   0.82775   0.74517   0.00000  Uiso   1.00
Cu836  Cu    0.22596   0.83892   0.75484   0.00000  Uiso   1.00
H837   H     0.01972   0.71716   0.51511   0.00000  Uiso   1.00
H838   H     0.00382   0.87222   0.96495   0.00000  Uiso   1.00
H839   H     0.32067   0.72888   0.95016   0.00000  Uiso   1.00
H840   H     0.02936   0.87401   0.53475   0.00000  Uiso   1.00
H841   H     0.09419   0.73721   0.55897   0.00000  Uiso   1.00
H842   H     0.26220   0.85178   0.92059   0.00000  Uiso   1.00
H843   H     0.23559   0.67988   0.75563   0.00000  Uiso   1.00
H844   H     0.09771   0.98679   0.74444   0.00000  Uiso   1.00
H845   H     0.00121   0.87158   0.78452   0.00000  Uiso   1.00
H846   H     0.33209   0.79502   0.71552   0.00000  Uiso   1.00
N847   N     0.31506   0.84735   0.76212   0.00000  Uiso   1.00
N848   N     0.01827   0.81932   0.73788   0.00000  Uiso   1.00
O849   O     0.12815   0.90476   0.74686   0.00000  Uiso   1.00
O850   O     0.20518   0.76191   0.75314   0.00000  Uiso   1.00
O851   O     0.22829   0.91420   0.75503   0.00000  Uiso   1.00
O852   O     0.10504   0.75247   0.74498   0.00000  Uiso   1.00
O853   O     0.08851   0.82597   0.80855   0.00000  Uiso   1.00
O854   O     0.24482   0.84070   0.69146   0.00000  Uiso   1.00
O855   O     0.18866   0.83540   0.81671   0.00000  Uiso   1.00
O856   O     0.14468   0.83126   0.68329   0.00000  Uiso   1.00
O857   O     0.12173   0.79309   0.61176   0.00000  Uiso   1.00
H858   H     0.11991   0.76438   0.63136   0.00000  Uiso   1.00
O859   O     0.18522   0.88340   0.89740   0.00000  Uiso   1.00
H860   H     0.18805   0.90381   0.92486   0.00000  Uiso   1.00
O861   O     0.00860   0.86364   0.61785   0.00000  Uiso   1.00
H862   H     0.00427   0.83354   0.63667   0.00000  Uiso   1.00
O863   O     0.33325   0.76120   0.87282   0.00000  Uiso   1.00
H864   H     0.32633   0.79233   0.86019   0.00000  Uiso   1.00
C865   C     0.51506   0.93342   0.75131   0.00000  Uiso   1.00
C866   C     0.48493   0.73325   0.74872   0.00000  Uiso   1.00
C867   C     0.43837   0.76098   0.53025   0.00000  Uiso   1.00
C868   C     0.57722   0.84338   0.95527   0.00000  Uiso   1.00
C869   C     0.39593   0.74754   0.50403   0.00000  Uiso   1.00
C870   C     0.62120   0.85401   0.98050   0.00000  Uiso   1.00
C871   C     0.52353   0.98938   0.75197   0.00000  Uiso   1.00
C872   C     0.47643   0.67729   0.74810   0.00000  Uiso   1.00
C873   C     0.46057   0.82843   0.83336   0.00000  Uiso   1.00
C874   C     0.53882   0.83421   0.66634   0.00000  Uiso   1.00
C875   C     0.43500   0.81665   0.88080   0.00000  Uiso   1.00
C876   C     0.56287   0.83081   0.61739   0.00000  Uiso   1.00
C877   C     0.36467   0.75789   0.93836   0.00000  Uiso   1.00
C878   C     0.64641   0.85685   0.55043   0.00000  Uiso   1.00
C879   C     0.37731   0.77923   0.89692   0.00000  Uiso   1.00
C880   C     0.62824   0.84954   0.59574   0.00000  Uiso   1.00
C881   C     0.47475   0.83655   0.90891   0.00000  Uiso   1.00
C882   C     0.51858   0.81191   0.59146   0.00000  Uiso   1.00
C883   C     0.46595   0.81036   0.94889   0.00000  Uiso   1.00
C884   C     0.53804   0.81700   0.54493   0.00000  Uiso   1.00
C885   C     0.40855   0.77225   0.96396   0.00000  Uiso   1.00
C886   C     0.60190   0.84277   0.52531   0.00000  Uiso   1.00
C887   C     0.51258   0.81955   0.97378   0.00000  Uiso   1.00
C888   C     0.49540   0.79977   0.51728   0.00000  Uiso   1.00
Cu889  Cu    0.44071   0.82775   0.74517   0.00000  Uiso   1.00
Cu890  Cu    0.55929   0.83892   0.75484   0.00000  Uiso   1.00
H891   H     0.35305   0.71716   0.51511   0.00000  Uiso   1.00
H892   H     0.33715   0.87222   0.96495   0.00000  Uiso   1.00
H893   H     0.65400   0.72888   0.95016   0.00000  Uiso   1.00
H894   H     0.36269   0.87401   0.53475   0.00000  Uiso   1.00
H895   H     0.42752   0.73721   0.55897   0.00000  Uiso   1.00
H896   H     0.59553   0.85178   0.92059   0.00000  Uiso   1.00
H897   H     0.56892   0.67988   0.75563   0.00000  Uiso   1.00
H898   H     0.43104   0.98679   0.74444   0.00000  Uiso   1.00
H899   H     0.33455   0.87158   0.78452   0.00000  Uiso   1.00
H900   H     0.66543   0.79502   0.71552   0.00000  Uiso   1.00
N901   N     0.64839   0.84735   0.76212   0.00000  Uiso   1.00
N902   N     0.35161   0.81932   0.73788   0.00000  Uiso   1.00
O903   O     0.46148   0.90476   0.74686   0.00000  Uiso   1.00
O904   O     0.53852   0.76191   0.75314   0.00000  Uiso   1.00
O905   O     0.56163   0.91420   0.75503   0.00000  Uiso   1.00
O906   O     0.43837   0.75247   0.74498   0.00000  Uiso   1.00
O907   O     0.42185   0.82597   0.80855   0.00000  Uiso   1.00
O908   O     0.57815   0.84070   0.69146   0.00000  Uiso   1.00
O909   O     0.52199   0.83540   0.81671   0.00000  Uiso   1.00
O910   O     0.47801   0.83126   0.68329   0.00000  Uiso   1.00
O911   O     0.45507   0.79309   0.61176   0.00000  Uiso   1.00
H912   H     0.45324   0.76438   0.63136   0.00000  Uiso   1.00
O913   O     0.51856   0.88340   0.89740   0.00000  Uiso   1.00
H914   H     0.52138   0.90381   0.92486   0.00000  Uiso   1.00
O915   O     0.34194   0.86364   0.61785   0.00000  Uiso   1.00
H916   H     0.33760   0.83354   0.63667   0.00000  Uiso   1.00
O917   O     0.66658   0.76120   0.87282   0.00000  Uiso   1.00
H918   H     0.65966   0.79233   0.86019   0.00000  Uiso   1.00
C919   C     0.84839   0.93342   0.75131   0.00000  Uiso   1.00
C920   C     0.81826   0.73325   0.74872   0.00000  Uiso   1.00
C921   C     0.77171   0.76098   0.53025   0.00000  Uiso   1.00
C922   C     0.91055   0.84338   0.95527   0.00000  Uiso   1.00
C923   C     0.72927   0.74754   0.50403   0.00000  Uiso   1.00
C924   C     0.95453   0.85401   0.98050   0.00000  Uiso   1.00
C925   C     0.85687   0.98938   0.75197   0.00000  Uiso   1.00
C926   C     0.80976   0.67729   0.74810   0.00000  Uiso   1.00
C927   C     0.79390   0.82843   0.83336   0.00000  Uiso   1.00
C928   C     0.87216   0.83421   0.66634   0.00000  Uiso   1.00
C929   C     0.76833   0.81665   0.88080   0.00000  Uiso   1.00
C930   C     0.89620   0.83081   0.61739   0.00000  Uiso   1.00
C931   C     0.69801   0.75789   0.93836   0.00000  Uiso   1.00
C932   C     0.97975   0.85685   0.55043   0.00000  Uiso   1.00
C933   C     0.71065   0.77923   0.89692   0.00000  Uiso   1.00
C934   C     0.96157   0.84954   0.59574   0.00000  Uiso   1.00
C935   C     0.80808   0.83655   0.90891   0.00000  Uiso   1.00
C936   C     0.85191   0.81191   0.59146   0.00000  Uiso   1.00
C937   C     0.79928   0.81036   0.94889   0.00000  Uiso   1.00
C938   C     0.87137   0.81700   0.54493   0.00000  Uiso   1.00
C939   C     0.74188   0.77225   0.96396   0.00000  Uiso   1.00
C940   C     0.93523   0.84277   0.52531   0.00000  Uiso   1.00
C941   C     0.84591   0.81955   0.97378   0.00000  Uiso   1.00
C942   C     0.82874   0.79977   0.51728   0.00000  Uiso   1.00
Cu943  Cu    0.77404   0.82775   0.74517   0.00000  Uiso   1.00
Cu944  Cu    0.89263   0.83892   0.75484   0.00000  Uiso   1.00
H945   H     0.68638   0.71716   0.51511   0.00000  Uiso   1.00
H946   H     0.67049   0.87222   0.96495   0.00000  Uiso   1.00
H947   H     0.98733   0.72888   0.95016   0.00000  Uiso   1.00
H948   H     0.69603   0.87401   0.53475   0.00000  Uiso   1.00
H949   H     0.76086   0.73721   0.55897   0.00000  Uiso   1.00
H950   H     0.92886   0.85178   0.92059   0.00000  Uiso   1.00
H951   H     0.90225   0.67988   0.75563   0.00000  Uiso   1.00
H952   H     0.76437   0.98679   0.74444   0.00000  Uiso   1.00
H953   H     0.66788   0.87158   0.78452   0.00000  Uiso   1.00
H954   H     0.99876   0.79502   0.71552   0.00000  Uiso   1.00
N955   N     0.98173   0.84735   0.76212   0.00000  Uiso   1.00
N956   N     0.68494   0.81932   0.73788   0.00000  Uiso   1.00
O957   O     0.79482   0.90476   0.74686   0.00000  Uiso   1.00
O958   O     0.87185   0.76191   0.75314   0.00000  Uiso   1.00
O959   O     0.89496   0.91420   0.75503   0.00000  Uiso   1.00
O960   O     0.77171   0.75247   0.74498   0.00000  Uiso   1.00
O961   O     0.75518   0.82597   0.80855   0.00000  Uiso   1.00
O962   O     0.91149   0.84070   0.69146   0.00000  Uiso   1.00
O963   O     0.85532   0.83540   0.81671   0.00000  Uiso   1.00
O964   O     0.81134   0.83126   0.68329   0.00000  Uiso   1.00
O965   O     0.78840   0.79309   0.61176   0.00000  Uiso   1.00
H966   H     0.78657   0.76438   0.63136   0.00000  Uiso   1.00
O967   O     0.85189   0.88340   0.89740   0.00000  Uiso   1.00
H968   H     0.85471   0.90381   0.92486   0.00000  Uiso   1.00
O969   O     0.67527   0.86364   0.61785   0.00000  Uiso   1.00
H970   H     0.67094   0.83354   0.63667   0.00000  Uiso   1.00
O971   O     0.99992   0.76120   0.87282   0.00000  Uiso   1.00
H972   H     0.99299   0.79233   0.86019   0.00000  Uiso   1.00
loop_
_geom_bond_atom_site_label_1
_geom_bond_atom_site_label_2
_geom_bond_distance
_geom_bond_site_symmetry_2
_ccdc_geom_bond_type
C1     O41     1.285   .     A
C1     O39     1.290   .     A
C1     C7      1.428   .     S
C2     O42     1.285   .     A
C2     O40     1.290   .     A
C2     C8      1.428   .     S
C3     H31     1.077   .     S
C3     C24     1.413   .     A
C3     C5      1.386   .     A
C4     H32     1.080   .     S
C4     C6      1.388   .     A
C4     C23     1.410   .     A
C5     H27     1.084   .     S
C5     C507    1.392   1_554 S
C6     C508    1.395   .     S
C6     H82     1.084   .     S
C7     C170    1.328   .     S
C7     H195    1.088   .     S
C8     C331    1.328   1_545 S
C8     H358    1.088   1_545 S
C9     O45     1.301   .     A
C9     C11     1.479   .     S
C9     O43     1.298   .     A
C10    O46     1.301   .     A
C10    C12     1.495   .     S
C10    O44     1.305   .     A
C11    C15     1.417   .     A
C11    C17     1.406   .     A
C12    C16     1.418   .     A
C12    C18     1.425   .     A
C13    C21     1.398   .     A
C13    C15     1.391   .     A
C13    H137    1.085   1_455 S
C14    C22     1.397   .     A
C14    C16     1.392   .     A
C14    H84     1.085   .     S
C15    O161    1.376   1_455 S
C16    O105    1.375   .     S
C17    O49     1.380   .     S
C17    C19     1.424   .     A
C18    O47     1.375   .     S
C18    C20     1.421   .     A
C19    C23     1.429   .     A
C19    C21     1.417   .     A
C20    C24     1.432   .     A
C20    C22     1.416   .     A
C21    C491    1.392   .     S
C22    C492    1.395   1_554 S
C23    C510    1.423   .     S
C24    C509    1.423   1_554 S
Cu25   O42     1.952   .     S
Cu25   N38     2.016   .     S
Cu25   O43     1.931   .     S
Cu25   O39     1.956   .     S
Cu25   Cu26    2.683   .     S
Cu25   O46     1.905   .     S
Cu26   N37     2.016   .     S
Cu26   O40     1.956   .     S
Cu26   O44     1.931   .     S
Cu26   O45     1.905   .     S
Cu26   O41     1.952   .     S
H28    C114    1.084   1_455 S
H29    C67     1.085   .     S
H30    C122    1.085   1_455 S
H33    C331    1.088   1_545 S
H34    C170    1.088   .     S
H35    N145    1.029   1_455 S
H36    N92     1.029   .     S
N37    H89     1.029   .     S
N37    N92     1.280   .     S
N38    H144    1.029   1_455 S
N38    N145    1.280   1_455 S
O47    H48     0.993   .     S
O49    H50     0.992   .     S
O51    H52     0.990   .     S
O51    C124    1.375   1_455 S
O53    H54     0.990   .     S
O53    C69     1.376   .     S
C55    O95     1.285   .     A
C55    O93     1.290   .     A
C55    C61     1.428   .     S
C56    O96     1.285   .     A
C56    O94     1.290   .     A
C56    C62     1.428   .     S
C57    H85     1.077   .     S
C57    C78     1.413   .     A
C57    C59     1.386   .     A
C58    H86     1.080   .     S
C58    C60     1.388   .     A
C58    C77     1.410   .     A
C59    H81     1.084   .     S
C59    C561    1.392   1_554 S
C60    C562    1.395   .     S
C60    H136    1.084   .     S
C61    C224    1.328   .     S
C61    H249    1.088   .     S
C62    C385    1.328   1_545 S
C62    H412    1.088   1_545 S
C63    O99     1.301   .     A
C63    C65     1.479   .     S
C63    O97     1.298   .     A
C64    O100    1.301   .     A
C64    C66     1.495   .     S
C64    O98     1.305   .     A
C65    C69     1.417   .     A
C65    C71     1.406   .     A
C66    C70     1.418   .     A
C66    C72     1.425   .     A
C67    C75     1.398   .     A
C67    C69     1.391   .     A
C68    C76     1.397   .     A
C68    C70     1.392   .     A
C68    H138    1.085   .     S
C70    O159    1.375   .     S
C71    O103    1.380   .     S
C71    C73     1.424   .     A
C72    O101    1.375   .     S
C72    C74     1.421   .     A
C73    C77     1.429   .     A
C73    C75     1.417   .     A
C74    C78     1.432   .     A
C74    C76     1.416   .     A
C75    C545    1.392   .     S
C76    C546    1.395   1_554 S
C77    C564    1.423   .     S
C78    C563    1.423   1_554 S
Cu79   O96     1.952   .     S
Cu79   N92     2.016   .     S
Cu79   O97     1.931   .     S
Cu79   O93     1.956   .     S
Cu79   Cu80    2.683   .     S
Cu79   O100    1.905   .     S
Cu80   N91     2.016   .     S
Cu80   O94     1.956   .     S
Cu80   O98     1.931   .     S
Cu80   O99     1.905   .     S
Cu80   O95     1.952   .     S
H83    C121    1.085   .     S
H87    C385    1.088   1_545 S
H88    C224    1.088   .     S
H90    N146    1.029   .     S
N91    H143    1.029   .     S
N91    N146    1.280   .     S
O101   H102    0.993   .     S
O103   H104    0.992   .     S
O105   H106    0.990   .     S
O107   H108    0.990   .     S
O107   C123    1.376   .     S
C109   O149    1.285   .     A
C109   O147    1.290   .     A
C109   C115    1.428   .     S
C110   O150    1.285   .     A
C110   O148    1.290   .     A
C110   C116    1.428   .     S
C111   H139    1.077   .     S
C111   C132    1.413   .     A
C111   C113    1.386   .     A
C112   H140    1.080   .     S
C112   C114    1.388   .     A
C112   C131    1.410   .     A
C113   H135    1.084   .     S
C113   C615    1.392   1_554 S
C114   C616    1.395   .     S
C114   H28     1.084   1_655 S
C115   C278    1.328   .     S
C115   H303    1.088   .     S
C116   C439    1.328   1_545 S
C116   H466    1.088   1_545 S
C117   O153    1.301   .     A
C117   C119    1.479   .     S
C117   O151    1.298   .     A
C118   O154    1.301   .     A
C118   C120    1.495   .     S
C118   O152    1.305   .     A
C119   C123    1.417   .     A
C119   C125    1.406   .     A
C120   C124    1.418   .     A
C120   C126    1.425   .     A
C121   C129    1.398   .     A
C121   C123    1.391   .     A
C122   C130    1.397   .     A
C122   C124    1.392   .     A
C122   H30     1.085   1_655 S
C124   O51     1.375   1_655 S
C125   O157    1.380   .     S
C125   C127    1.424   .     A
C126   O155    1.375   .     S
C126   C128    1.421   .     A
C127   C131    1.429   .     A
C127   C129    1.417   .     A
C128   C132    1.432   .     A
C128   C130    1.416   .     A
C129   C599    1.392   .     S
C130   C600    1.395   1_554 S
C131   C618    1.423   .     S
C132   C617    1.423   1_554 S
Cu133  O150    1.952   .     S
Cu133  N146    2.016   .     S
Cu133  O151    1.931   .     S
Cu133  O147    1.956   .     S
Cu133  Cu134   2.683   .     S
Cu133  O154    1.905   .     S
Cu134  N145    2.016   .     S
Cu134  O148    1.956   .     S
Cu134  O152    1.931   .     S
Cu134  O153    1.905   .     S
Cu134  O149    1.952   .     S
H137   C13     1.085   1_655 S
H141   C439    1.088   1_545 S
H142   C278    1.088   .     S
H144   N38     1.029   1_655 S
N145   H35     1.029   1_655 S
N145   N38     1.280   1_655 S
O155   H156    0.993   .     S
O157   H158    0.992   .     S
O159   H160    0.990   .     S
O161   H162    0.990   .     S
O161   C15     1.376   1_655 S
C163   O203    1.285   .     A
C163   O201    1.290   .     A
C163   C169    1.428   .     S
C164   O204    1.285   .     A
C164   O202    1.290   .     A
C164   C170    1.428   .     S
C165   H193    1.077   .     S
C165   C186    1.413   .     A
C165   C167    1.386   .     A
C166   H194    1.080   .     S
C166   C168    1.388   .     A
C166   C185    1.410   .     A
C167   H189    1.084   .     S
C167   C669    1.392   1_554 S
C168   C670    1.395   .     S
C168   H244    1.084   .     S
C169   C332    1.328   .     S
C169   H357    1.088   .     S
C171   O207    1.301   .     A
C171   C173    1.479   .     S
C171   O205    1.298   .     A
C172   O208    1.301   .     A
C172   C174    1.495   .     S
C172   O206    1.305   .     A
C173   C177    1.417   .     A
C173   C179    1.406   .     A
C174   C178    1.418   .     A
C174   C180    1.425   .     A
C175   C183    1.398   .     A
C175   C177    1.391   .     A
C175   H299    1.085   1_455 S
C176   C184    1.397   .     A
C176   C178    1.392   .     A
C176   H246    1.085   .     S
C177   O323    1.376   1_455 S
C178   O267    1.375   .     S
C179   O211    1.380   .     S
C179   C181    1.424   .     A
C180   O209    1.375   .     S
C180   C182    1.421   .     A
C181   C185    1.429   .     A
C181   C183    1.417   .     A
C182   C186    1.432   .     A
C182   C184    1.416   .     A
C183   C653    1.392   .     S
C184   C654    1.395   1_554 S
C185   C672    1.423   .     S
C186   C671    1.423   1_554 S
Cu187  O204    1.952   .     S
Cu187  N200    2.016   .     S
Cu187  O205    1.931   .     S
Cu187  O201    1.956   .     S
Cu187  Cu188   2.683   .     S
Cu187  O208    1.905   .     S
Cu188  N199    2.016   .     S
Cu188  O202    1.956   .     S
Cu188  O206    1.931   .     S
Cu188  O207    1.905   .     S
Cu188  O203    1.952   .     S
H190   C276    1.084   1_455 S
H191   C229    1.085   .     S
H192   C284    1.085   1_455 S
H196   C332    1.088   .     S
H197   N307    1.029   1_455 S
H198   N254    1.029   .     S
N199   H251    1.029   .     S
N199   N254    1.280   .     S
N200   H306    1.029   1_455 S
N200   N307    1.280   1_455 S
O209   H210    0.993   .     S
O211   H212    0.992   .     S
O213   H214    0.990   .     S
O213   C286    1.375   1_455 S
O215   H216    0.990   .     S
O215   C231    1.376   .     S
C217   O257    1.285   .     A
C217   O255    1.290   .     A
C217   C223    1.428   .     S
C218   O258    1.285   .     A
C218   O256    1.290   .     A
C218   C224    1.428   .     S
C219   H247    1.077   .     S
C219   C240    1.413   .     A
C219   C221    1.386   .     A
C220   H248    1.080   .     S
C220   C222    1.388   .     A
C220   C239    1.410   .     A
C221   H243    1.084   .     S
C221   C723    1.392   1_554 S
C222   C724    1.395   .     S
C222   H298    1.084   .     S
C223   C386    1.328   .     S
C223   H411    1.088   .     S
C225   O261    1.301   .     A
C225   C227    1.479   .     S
C225   O259    1.298   .     A
C226   O262    1.301   .     A
C226   C228    1.495   .     S
C226   O260    1.305   .     A
C227   C231    1.417   .     A
C227   C233    1.406   .     A
C228   C232    1.418   .     A
C228   C234    1.425   .     A
C229   C237    1.398   .     A
C229   C231    1.391   .     A
C230   C238    1.397   .     A
C230   C232    1.392   .     A
C230   H300    1.085   .     S
C232   O321    1.375   .     S
C233   O265    1.380   .     S
C233   C235    1.424   .     A
C234   O263    1.375   .     S
C234   C236    1.421   .     A
C235   C239    1.429   .     A
C235   C237    1.417   .     A
C236   C240    1.432   .     A
C236   C238    1.416   .     A
C237   C707    1.392   .     S
C238   C708    1.395   1_554 S
C239   C726    1.423   .     S
C240   C725    1.423   1_554 S
Cu241  O258    1.952   .     S
Cu241  N254    2.016   .     S
Cu241  O259    1.931   .     S
Cu241  O255    1.956   .     S
Cu241  Cu242   2.683   .     S
Cu241  O262    1.905   .     S
Cu242  N253    2.016   .     S
Cu242  O256    1.956   .     S
Cu242  O260    1.931   .     S
Cu242  O261    1.905   .     S
Cu242  O257    1.952   .     S
H245   C283    1.085   .     S
H250   C386    1.088   .     S
H252   N308    1.029   .     S
N253   H305    1.029   .     S
N253   N308    1.280   .     S
O263   H264    0.993   .     S
O265   H266    0.992   .     S
O267   H268    0.990   .     S
O269   H270    0.990   .     S
O269   C285    1.376   .     S
C271   O311    1.285   .     A
C271   O309    1.290   .     A
C271   C277    1.428   .     S
C272   O312    1.285   .     A
C272   O310    1.290   .     A
C272   C278    1.428   .     S
C273   H301    1.077   .     S
C273   C294    1.413   .     A
C273   C275    1.386   .     A
C274   H302    1.080   .     S
C274   C276    1.388   .     A
C274   C293    1.410   .     A
C275   H297    1.084   .     S
C275   C777    1.392   1_554 S
C276   C778    1.395   .     S
C276   H190    1.084   1_655 S
C277   C440    1.328   .     S
C277   H465    1.088   .     S
C279   O315    1.301   .     A
C279   C281    1.479   .     S
C279   O313    1.298   .     A
C280   O316    1.301   .     A
C280   C282    1.495   .     S
C280   O314    1.305   .     A
C281   C285    1.417   .     A
C281   C287    1.406   .     A
C282   C286    1.418   .     A
C282   C288    1.425   .     A
C283   C291    1.398   .     A
C283   C285    1.391   .     A
C284   C292    1.397   .     A
C284   C286    1.392   .     A
C284   H192    1.085   1_655 S
C286   O213    1.375   1_655 S
C287   O319    1.380   .     S
C287   C289    1.424   .     A
C288   O317    1.375   .     S
C288   C290    1.421   .     A
C289   C293    1.429   .     A
C289   C291    1.417   .     A
C290   C294    1.432   .     A
C290   C292    1.416   .     A
C291   C761    1.392   .     S
C292   C762    1.395   1_554 S
C293   C780    1.423   .     S
C294   C779    1.423   1_554 S
Cu295  O312    1.952   .     S
Cu295  N308    2.016   .     S
Cu295  O313    1.931   .     S
Cu295  O309    1.956   .     S
Cu295  Cu296   2.683   .     S
Cu295  O316    1.905   .     S
Cu296  N307    2.016   .     S
Cu296  O310    1.956   .     S
Cu296  O314    1.931   .     S
Cu296  O315    1.905   .     S
Cu296  O311    1.952   .     S
H299   C175    1.085   1_655 S
H304   C440    1.088   .     S
H306   N200    1.029   1_655 S
N307   H197    1.029   1_655 S
N307   N200    1.280   1_655 S
O317   H318    0.993   .     S
O319   H320    0.992   .     S
O321   H322    0.990   .     S
O323   H324    0.990   .     S
O323   C177    1.376   1_655 S
C325   O365    1.285   .     A
C325   O363    1.290   .     A
C325   C331    1.428   .     S
C326   O366    1.285   .     A
C326   O364    1.290   .     A
C326   C332    1.428   .     S
C327   H355    1.077   .     S
C327   C348    1.413   .     A
C327   C329    1.386   .     A
C328   H356    1.080   .     S
C328   C330    1.388   .     A
C328   C347    1.410   .     A
C329   H351    1.084   .     S
C329   C831    1.392   1_554 S
C330   C832    1.395   .     S
C330   H406    1.084   .     S
C331   C8      1.328   1_565 S
C331   H33     1.088   1_565 S
C333   O369    1.301   .     A
C333   C335    1.479   .     S
C333   O367    1.298   .     A
C334   O370    1.301   .     A
C334   C336    1.495   .     S
C334   O368    1.305   .     A
C335   C339    1.417   .     A
C335   C341    1.406   .     A
C336   C340    1.418   .     A
C336   C342    1.425   .     A
C337   C345    1.398   .     A
C337   C339    1.391   .     A
C337   H461    1.085   1_455 S
C338   C346    1.397   .     A
C338   C340    1.392   .     A
C338   H408    1.085   .     S
C339   O485    1.376   1_455 S
C340   O429    1.375   .     S
C341   O373    1.380   .     S
C341   C343    1.424   .     A
C342   O371    1.375   .     S
C342   C344    1.421   .     A
C343   C347    1.429   .     A
C343   C345    1.417   .     A
C344   C348    1.432   .     A
C344   C346    1.416   .     A
C345   C815    1.392   .     S
C346   C816    1.395   1_554 S
C347   C834    1.423   .     S
C348   C833    1.423   1_554 S
Cu349  O366    1.952   .     S
Cu349  N362    2.016   .     S
Cu349  O367    1.931   .     S
Cu349  O363    1.956   .     S
Cu349  Cu350   2.683   .     S
Cu349  O370    1.905   .     S
Cu350  N361    2.016   .     S
Cu350  O364    1.956   .     S
Cu350  O368    1.931   .     S
Cu350  O369    1.905   .     S
Cu350  O365    1.952   .     S
H352   C438    1.084   1_455 S
H353   C391    1.085   .     S
H354   C446    1.085   1_455 S
H358   C8      1.088   1_565 S
H359   N469    1.029   1_455 S
H360   N416    1.029   .     S
N361   H413    1.029   .     S
N361   N416    1.280   .     S
N362   H468    1.029   1_455 S
N362   N469    1.280   1_455 S
O371   H372    0.993   .     S
O373   H374    0.992   .     S
O375   H376    0.990   .     S
O375   C448    1.375   1_455 S
O377   H378    0.990   .     S
O377   C393    1.376   .     S
C379   O419    1.285   .     A
C379   O417    1.290   .     A
C379   C385    1.428   .     S
C380   O420    1.285   .     A
C380   O418    1.290   .     A
C380   C386    1.428   .     S
C381   H409    1.077   .     S
C381   C402    1.413   .     A
C381   C383    1.386   .     A
C382   H410    1.080   .     S
C382   C384    1.388   .     A
C382   C401    1.410   .     A
C383   H405    1.084   .     S
C383   C885    1.392   1_554 S
C384   C886    1.395   .     S
C384   H460    1.084   .     S
C385   C62     1.328   1_565 S
C385   H87     1.088   1_565 S
C387   O423    1.301   .     A
C387   C389    1.479   .     S
C387   O421    1.298   .     A
C388   O424    1.301   .     A
C388   C390    1.495   .     S
C388   O422    1.305   .     A
C389   C393    1.417   .     A
C389   C395    1.406   .     A
C390   C394    1.418   .     A
C390   C396    1.425   .     A
C391   C399    1.398   .     A
C391   C393    1.391   .     A
C392   C400    1.397   .     A
C392   C394    1.392   .     A
C392   H462    1.085   .     S
C394   O483    1.375   .     S
C395   O427    1.380   .     S
C395   C397    1.424   .     A
C396   O425    1.375   .     S
C396   C398    1.421   .     A
C397   C401    1.429   .     A
C397   C399    1.417   .     A
C398   C402    1.432   .     A
C398   C400    1.416   .     A
C399   C869    1.392   .     S
C400   C870    1.395   1_554 S
C401   C888    1.423   .     S
C402   C887    1.423   1_554 S
Cu403  O420    1.952   .     S
Cu403  N416    2.016   .     S
Cu403  O421    1.931   .     S
Cu403  O417    1.956   .     S
Cu403  Cu404   2.683   .     S
Cu403  O424    1.905   .     S
Cu404  N415    2.016   .     S
Cu404  O418    1.956   .     S
Cu404  O422    1.931   .     S
Cu404  O423    1.905   .     S
Cu404  O419    1.952   .     S
H407   C445    1.085   .     S
H412   C62     1.088   1_565 S
H414   N470    1.029   .     S
N415   H467    1.029   .     S
N415   N470    1.280   .     S
O425   H426    0.993   .     S
O427   H428    0.992   .     S
O429   H430    0.990   .     S
O431   H432    0.990   .     S
O431   C447    1.376   .     S
C433   O473    1.285   .     A
C433   O471    1.290   .     A
C433   C439    1.428   .     S
C434   O474    1.285   .     A
C434   O472    1.290   .     A
C434   C440    1.428   .     S
C435   H463    1.077   .     S
C435   C456    1.413   .     A
C435   C437    1.386   .     A
C436   H464    1.080   .     S
C436   C438    1.388   .     A
C436   C455    1.410   .     A
C437   H459    1.084   .     S
C437   C939    1.392   1_554 S
C438   C940    1.395   .     S
C438   H352    1.084   1_655 S
C439   C116    1.328   1_565 S
C439   H141    1.088   1_565 S
C441   O477    1.301   .     A
C441   C443    1.479   .     S
C441   O475    1.298   .     A
C442   O478    1.301   .     A
C442   C444    1.495   .     S
C442   O476    1.305   .     A
C443   C447    1.417   .     A
C443   C449    1.406   .     A
C444   C448    1.418   .     A
C444   C450    1.425   .     A
C445   C453    1.398   .     A
C445   C447    1.391   .     A
C446   C454    1.397   .     A
C446   C448    1.392   .     A
C446   H354    1.085   1_655 S
C448   O375    1.375   1_655 S
C449   O481    1.380   .     S
C449   C451    1.424   .     A
C450   O479    1.375   .     S
C450   C452    1.421   .     A
C451   C455    1.429   .     A
C451   C453    1.417   .     A
C452   C456    1.432   .     A
C452   C454    1.416   .     A
C453   C923    1.392   .     S
C454   C924    1.395   1_554 S
C455   C942    1.423   .     S
C456   C941    1.423   1_554 S
Cu457  O474    1.952   .     S
Cu457  N470    2.016   .     S
Cu457  O475    1.931   .     S
Cu457  O471    1.956   .     S
Cu457  Cu458   2.683   .     S
Cu457  O478    1.905   .     S
Cu458  N469    2.016   .     S
Cu458  O472    1.956   .     S
Cu458  O476    1.931   .     S
Cu458  O477    1.905   .     S
Cu458  O473    1.952   .     S
H461   C337    1.085   1_655 S
H466   C116    1.088   1_565 S
H468   N362    1.029   1_655 S
N469   H359    1.029   1_655 S
N469   N362    1.280   1_655 S
O479   H480    0.993   .     S
O481   H482    0.992   .     S
O483   H484    0.990   .     S
O485   H486    0.990   .     S
O485   C339    1.376   1_655 S
C487   O527    1.285   .     A
C487   O525    1.290   .     A
C487   C493    1.428   .     S
C488   O528    1.285   .     A
C488   O526    1.290   .     A
C488   C494    1.428   .     S
C489   H517    1.077   .     S
C489   C510    1.413   .     A
C489   C491    1.386   .     A
C490   H518    1.080   .     S
C490   C492    1.388   .     A
C490   C509    1.410   .     A
C491   H513    1.084   .     S
C492   C22     1.395   1_556 S
C492   H568    1.084   .     S
C493   C656    1.328   .     S
C493   H681    1.088   .     S
C494   C817    1.328   1_545 S
C494   H844    1.088   1_545 S
C495   O531    1.301   .     A
C495   C497    1.479   .     S
C495   O529    1.298   .     A
C496   O532    1.301   .     A
C496   C498    1.495   .     S
C496   O530    1.305   .     A
C497   C501    1.417   .     A
C497   C503    1.406   .     A
C498   C502    1.418   .     A
C498   C504    1.425   .     A
C499   C507    1.398   .     A
C499   C501    1.391   .     A
C499   H623    1.085   1_455 S
C500   C508    1.397   .     A
C500   C502    1.392   .     A
C500   H570    1.085   .     S
C501   O647    1.376   1_455 S
C502   O591    1.375   .     S
C503   O535    1.380   .     S
C503   C505    1.424   .     A
C504   O533    1.375   .     S
C504   C506    1.421   .     A
C505   C509    1.429   .     A
C505   C507    1.417   .     A
C506   C510    1.432   .     A
C506   C508    1.416   .     A
C507   C5      1.392   1_556 S
C509   C24     1.423   1_556 S
Cu511  O528    1.952   .     S
Cu511  N524    2.016   .     S
Cu511  O529    1.931   .     S
Cu511  O525    1.956   .     S
Cu511  Cu512   2.683   .     S
Cu511  O532    1.905   .     S
Cu512  N523    2.016   .     S
Cu512  O526    1.956   .     S
Cu512  O530    1.931   .     S
Cu512  O531    1.905   .     S
Cu512  O527    1.952   .     S
H514   C600    1.084   1_455 S
H515   C553    1.085   .     S
H516   C608    1.085   1_455 S
H519   C817    1.088   1_545 S
H520   C656    1.088   .     S
H521   N631    1.029   1_455 S
H522   N578    1.029   .     S
N523   H575    1.029   .     S
N523   N578    1.280   .     S
N524   H630    1.029   1_455 S
N524   N631    1.280   1_455 S
O533   H534    0.993   .     S
O535   H536    0.992   .     S
O537   H538    0.990   .     S
O537   C610    1.375   1_455 S
O539   H540    0.990   .     S
O539   C555    1.376   .     S
C541   O581    1.285   .     A
C541   O579    1.290   .     A
C541   C547    1.428   .     S
C542   O582    1.285   .     A
C542   O580    1.290   .     A
C542   C548    1.428   .     S
C543   H571    1.077   .     S
C543   C564    1.413   .     A
C543   C545    1.386   .     A
C544   H572    1.080   .     S
C544   C546    1.388   .     A
C544   C563    1.410   .     A
C545   H567    1.084   .     S
C546   C76     1.395   1_556 S
C546   H622    1.084   .     S
C547   C710    1.328   .     S
C547   H735    1.088   .     S
C548   C871    1.328   1_545 S
C548   H898    1.088   1_545 S
C549   O585    1.301   .     A
C549   C551    1.479   .     S
C549   O583    1.298   .     A
C550   O586    1.301   .     A
C550   C552    1.495   .     S
C550   O584    1.305   .     A
C551   C555    1.417   .     A
C551   C557    1.406   .     A
C552   C556    1.418   .     A
C552   C558    1.425   .     A
C553   C561    1.398   .     A
C553   C555    1.391   .     A
C554   C562    1.397   .     A
C554   C556    1.392   .     A
C554   H624    1.085   .     S
C556   O645    1.375   .     S
C557   O589    1.380   .     S
C557   C559    1.424   .     A
C558   O587    1.375   .     S
C558   C560    1.421   .     A
C559   C563    1.429   .     A
C559   C561    1.417   .     A
C560   C564    1.432   .     A
C560   C562    1.416   .     A
C561   C59     1.392   1_556 S
C563   C78     1.423   1_556 S
Cu565  O582    1.952   .     S
Cu565  N578    2.016   .     S
Cu565  O583    1.931   .     S
Cu565  O579    1.956   .     S
Cu565  Cu566   2.683   .     S
Cu565  O586    1.905   .     S
Cu566  N577    2.016   .     S
Cu566  O580    1.956   .     S
Cu566  O584    1.931   .     S
Cu566  O585    1.905   .     S
Cu566  O581    1.952   .     S
H569   C607    1.085   .     S
H573   C871    1.088   1_545 S
H574   C710    1.088   .     S
H576   N632    1.029   .     S
N577   H629    1.029   .     S
N577   N632    1.280   .     S
O587   H588    0.993   .     S
O589   H590    0.992   .     S
O591   H592    0.990   .     S
O593   H594    0.990   .     S
O593   C609    1.376   .     S
C595   O635    1.285   .     A
C595   O633    1.290   .     A
C595   C601    1.428   .     S
C596   O636    1.285   .     A
C596   O634    1.290   .     A
C596   C602    1.428   .     S
C597   H625    1.077   .     S
C597   C618    1.413   .     A
C597   C599    1.386   .     A
C598   H626    1.080   .     S
C598   C600    1.388   .     A
C598   C617    1.410   .     A
C599   H621    1.084   .     S
C600   C130    1.395   1_556 S
C600   H514    1.084   1_655 S
C601   C764    1.328   .     S
C601   H789    1.088   .     S
C602   C925    1.328   1_545 S
C602   H952    1.088   1_545 S
C603   O639    1.301   .     A
C603   C605    1.479   .     S
C603   O637    1.298   .     A
C604   O640    1.301   .     A
C604   C606    1.495   .     S
C604   O638    1.305   .     A
C605   C609    1.417   .     A
C605   C611    1.406   .     A
C606   C610    1.418   .     A
C606   C612    1.425   .     A
C607   C615    1.398   .     A
C607   C609    1.391   .     A
C608   C616    1.397   .     A
C608   C610    1.392   .     A
C608   H516    1.085   1_655 S
C610   O537    1.375   1_655 S
C611   O643    1.380   .     S
C611   C613    1.424   .     A
C612   O641    1.375   .     S
C612   C614    1.421   .     A
C613   C617    1.429   .     A
C613   C615    1.417   .     A
C614   C618    1.432   .     A
C614   C616    1.416   .     A
C615   C113    1.392   1_556 S
C617   C132    1.423   1_556 S
Cu619  O636    1.952   .     S
Cu619  N632    2.016   .     S
Cu619  O637    1.931   .     S
Cu619  O633    1.956   .     S
Cu619  Cu620   2.683   .     S
Cu619  O640    1.905   .     S
Cu620  N631    2.016   .     S
Cu620  O634    1.956   .     S
Cu620  O638    1.931   .     S
Cu620  O639    1.905   .     S
Cu620  O635    1.952   .     S
H623   C499    1.085   1_655 S
H627   C925    1.088   1_545 S
H628   C764    1.088   .     S
H630   N524    1.029   1_655 S
N631   H521    1.029   1_655 S
N631   N524    1.280   1_655 S
O641   H642    0.993   .     S
O643   H644    0.992   .     S
O645   H646    0.990   .     S
O647   H648    0.990   .     S
O647   C501    1.376   1_655 S
C649   O689    1.285   .     A
C649   O687    1.290   .     A
C649   C655    1.428   .     S
C650   O690    1.285   .     A
C650   O688    1.290   .     A
C650   C656    1.428   .     S
C651   H679    1.077   .     S
C651   C672    1.413   .     A
C651   C653    1.386   .     A
C652   H680    1.080   .     S
C652   C654    1.388   .     A
C652   C671    1.410   .     A
C653   H675    1.084   .     S
C654   C184    1.395   1_556 S
C654   H730    1.084   .     S
C655   C818    1.328   .     S
C655   H843    1.088   .     S
C657   O693    1.301   .     A
C657   C659    1.479   .     S
C657   O691    1.298   .     A
C658   O694    1.301   .     A
C658   C660    1.495   .     S
C658   O692    1.305   .     A
C659   C663    1.417   .     A
C659   C665    1.406   .     A
C660   C664    1.418   .     A
C660   C666    1.425   .     A
C661   C669    1.398   .     A
C661   C663    1.391   .     A
C661   H785    1.085   1_455 S
C662   C670    1.397   .     A
C662   C664    1.392   .     A
C662   H732    1.085   .     S
C663   O809    1.376   1_455 S
C664   O753    1.375   .     S
C665   O697    1.380   .     S
C665   C667    1.424   .     A
C666   O695    1.375   .     S
C666   C668    1.421   .     A
C667   C671    1.429   .     A
C667   C669    1.417   .     A
C668   C672    1.432   .     A
C668   C670    1.416   .     A
C669   C167    1.392   1_556 S
C671   C186    1.423   1_556 S
Cu673  O690    1.952   .     S
Cu673  N686    2.016   .     S
Cu673  O691    1.931   .     S
Cu673  O687    1.956   .     S
Cu673  Cu674   2.683   .     S
Cu673  O694    1.905   .     S
Cu674  N685    2.016   .     S
Cu674  O688    1.956   .     S
Cu674  O692    1.931   .     S
Cu674  O693    1.905   .     S
Cu674  O689    1.952   .     S
H676   C762    1.084   1_455 S
H677   C715    1.085   .     S
H678   C770    1.085   1_455 S
H682   C818    1.088   .     S
H683   N793    1.029   1_455 S
H684   N740    1.029   .     S
N685   H737    1.029   .     S
N685   N740    1.280   .     S
N686   H792    1.029   1_455 S
N686   N793    1.280   1_455 S
O695   H696    0.993   .     S
O697   H698    0.992   .     S
O699   H700    0.990   .     S
O699   C772    1.375   1_455 S
O701   H702    0.990   .     S
O701   C717    1.376   .     S
C703   O743    1.285   .     A
C703   O741    1.290   .     A
C703   C709    1.428   .     S
C704   O744    1.285   .     A
C704   O742    1.290   .     A
C704   C710    1.428   .     S
C705   H733    1.077   .     S
C705   C726    1.413   .     A
C705   C707    1.386   .     A
C706   H734    1.080   .     S
C706   C708    1.388   .     A
C706   C725    1.410   .     A
C707   H729    1.084   .     S
C708   C238    1.395   1_556 S
C708   H784    1.084   .     S
C709   C872    1.328   .     S
C709   H897    1.088   .     S
C711   O747    1.301   .     A
C711   C713    1.479   .     S
C711   O745    1.298   .     A
C712   O748    1.301   .     A
C712   C714    1.495   .     S
C712   O746    1.305   .     A
C713   C717    1.417   .     A
C713   C719    1.406   .     A
C714   C718    1.418   .     A
C714   C720    1.425   .     A
C715   C723    1.398   .     A
C715   C717    1.391   .     A
C716   C724    1.397   .     A
C716   C718    1.392   .     A
C716   H786    1.085   .     S
C718   O807    1.375   .     S
C719   O751    1.380   .     S
C719   C721    1.424   .     A
C720   O749    1.375   .     S
C720   C722    1.421   .     A
C721   C725    1.429   .     A
C721   C723    1.417   .     A
C722   C726    1.432   .     A
C722   C724    1.416   .     A
C723   C221    1.392   1_556 S
C725   C240    1.423   1_556 S
Cu727  O744    1.952   .     S
Cu727  N740    2.016   .     S
Cu727  O745    1.931   .     S
Cu727  O741    1.956   .     S
Cu727  Cu728   2.683   .     S
Cu727  O748    1.905   .     S
Cu728  N739    2.016   .     S
Cu728  O742    1.956   .     S
Cu728  O746    1.931   .     S
Cu728  O747    1.905   .     S
Cu728  O743    1.952   .     S
H731   C769    1.085   .     S
H736   C872    1.088   .     S
H738   N794    1.029   .     S
N739   H791    1.029   .     S
N739   N794    1.280   .     S
O749   H750    0.993   .     S
O751   H752    0.992   .     S
O753   H754    0.990   .     S
O755   H756    0.990   .     S
O755   C771    1.376   .     S
C757   O797    1.285   .     A
C757   O795    1.290   .     A
C757   C763    1.428   .     S
C758   O798    1.285   .     A
C758   O796    1.290   .     A
C758   C764    1.428   .     S
C759   H787    1.077   .     S
C759   C780    1.413   .     A
C759   C761    1.386   .     A
C760   H788    1.080   .     S
C760   C762    1.388   .     A
C760   C779    1.410   .     A
C761   H783    1.084   .     S
C762   C292    1.395   1_556 S
C762   H676    1.084   1_655 S
C763   C926    1.328   .     S
C763   H951    1.088   .     S
C765   O801    1.301   .     A
C765   C767    1.479   .     S
C765   O799    1.298   .     A
C766   O802    1.301   .     A
C766   C768    1.495   .     S
C766   O800    1.305   .     A
C767   C771    1.417   .     A
C767   C773    1.406   .     A
C768   C772    1.418   .     A
C768   C774    1.425   .     A
C769   C777    1.398   .     A
C769   C771    1.391   .     A
C770   C778    1.397   .     A
C770   C772    1.392   .     A
C770   H678    1.085   1_655 S
C772   O699    1.375   1_655 S
C773   O805    1.380   .     S
C773   C775    1.424   .     A
C774   O803    1.375   .     S
C774   C776    1.421   .     A
C775   C779    1.429   .     A
C775   C777    1.417   .     A
C776   C780    1.432   .     A
C776   C778    1.416   .     A
C777   C275    1.392   1_556 S
C779   C294    1.423   1_556 S
Cu781  O798    1.952   .     S
Cu781  N794    2.016   .     S
Cu781  O799    1.931   .     S
Cu781  O795    1.956   .     S
Cu781  Cu782   2.683   .     S
Cu781  O802    1.905   .     S
Cu782  N793    2.016   .     S
Cu782  O796    1.956   .     S
Cu782  O800    1.931   .     S
Cu782  O801    1.905   .     S
Cu782  O797    1.952   .     S
H785   C661    1.085   1_655 S
H790   C926    1.088   .     S
H792   N686    1.029   1_655 S
N793   H683    1.029   1_655 S
N793   N686    1.280   1_655 S
O803   H804    0.993   .     S
O805   H806    0.992   .     S
O807   H808    0.990   .     S
O809   H810    0.990   .     S
O809   C663    1.376   1_655 S
C811   O851    1.285   .     A
C811   O849    1.290   .     A
C811   C817    1.428   .     S
C812   O852    1.285   .     A
C812   O850    1.290   .     A
C812   C818    1.428   .     S
C813   H841    1.077   .     S
C813   C834    1.413   .     A
C813   C815    1.386   .     A
C814   H842    1.080   .     S
C814   C816    1.388   .     A
C814   C833    1.410   .     A
C815   H837    1.084   .     S
C816   C346    1.395   1_556 S
C816   H892    1.084   .     S
C817   C494    1.328   1_565 S
C817   H519    1.088   1_565 S
C819   O855    1.301   .     A
C819   C821    1.479   .     S
C819   O853    1.298   .     A
C820   O856    1.301   .     A
C820   C822    1.495   .     S
C820   O854    1.305   .     A
C821   C825    1.417   .     A
C821   C827    1.406   .     A
C822   C826    1.418   .     A
C822   C828    1.425   .     A
C823   C831    1.398   .     A
C823   C825    1.391   .     A
C823   H947    1.085   1_455 S
C824   C832    1.397   .     A
C824   C826    1.392   .     A
C824   H894    1.085   .     S
C825   O971    1.376   1_455 S
C826   O915    1.375   .     S
C827   O859    1.380   .     S
C827   C829    1.424   .     A
C828   O857    1.375   .     S
C828   C830    1.421   .     A
C829   C833    1.429   .     A
C829   C831    1.417   .     A
C830   C834    1.432   .     A
C830   C832    1.416   .     A
C831   C329    1.392   1_556 S
C833   C348    1.423   1_556 S
Cu835  O852    1.952   .     S
Cu835  N848    2.016   .     S
Cu835  O853    1.931   .     S
Cu835  O849    1.956   .     S
Cu835  Cu836   2.683   .     S
Cu835  O856    1.905   .     S
Cu836  N847    2.016   .     S
Cu836  O850    1.956   .     S
Cu836  O854    1.931   .     S
Cu836  O855    1.905   .     S
Cu836  O851    1.952   .     S
H838   C924    1.084   1_455 S
H839   C877    1.085   .     S
H840   C932    1.085   1_455 S
H844   C494    1.088   1_565 S
H845   N955    1.029   1_455 S
H846   N902    1.029   .     S
N847   H899    1.029   .     S
N847   N902    1.280   .     S
N848   H954    1.029   1_455 S
N848   N955    1.280   1_455 S
O857   H858    0.993   .     S
O859   H860    0.992   .     S
O861   H862    0.990   .     S
O861   C934    1.375   1_455 S
O863   H864    0.990   .     S
O863   C879    1.376   .     S
C865   O905    1.285   .     A
C865   O903    1.290   .     A
C865   C871    1.428   .     S
C866   O906    1.285   .     A
C866   O904    1.290   .     A
C866   C872    1.428   .     S
C867   H895    1.077   .     S
C867   C888    1.413   .     A
C867   C869    1.386   .     A
C868   H896    1.080   .     S
C868   C870    1.388   .     A
C868   C887    1.410   .     A
C869   H891    1.084   .     S
C870   C400    1.395   1_556 S
C870   H946    1.084   .     S
C871   C548    1.328   1_565 S
C871   H573    1.088   1_565 S
C873   O909    1.301   .     A
C873   C875    1.479   .     S
C873   O907    1.298   .     A
C874   O910    1.301   .     A
C874   C876    1.495   .     S
C874   O908    1.305   .     A
C875   C879    1.417   .     A
C875   C881    1.406   .     A
C876   C880    1.418   .     A
C876   C882    1.425   .     A
C877   C885    1.398   .     A
C877   C879    1.391   .     A
C878   C886    1.397   .     A
C878   C880    1.392   .     A
C878   H948    1.085   .     S
C880   O969    1.375   .     S
C881   O913    1.380   .     S
C881   C883    1.424   .     A
C882   O911    1.375   .     S
C882   C884    1.421   .     A
C883   C887    1.429   .     A
C883   C885    1.417   .     A
C884   C888    1.432   .     A
C884   C886    1.416   .     A
C885   C383    1.392   1_556 S
C887   C402    1.423   1_556 S
Cu889  O906    1.952   .     S
Cu889  N902    2.016   .     S
Cu889  O907    1.931   .     S
Cu889  O903    1.956   .     S
Cu889  Cu890   2.683   .     S
Cu889  O910    1.905   .     S
Cu890  N901    2.016   .     S
Cu890  O904    1.956   .     S
Cu890  O908    1.931   .     S
Cu890  O909    1.905   .     S
Cu890  O905    1.952   .     S
H893   C931    1.085   .     S
H898   C548    1.088   1_565 S
H900   N956    1.029   .     S
N901   H953    1.029   .     S
N901   N956    1.280   .     S
O911   H912    0.993   .     S
O913   H914    0.992   .     S
O915   H916    0.990   .     S
O917   H918    0.990   .     S
O917   C933    1.376   .     S
C919   O959    1.285   .     A
C919   O957    1.290   .     A
C919   C925    1.428   .     S
C920   O960    1.285   .     A
C920   O958    1.290   .     A
C920   C926    1.428   .     S
C921   H949    1.077   .     S
C921   C942    1.413   .     A
C921   C923    1.386   .     A
C922   H950    1.080   .     S
C922   C924    1.388   .     A
C922   C941    1.410   .     A
C923   H945    1.084   .     S
C924   C454    1.395   1_556 S
C924   H838    1.084   1_655 S
C925   C602    1.328   1_565 S
C925   H627    1.088   1_565 S
C927   O963    1.301   .     A
C927   C929    1.479   .     S
C927   O961    1.298   .     A
C928   O964    1.301   .     A
C928   C930    1.495   .     S
C928   O962    1.305   .     A
C929   C933    1.417   .     A
C929   C935    1.406   .     A
C930   C934    1.418   .     A
C930   C936    1.425   .     A
C931   C939    1.398   .     A
C931   C933    1.391   .     A
C932   C940    1.397   .     A
C932   C934    1.392   .     A
C932   H840    1.085   1_655 S
C934   O861    1.375   1_655 S
C935   O967    1.380   .     S
C935   C937    1.424   .     A
C936   O965    1.375   .     S
C936   C938    1.421   .     A
C937   C941    1.429   .     A
C937   C939    1.417   .     A
C938   C942    1.432   .     A
C938   C940    1.416   .     A
C939   C437    1.392   1_556 S
C941   C456    1.423   1_556 S
Cu943  O960    1.952   .     S
Cu943  N956    2.016   .     S
Cu943  O961    1.931   .     S
Cu943  O957    1.956   .     S
Cu943  Cu944   2.683   .     S
Cu943  O964    1.905   .     S
Cu944  N955    2.016   .     S
Cu944  O958    1.956   .     S
Cu944  O962    1.931   .     S
Cu944  O963    1.905   .     S
Cu944  O959    1.952   .     S
H947   C823    1.085   1_655 S
H952   C602    1.088   1_565 S
H954   N848    1.029   1_655 S
N955   H845    1.029   1_655 S
N955   N848    1.280   1_655 S
O965   H966    0.993   .     S
O967   H968    0.992   .     S
O969   H970    0.990   .     S
O971   H972    0.990   .     S
O971   C825    1.376   1_655 S
